MODEL 1
REMARK VINA RESULT:      -5.8      0.000      0.000
REMARK  Name = 
REMARK  24 active torsions:
REMARK  status: ('A' for Active; 'I' for Inactive)
REMARK    1  A    between atoms: C_1  and  C_2
REMARK    2  A    between atoms: C_2  and  C_3
REMARK    3  A    between atoms: C_3  and  C_4
REMARK    4  A    between atoms: C_4  and  C_5
REMARK    5  A    between atoms: C_5  and  C_6
REMARK    6  A    between atoms: C_6  and  C_7
REMARK    7  A    between atoms: C_7  and  C_8
REMARK    8  A    between atoms: C_8  and  C_9
REMARK    9  A    between atoms: C_9  and  C_10
REMARK   10  A    between atoms: C_10  and  N_11
REMARK   11  A    between atoms: N_11  and  C_12
REMARK   12  A    between atoms: C_12  and  C_13
REMARK   13  A    between atoms: C_13  and  C_14
REMARK   14  A    between atoms: C_14  and  C_15
REMARK   15  A    between atoms: C_15  and  C_16
REMARK   16  A    between atoms: C_16  and  C_17
REMARK   17  A    between atoms: C_17  and  C_18
REMARK   18  A    between atoms: C_18  and  C_19
REMARK   19  A    between atoms: C_19  and  C_20
REMARK   20  A    between atoms: C_20  and  C_21
REMARK   21  A    between atoms: C_22  and  CA_24
REMARK   22  A    between atoms: CA_24  and  N_25
REMARK   23  A    between atoms: CA_24  and  C_26
REMARK   24  A    between atoms: C_26  and  O_27
REMARK                            x       y       z     vdW  Elec       q    Type
REMARK                         _______ _______ _______ _____ _____    ______ ____
ROOT
ATOM      1  N   UNL     1       5.899   5.083  17.048  0.00  0.00    +0.000 N 
ATOM      2  C   UNL     1       6.916   4.701  16.141  0.00  0.00    +0.000 C 
ATOM      3  O   UNL     1       7.922   4.110  16.521  0.00  0.00    +0.000 OA
ENDROOT
BRANCH   2   4
ATOM      4  CA  UNL     1       6.782   5.094  14.638  0.00  0.00    +0.000 C 
BRANCH   4   5
ATOM      5  N   UNL     1       8.060   5.551  14.051  0.00  0.00    +0.000 NA
ATOM      6  H1  UNL     1       7.954   6.492  13.711  0.00  0.00    +0.000 HD
ATOM      7  H2  UNL     1       8.346   4.964  13.254  0.00  0.00    +0.000 HD
ENDBRANCH   4   5
BRANCH   4   8
ATOM      8  C   UNL     1       6.320   3.832  13.862  0.00  0.00    +0.000 C 
BRANCH   8   9
ATOM      9  O   UNL     1       6.606   3.905  12.467  0.00  0.00    +0.000 OA
ATOM     10  H   UNL     1       7.509   3.571  12.329  0.00  0.00    +0.000 HD
ENDBRANCH   8   9
ENDBRANCH   4   8
ENDBRANCH   2   4
BRANCH   1  11
ATOM     11  C   UNL     1       4.680   5.773  16.556  0.00  0.00    +0.000 C 
BRANCH  11  12
ATOM     12  C   UNL     1       4.183   7.028  17.264  0.00  0.00    +0.000 C 
BRANCH  12  13
ATOM     13  C   UNL     1       2.723   7.080  17.693  0.00  0.00    +0.000 C 
BRANCH  13  14
ATOM     14  C   UNL     1       2.676   8.087  18.847  0.00  0.00    +0.000 C 
BRANCH  14  15
ATOM     15  C   UNL     1       1.277   8.593  19.094  0.00  0.00    +0.000 C 
BRANCH  15  16
ATOM     16  C   UNL     1       0.829   9.510  17.963  0.00  0.00    +0.000 C 
BRANCH  16  17
ATOM     17  C   UNL     1      -0.490  10.155  18.355  0.00  0.00    +0.000 C 
BRANCH  17  18
ATOM     18  C   UNL     1      -1.541   9.996  17.268  0.00  0.00    +0.000 C 
BRANCH  18  19
ATOM     19  C   UNL     1      -2.309  11.303  17.099  0.00  0.00    +0.000 C 
ATOM     20  C   UNL     1      -3.724  11.179  17.627  0.00  0.00    +0.000 C 
ENDBRANCH  18  19
ENDBRANCH  17  18
ENDBRANCH  16  17
ENDBRANCH  15  16
ENDBRANCH  14  15
ENDBRANCH  13  14
ENDBRANCH  12  13
ENDBRANCH  11  12
ENDBRANCH   1  11
BRANCH   1  21
ATOM     21  C   UNL     1       6.129   4.649  18.429  0.00  0.00    +0.000 C 
BRANCH  21  22
ATOM     22  C   UNL     1       4.947   4.176  19.271  0.00  0.00    +0.000 C 
BRANCH  22  23
ATOM     23  C   UNL     1       4.421   2.748  19.191  0.00  0.00    +0.000 C 
BRANCH  23  24
ATOM     24  C   UNL     1       3.762   2.635  17.800  0.00  0.00    +0.000 C 
BRANCH  24  25
ATOM     25  C   UNL     1       2.280   2.338  17.880  0.00  0.00    +0.000 C 
BRANCH  25  26
ATOM     26  C   UNL     1       1.471   3.604  18.164  0.00  0.00    +0.000 C 
BRANCH  26  27
ATOM     27  C   UNL     1       0.866   3.494  19.558  0.00  0.00    +0.000 C 
BRANCH  27  28
ATOM     28  C   UNL     1       1.326   4.613  20.483  0.00  0.00    +0.000 C 
BRANCH  28  30
ATOM     29  C   UNL     1       1.804   2.569  21.868  0.00  0.00    +0.000 C 
ATOM     30  C   UNL     1       2.143   4.028  21.634  0.00  0.00    +0.000 C 
ENDBRANCH  28  30
ENDBRANCH  27  28
ENDBRANCH  26  27
ENDBRANCH  25  26
ENDBRANCH  24  25
ENDBRANCH  23  24
ENDBRANCH  22  23
ENDBRANCH  21  22
ENDBRANCH   1  21
TORSDOF 22
ENDMDL
MODEL 2
REMARK VINA RESULT:      -5.7      4.491      7.975
REMARK  Name = 
REMARK  24 active torsions:
REMARK  status: ('A' for Active; 'I' for Inactive)
REMARK    1  A    between atoms: C_1  and  C_2
REMARK    2  A    between atoms: C_2  and  C_3
REMARK    3  A    between atoms: C_3  and  C_4
REMARK    4  A    between atoms: C_4  and  C_5
REMARK    5  A    between atoms: C_5  and  C_6
REMARK    6  A    between atoms: C_6  and  C_7
REMARK    7  A    between atoms: C_7  and  C_8
REMARK    8  A    between atoms: C_8  and  C_9
REMARK    9  A    between atoms: C_9  and  C_10
REMARK   10  A    between atoms: C_10  and  N_11
REMARK   11  A    between atoms: N_11  and  C_12
REMARK   12  A    between atoms: C_12  and  C_13
REMARK   13  A    between atoms: C_13  and  C_14
REMARK   14  A    between atoms: C_14  and  C_15
REMARK   15  A    between atoms: C_15  and  C_16
REMARK   16  A    between atoms: C_16  and  C_17
REMARK   17  A    between atoms: C_17  and  C_18
REMARK   18  A    between atoms: C_18  and  C_19
REMARK   19  A    between atoms: C_19  and  C_20
REMARK   20  A    between atoms: C_20  and  C_21
REMARK   21  A    between atoms: C_22  and  CA_24
REMARK   22  A    between atoms: CA_24  and  N_25
REMARK   23  A    between atoms: CA_24  and  C_26
REMARK   24  A    between atoms: C_26  and  O_27
REMARK                            x       y       z     vdW  Elec       q    Type
REMARK                         _______ _______ _______ _____ _____    ______ ____
ROOT
ATOM      1  N   UNL     1       3.838   3.835  18.175  0.00  0.00    +0.000 N 
ATOM      2  C   UNL     1       2.497   3.702  18.608  0.00  0.00    +0.000 C 
ATOM      3  O   UNL     1       1.588   3.478  17.815  0.00  0.00    +0.000 OA
ENDROOT
BRANCH   2   4
ATOM      4  CA  UNL     1       2.161   3.908  20.117  0.00  0.00    +0.000 C 
BRANCH   4   5
ATOM      5  N   UNL     1       0.714   4.083  20.361  0.00  0.00    +0.000 NA
ATOM      6  H1  UNL     1       0.575   4.472  21.279  0.00  0.00    +0.000 HD
ATOM      7  H2  UNL     1       0.208   3.186  20.325  0.00  0.00    +0.000 HD
ENDBRANCH   4   5
BRANCH   4   8
ATOM      8  C   UNL     1       2.628   2.639  20.878  0.00  0.00    +0.000 C 
BRANCH   8   9
ATOM      9  O   UNL     1       2.396   2.720  22.283  0.00  0.00    +0.000 OA
ATOM     10  H   UNL     1       3.190   3.103  22.695  0.00  0.00    +0.000 HD
ENDBRANCH   8   9
ENDBRANCH   4   8
ENDBRANCH   2   4
BRANCH   1  11
ATOM     11  C   UNL     1       4.920   4.079  19.161  0.00  0.00    +0.000 C 
BRANCH  11  12
ATOM     12  C   UNL     1       5.754   5.353  19.070  0.00  0.00    +0.000 C 
BRANCH  12  13
ATOM     13  C   UNL     1       7.222   5.224  18.684  0.00  0.00    +0.000 C 
BRANCH  13  14
ATOM     14  C   UNL     1       7.794   6.642  18.791  0.00  0.00    +0.000 C 
BRANCH  14  15
ATOM     15  C   UNL     1       7.777   7.356  17.463  0.00  0.00    +0.000 C 
BRANCH  15  16
ATOM     16  C   UNL     1       7.676   8.863  17.665  0.00  0.00    +0.000 C 
BRANCH  16  17
ATOM     17  C   UNL     1       8.753   9.293  18.648  0.00  0.00    +0.000 C 
BRANCH  17  18
ATOM     18  C   UNL     1       9.444  10.572  18.204  0.00  0.00    +0.000 C 
BRANCH  18  19
ATOM     19  C   UNL     1       9.214  11.668  19.240  0.00  0.00    +0.000 C 
ATOM     20  C   UNL     1       9.781  11.276  20.589  0.00  0.00    +0.000 C 
ENDBRANCH  18  19
ENDBRANCH  17  18
ENDBRANCH  16  17
ENDBRANCH  15  16
ENDBRANCH  14  15
ENDBRANCH  13  14
ENDBRANCH  12  13
ENDBRANCH  11  12
ENDBRANCH   1  11
BRANCH   1  21
ATOM     21  C   UNL     1       4.033   3.609  16.740  0.00  0.00    +0.000 C 
BRANCH  21  22
ATOM     22  C   UNL     1       5.070   4.438  15.986  0.00  0.00    +0.000 C 
BRANCH  22  23
ATOM     23  C   UNL     1       6.445   3.884  15.639  0.00  0.00    +0.000 C 
BRANCH  23  24
ATOM     24  C   UNL     1       7.102   4.957  14.744  0.00  0.00    +0.000 C 
BRANCH  24  25
ATOM     25  C   UNL     1       7.134   4.558  13.284  0.00  0.00    +0.000 C 
BRANCH  25  26
ATOM     26  C   UNL     1       5.806   3.940  12.845  0.00  0.00    +0.000 C 
BRANCH  26  27
ATOM     27  C   UNL     1       6.079   2.936  11.731  0.00  0.00    +0.000 C 
BRANCH  27  28
ATOM     28  C   UNL     1       4.804   2.307  11.186  0.00  0.00    +0.000 C 
BRANCH  28  30
ATOM     29  C   UNL     1       3.317   3.850   9.869  0.00  0.00    +0.000 C 
ATOM     30  C   UNL     1       3.662   3.321  11.247  0.00  0.00    +0.000 C 
ENDBRANCH  28  30
ENDBRANCH  27  28
ENDBRANCH  26  27
ENDBRANCH  25  26
ENDBRANCH  24  25
ENDBRANCH  23  24
ENDBRANCH  22  23
ENDBRANCH  21  22
ENDBRANCH   1  21
TORSDOF 22
ENDMDL
MODEL 3
REMARK VINA RESULT:      -5.7      2.753      5.924
REMARK  Name = 
REMARK  24 active torsions:
REMARK  status: ('A' for Active; 'I' for Inactive)
REMARK    1  A    between atoms: C_1  and  C_2
REMARK    2  A    between atoms: C_2  and  C_3
REMARK    3  A    between atoms: C_3  and  C_4
REMARK    4  A    between atoms: C_4  and  C_5
REMARK    5  A    between atoms: C_5  and  C_6
REMARK    6  A    between atoms: C_6  and  C_7
REMARK    7  A    between atoms: C_7  and  C_8
REMARK    8  A    between atoms: C_8  and  C_9
REMARK    9  A    between atoms: C_9  and  C_10
REMARK   10  A    between atoms: C_10  and  N_11
REMARK   11  A    between atoms: N_11  and  C_12
REMARK   12  A    between atoms: C_12  and  C_13
REMARK   13  A    between atoms: C_13  and  C_14
REMARK   14  A    between atoms: C_14  and  C_15
REMARK   15  A    between atoms: C_15  and  C_16
REMARK   16  A    between atoms: C_16  and  C_17
REMARK   17  A    between atoms: C_17  and  C_18
REMARK   18  A    between atoms: C_18  and  C_19
REMARK   19  A    between atoms: C_19  and  C_20
REMARK   20  A    between atoms: C_20  and  C_21
REMARK   21  A    between atoms: C_22  and  CA_24
REMARK   22  A    between atoms: CA_24  and  N_25
REMARK   23  A    between atoms: CA_24  and  C_26
REMARK   24  A    between atoms: C_26  and  O_27
REMARK                            x       y       z     vdW  Elec       q    Type
REMARK                         _______ _______ _______ _____ _____    ______ ____
ROOT
ATOM      1  N   UNL     1       2.963   4.001  18.309  0.00  0.00    +0.000 N 
ATOM      2  C   UNL     1       2.597   3.123  19.357  0.00  0.00    +0.000 C 
ATOM      3  O   UNL     1       3.281   2.143  19.637  0.00  0.00    +0.000 OA
ENDROOT
BRANCH   2   4
ATOM      4  CA  UNL     1       1.266   3.372  20.128  0.00  0.00    +0.000 C 
BRANCH   4   5
ATOM      5  N   UNL     1       0.102   2.733  19.479  0.00  0.00    +0.000 NA
ATOM      6  H1  UNL     1      -0.654   2.665  20.140  0.00  0.00    +0.000 HD
ATOM      7  H2  UNL     1       0.318   1.778  19.158  0.00  0.00    +0.000 HD
ENDBRANCH   4   5
BRANCH   4   8
ATOM      8  C   UNL     1       1.423   2.759  21.545  0.00  0.00    +0.000 C 
BRANCH   8   9
ATOM      9  O   UNL     1       2.500   3.335  22.281  0.00  0.00    +0.000 OA
ATOM     10  H   UNL     1       2.381   4.299  22.280  0.00  0.00    +0.000 HD
ENDBRANCH   8   9
ENDBRANCH   4   8
ENDBRANCH   2   4
BRANCH   1  11
ATOM     11  C   UNL     1       2.132   5.193  18.010  0.00  0.00    +0.000 C 
BRANCH  11  12
ATOM     12  C   UNL     1       2.373   6.495  18.767  0.00  0.00    +0.000 C 
BRANCH  12  13
ATOM     13  C   UNL     1       3.225   7.567  18.099  0.00  0.00    +0.000 C 
BRANCH  13  14
ATOM     14  C   UNL     1       2.232   8.630  17.616  0.00  0.00    +0.000 C 
BRANCH  14  15
ATOM     15  C   UNL     1       1.438   9.215  18.757  0.00  0.00    +0.000 C 
BRANCH  15  16
ATOM     16  C   UNL     1       0.131   9.814  18.251  0.00  0.00    +0.000 C 
BRANCH  16  17
ATOM     17  C   UNL     1      -0.606  10.431  19.428  0.00  0.00    +0.000 C 
BRANCH  17  18
ATOM     18  C   UNL     1      -1.918  11.069  19.000  0.00  0.00    +0.000 C 
BRANCH  18  19
ATOM     19  C   UNL     1      -2.305  10.571  17.611  0.00  0.00    +0.000 C 
ATOM     20  C   UNL     1      -3.713  10.011  17.601  0.00  0.00    +0.000 C 
ENDBRANCH  18  19
ENDBRANCH  17  18
ENDBRANCH  16  17
ENDBRANCH  15  16
ENDBRANCH  14  15
ENDBRANCH  13  14
ENDBRANCH  12  13
ENDBRANCH  11  12
ENDBRANCH   1  11
BRANCH   1  21
ATOM     21  C   UNL     1       4.239   3.674  17.665  0.00  0.00    +0.000 C 
BRANCH  21  22
ATOM     22  C   UNL     1       5.519   4.342  18.158  0.00  0.00    +0.000 C 
BRANCH  22  23
ATOM     23  C   UNL     1       6.416   5.148  17.228  0.00  0.00    +0.000 C 
BRANCH  23  24
ATOM     24  C   UNL     1       5.452   5.958  16.334  0.00  0.00    +0.000 C 
BRANCH  24  25
ATOM     25  C   UNL     1       5.597   5.620  14.866  0.00  0.00    +0.000 C 
BRANCH  25  26
ATOM     26  C   UNL     1       6.801   4.711  14.617  0.00  0.00    +0.000 C 
BRANCH  26  27
ATOM     27  C   UNL     1       6.370   3.564  13.711  0.00  0.00    +0.000 C 
BRANCH  27  28
ATOM     28  C   UNL     1       5.150   3.913  12.869  0.00  0.00    +0.000 C 
BRANCH  28  30
ATOM     29  C   UNL     1       3.779   3.129  10.911  0.00  0.00    +0.000 C 
ATOM     30  C   UNL     1       5.115   3.030  11.623  0.00  0.00    +0.000 C 
ENDBRANCH  28  30
ENDBRANCH  27  28
ENDBRANCH  26  27
ENDBRANCH  25  26
ENDBRANCH  24  25
ENDBRANCH  23  24
ENDBRANCH  22  23
ENDBRANCH  21  22
ENDBRANCH   1  21
TORSDOF 22
ENDMDL
MODEL 4
REMARK VINA RESULT:      -5.6      4.167      8.367
REMARK  Name = 
REMARK  24 active torsions:
REMARK  status: ('A' for Active; 'I' for Inactive)
REMARK    1  A    between atoms: C_1  and  C_2
REMARK    2  A    between atoms: C_2  and  C_3
REMARK    3  A    between atoms: C_3  and  C_4
REMARK    4  A    between atoms: C_4  and  C_5
REMARK    5  A    between atoms: C_5  and  C_6
REMARK    6  A    between atoms: C_6  and  C_7
REMARK    7  A    between atoms: C_7  and  C_8
REMARK    8  A    between atoms: C_8  and  C_9
REMARK    9  A    between atoms: C_9  and  C_10
REMARK   10  A    between atoms: C_10  and  N_11
REMARK   11  A    between atoms: N_11  and  C_12
REMARK   12  A    between atoms: C_12  and  C_13
REMARK   13  A    between atoms: C_13  and  C_14
REMARK   14  A    between atoms: C_14  and  C_15
REMARK   15  A    between atoms: C_15  and  C_16
REMARK   16  A    between atoms: C_16  and  C_17
REMARK   17  A    between atoms: C_17  and  C_18
REMARK   18  A    between atoms: C_18  and  C_19
REMARK   19  A    between atoms: C_19  and  C_20
REMARK   20  A    between atoms: C_20  and  C_21
REMARK   21  A    between atoms: C_22  and  CA_24
REMARK   22  A    between atoms: CA_24  and  N_25
REMARK   23  A    between atoms: CA_24  and  C_26
REMARK   24  A    between atoms: C_26  and  O_27
REMARK                            x       y       z     vdW  Elec       q    Type
REMARK                         _______ _______ _______ _____ _____    ______ ____
ROOT
ATOM      1  N   UNL     1       4.074   4.807  18.799  0.00  0.00    +0.000 N 
ATOM      2  C   UNL     1       3.432   3.635  19.267  0.00  0.00    +0.000 C 
ATOM      3  O   UNL     1       3.995   2.862  20.035  0.00  0.00    +0.000 OA
ENDROOT
BRANCH   2   4
ATOM      4  CA  UNL     1       2.004   3.290  18.745  0.00  0.00    +0.000 C 
BRANCH   4   5
ATOM      5  N   UNL     1       1.800   1.838  18.558  0.00  0.00    +0.000 NA
ATOM      6  H1  UNL     1       2.581   1.338  18.951  0.00  0.00    +0.000 HD
ATOM      7  H2  UNL     1       1.741   1.584  17.561  0.00  0.00    +0.000 HD
ENDBRANCH   4   5
BRANCH   4   8
ATOM      8  C   UNL     1       0.985   3.787  19.804  0.00  0.00    +0.000 C 
BRANCH   8   9
ATOM      9  O   UNL     1       0.571   2.756  20.699  0.00  0.00    +0.000 OA
ATOM     10  H   UNL     1       1.072   1.952  20.482  0.00  0.00    +0.000 HD
ENDBRANCH   8   9
ENDBRANCH   4   8
ENDBRANCH   2   4
BRANCH   1  11
ATOM     11  C   UNL     1       3.358   5.738  17.891  0.00  0.00    +0.000 C 
BRANCH  11  12
ATOM     12  C   UNL     1       4.047   7.013  17.418  0.00  0.00    +0.000 C 
BRANCH  12  13
ATOM     13  C   UNL     1       4.698   7.010  16.041  0.00  0.00    +0.000 C 
BRANCH  13  14
ATOM     14  C   UNL     1       4.894   5.531  15.690  0.00  0.00    +0.000 C 
BRANCH  14  15
ATOM     15  C   UNL     1       6.151   5.306  14.888  0.00  0.00    +0.000 C 
BRANCH  15  16
ATOM     16  C   UNL     1       6.136   3.927  14.240  0.00  0.00    +0.000 C 
BRANCH  16  17
ATOM     17  C   UNL     1       7.104   3.932  13.069  0.00  0.00    +0.000 C 
BRANCH  17  18
ATOM     18  C   UNL     1       6.379   3.818  11.737  0.00  0.00    +0.000 C 
BRANCH  18  19
ATOM     19  C   UNL     1       5.324   2.719  11.817  0.00  0.00    +0.000 C 
ATOM     20  C   UNL     1       4.040   3.142  11.131  0.00  0.00    +0.000 C 
ENDBRANCH  18  19
ENDBRANCH  17  18
ENDBRANCH  16  17
ENDBRANCH  15  16
ENDBRANCH  14  15
ENDBRANCH  13  14
ENDBRANCH  12  13
ENDBRANCH  11  12
ENDBRANCH   1  11
BRANCH   1  21
ATOM     21  C   UNL     1       5.406   5.032  19.366  0.00  0.00    +0.000 C 
BRANCH  21  22
ATOM     22  C   UNL     1       6.640   4.736  18.519  0.00  0.00    +0.000 C 
BRANCH  22  23
ATOM     23  C   UNL     1       7.953   5.482  18.720  0.00  0.00    +0.000 C 
BRANCH  23  24
ATOM     24  C   UNL     1       7.773   6.828  17.986  0.00  0.00    +0.000 C 
BRANCH  24  25
ATOM     25  C   UNL     1       8.428   7.981  18.715  0.00  0.00    +0.000 C 
BRANCH  25  26
ATOM     26  C   UNL     1       8.329   9.278  17.911  0.00  0.00    +0.000 C 
BRANCH  26  27
ATOM     27  C   UNL     1       8.985  10.399  18.710  0.00  0.00    +0.000 C 
BRANCH  27  28
ATOM     28  C   UNL     1      10.031  11.156  17.902  0.00  0.00    +0.000 C 
BRANCH  28  30
ATOM     29  C   UNL     1      10.534  13.574  18.380  0.00  0.00    +0.000 C 
ATOM     30  C   UNL     1      10.770  12.139  18.809  0.00  0.00    +0.000 C 
ENDBRANCH  28  30
ENDBRANCH  27  28
ENDBRANCH  26  27
ENDBRANCH  25  26
ENDBRANCH  24  25
ENDBRANCH  23  24
ENDBRANCH  22  23
ENDBRANCH  21  22
ENDBRANCH   1  21
TORSDOF 22
ENDMDL
MODEL 5
REMARK VINA RESULT:      -5.6      3.499      7.527
REMARK  Name = 
REMARK  24 active torsions:
REMARK  status: ('A' for Active; 'I' for Inactive)
REMARK    1  A    between atoms: C_1  and  C_2
REMARK    2  A    between atoms: C_2  and  C_3
REMARK    3  A    between atoms: C_3  and  C_4
REMARK    4  A    between atoms: C_4  and  C_5
REMARK    5  A    between atoms: C_5  and  C_6
REMARK    6  A    between atoms: C_6  and  C_7
REMARK    7  A    between atoms: C_7  and  C_8
REMARK    8  A    between atoms: C_8  and  C_9
REMARK    9  A    between atoms: C_9  and  C_10
REMARK   10  A    between atoms: C_10  and  N_11
REMARK   11  A    between atoms: N_11  and  C_12
REMARK   12  A    between atoms: C_12  and  C_13
REMARK   13  A    between atoms: C_13  and  C_14
REMARK   14  A    between atoms: C_14  and  C_15
REMARK   15  A    between atoms: C_15  and  C_16
REMARK   16  A    between atoms: C_16  and  C_17
REMARK   17  A    between atoms: C_17  and  C_18
REMARK   18  A    between atoms: C_18  and  C_19
REMARK   19  A    between atoms: C_19  and  C_20
REMARK   20  A    between atoms: C_20  and  C_21
REMARK   21  A    between atoms: C_22  and  CA_24
REMARK   22  A    between atoms: CA_24  and  N_25
REMARK   23  A    between atoms: CA_24  and  C_26
REMARK   24  A    between atoms: C_26  and  O_27
REMARK                            x       y       z     vdW  Elec       q    Type
REMARK                         _______ _______ _______ _____ _____    ______ ____
ROOT
ATOM      1  N   UNL     1       2.339   8.200  18.373  0.00  0.00    +0.000 N 
ATOM      2  C   UNL     1       1.739   9.481  18.405  0.00  0.00    +0.000 C 
ATOM      3  O   UNL     1       2.260  10.444  17.850  0.00  0.00    +0.000 OA
ENDROOT
BRANCH   2   4
ATOM      4  CA  UNL     1       0.423   9.685  19.215  0.00  0.00    +0.000 C 
BRANCH   4   5
ATOM      5  N   UNL     1       0.600  10.580  20.377  0.00  0.00    +0.000 NA
ATOM      6  H1  UNL     1      -0.246  11.104  20.527  0.00  0.00    +0.000 HD
ATOM      7  H2  UNL     1       1.361  11.258  20.226  0.00  0.00    +0.000 HD
ENDBRANCH   4   5
BRANCH   4   8
ATOM      8  C   UNL     1      -0.618  10.332  18.263  0.00  0.00    +0.000 C 
BRANCH   8   9
ATOM      9  O   UNL     1      -0.376  11.720  18.040  0.00  0.00    +0.000 OA
ATOM     10  H   UNL     1      -0.160  12.127  18.896  0.00  0.00    +0.000 HD
ENDBRANCH   8   9
ENDBRANCH   4   8
ENDBRANCH   2   4
BRANCH   1  11
ATOM     11  C   UNL     1       1.674   7.047  19.030  0.00  0.00    +0.000 C 
BRANCH  11  12
ATOM     12  C   UNL     1       2.212   6.517  20.355  0.00  0.00    +0.000 C 
BRANCH  12  13
ATOM     13  C   UNL     1       2.921   5.169  20.354  0.00  0.00    +0.000 C 
BRANCH  13  14
ATOM     14  C   UNL     1       2.264   4.366  21.481  0.00  0.00    +0.000 C 
BRANCH  14  15
ATOM     15  C   UNL     1       1.821   3.002  21.014  0.00  0.00    +0.000 C 
BRANCH  15  16
ATOM     16  C   UNL     1       0.684   3.122  20.007  0.00  0.00    +0.000 C 
BRANCH  16  17
ATOM     17  C   UNL     1       1.127   2.491  18.698  0.00  0.00    +0.000 C 
BRANCH  17  18
ATOM     18  C   UNL     1       1.477   3.540  17.655  0.00  0.00    +0.000 C 
BRANCH  18  19
ATOM     19  C   UNL     1       2.919   3.346  17.194  0.00  0.00    +0.000 C 
ATOM     20  C   UNL     1       3.554   2.147  17.868  0.00  0.00    +0.000 C 
ENDBRANCH  18  19
ENDBRANCH  17  18
ENDBRANCH  16  17
ENDBRANCH  15  16
ENDBRANCH  14  15
ENDBRANCH  13  14
ENDBRANCH  12  13
ENDBRANCH  11  12
ENDBRANCH   1  11
BRANCH   1  21
ATOM     21  C   UNL     1       3.565   8.128  17.573  0.00  0.00    +0.000 C 
BRANCH  21  22
ATOM     22  C   UNL     1       4.249   6.778  17.370  0.00  0.00    +0.000 C 
BRANCH  22  23
ATOM     23  C   UNL     1       5.706   6.670  16.940  0.00  0.00    +0.000 C 
BRANCH  23  24
ATOM     24  C   UNL     1       6.386   5.802  18.020  0.00  0.00    +0.000 C 
BRANCH  24  25
ATOM     25  C   UNL     1       7.262   4.719  17.430  0.00  0.00    +0.000 C 
BRANCH  25  26
ATOM     26  C   UNL     1       7.179   4.702  15.903  0.00  0.00    +0.000 C 
BRANCH  26  27
ATOM     27  C   UNL     1       6.112   3.698  15.482  0.00  0.00    +0.000 C 
BRANCH  27  28
ATOM     28  C   UNL     1       5.379   4.121  14.217  0.00  0.00    +0.000 C 
BRANCH  28  30
ATOM     29  C   UNL     1       5.315   3.166  11.891  0.00  0.00    +0.000 C 
ATOM     30  C   UNL     1       6.198   3.725  12.990  0.00  0.00    +0.000 C 
ENDBRANCH  28  30
ENDBRANCH  27  28
ENDBRANCH  26  27
ENDBRANCH  25  26
ENDBRANCH  24  25
ENDBRANCH  23  24
ENDBRANCH  22  23
ENDBRANCH  21  22
ENDBRANCH   1  21
TORSDOF 22
ENDMDL
MODEL 6
REMARK VINA RESULT:      -5.5      3.184      6.313
REMARK  Name = 
REMARK  24 active torsions:
REMARK  status: ('A' for Active; 'I' for Inactive)
REMARK    1  A    between atoms: C_1  and  C_2
REMARK    2  A    between atoms: C_2  and  C_3
REMARK    3  A    between atoms: C_3  and  C_4
REMARK    4  A    between atoms: C_4  and  C_5
REMARK    5  A    between atoms: C_5  and  C_6
REMARK    6  A    between atoms: C_6  and  C_7
REMARK    7  A    between atoms: C_7  and  C_8
REMARK    8  A    between atoms: C_8  and  C_9
REMARK    9  A    between atoms: C_9  and  C_10
REMARK   10  A    between atoms: C_10  and  N_11
REMARK   11  A    between atoms: N_11  and  C_12
REMARK   12  A    between atoms: C_12  and  C_13
REMARK   13  A    between atoms: C_13  and  C_14
REMARK   14  A    between atoms: C_14  and  C_15
REMARK   15  A    between atoms: C_15  and  C_16
REMARK   16  A    between atoms: C_16  and  C_17
REMARK   17  A    between atoms: C_17  and  C_18
REMARK   18  A    between atoms: C_18  and  C_19
REMARK   19  A    between atoms: C_19  and  C_20
REMARK   20  A    between atoms: C_20  and  C_21
REMARK   21  A    between atoms: C_22  and  CA_24
REMARK   22  A    between atoms: CA_24  and  N_25
REMARK   23  A    between atoms: CA_24  and  C_26
REMARK   24  A    between atoms: C_26  and  O_27
REMARK                            x       y       z     vdW  Elec       q    Type
REMARK                         _______ _______ _______ _____ _____    ______ ____
ROOT
ATOM      1  N   UNL     1       4.183   4.407  18.963  0.00  0.00    +0.000 N 
ATOM      2  C   UNL     1       3.245   3.402  19.302  0.00  0.00    +0.000 C 
ATOM      3  O   UNL     1       3.455   2.220  19.048  0.00  0.00    +0.000 OA
ENDROOT
BRANCH   2   4
ATOM      4  CA  UNL     1       1.892   3.815  19.956  0.00  0.00    +0.000 C 
BRANCH   4   5
ATOM      5  N   UNL     1       0.802   2.860  19.663  0.00  0.00    +0.000 NA
ATOM      6  H1  UNL     1       1.123   2.183  18.991  0.00  0.00    +0.000 HD
ATOM      7  H2  UNL     1      -0.021   3.330  19.258  0.00  0.00    +0.000 HD
ENDBRANCH   4   5
BRANCH   4   8
ATOM      8  C   UNL     1       2.103   3.846  21.493  0.00  0.00    +0.000 C 
BRANCH   8   9
ATOM      9  O   UNL     1       1.841   2.589  22.113  0.00  0.00    +0.000 OA
ATOM     10  H   UNL     1       2.580   2.393  22.714  0.00  0.00    +0.000 HD
ENDBRANCH   8   9
ENDBRANCH   4   8
ENDBRANCH   2   4
BRANCH   1  11
ATOM     11  C   UNL     1       3.914   5.825  19.307  0.00  0.00    +0.000 C 
BRANCH  11  12
ATOM     12  C   UNL     1       3.344   6.766  18.251  0.00  0.00    +0.000 C 
BRANCH  12  13
ATOM     13  C   UNL     1       2.038   7.486  18.560  0.00  0.00    +0.000 C 
BRANCH  13  14
ATOM     14  C   UNL     1       2.147   8.842  17.855  0.00  0.00    +0.000 C 
BRANCH  14  15
ATOM     15  C   UNL     1       0.873   9.640  17.973  0.00  0.00    +0.000 C 
BRANCH  15  16
ATOM     16  C   UNL     1       1.102  10.899  18.799  0.00  0.00    +0.000 C 
BRANCH  16  17
ATOM     17  C   UNL     1      -0.131  11.151  19.651  0.00  0.00    +0.000 C 
BRANCH  17  18
ATOM     18  C   UNL     1      -0.369  10.027  20.646  0.00  0.00    +0.000 C 
BRANCH  18  19
ATOM     19  C   UNL     1       0.121  10.450  22.028  0.00  0.00    +0.000 C 
ATOM     20  C   UNL     1      -0.661   9.753  23.123  0.00  0.00    +0.000 C 
ENDBRANCH  18  19
ENDBRANCH  17  18
ENDBRANCH  16  17
ENDBRANCH  15  16
ENDBRANCH  14  15
ENDBRANCH  13  14
ENDBRANCH  12  13
ENDBRANCH  11  12
ENDBRANCH   1  11
BRANCH   1  21
ATOM     21  C   UNL     1       5.421   3.899  18.365  0.00  0.00    +0.000 C 
BRANCH  21  22
ATOM     22  C   UNL     1       5.808   4.341  16.956  0.00  0.00    +0.000 C 
BRANCH  22  23
ATOM     23  C   UNL     1       4.858   4.188  15.775  0.00  0.00    +0.000 C 
BRANCH  23  24
ATOM     24  C   UNL     1       5.427   5.108  14.674  0.00  0.00    +0.000 C 
BRANCH  24  25
ATOM     25  C   UNL     1       6.659   4.530  14.011  0.00  0.00    +0.000 C 
BRANCH  25  26
ATOM     26  C   UNL     1       6.295   3.421  13.023  0.00  0.00    +0.000 C 
BRANCH  26  27
ATOM     27  C   UNL     1       4.908   3.707  12.458  0.00  0.00    +0.000 C 
BRANCH  27  28
ATOM     28  C   UNL     1       4.614   2.902  11.199  0.00  0.00    +0.000 C 
BRANCH  28  30
ATOM     29  C   UNL     1       3.113   4.219   9.669  0.00  0.00    +0.000 C 
ATOM     30  C   UNL     1       3.176   3.156  10.749  0.00  0.00    +0.000 C 
ENDBRANCH  28  30
ENDBRANCH  27  28
ENDBRANCH  26  27
ENDBRANCH  25  26
ENDBRANCH  24  25
ENDBRANCH  23  24
ENDBRANCH  22  23
ENDBRANCH  21  22
ENDBRANCH   1  21
TORSDOF 22
ENDMDL
MODEL 7
REMARK VINA RESULT:      -5.5      2.175      3.240
REMARK  Name = 
REMARK  24 active torsions:
REMARK  status: ('A' for Active; 'I' for Inactive)
REMARK    1  A    between atoms: C_1  and  C_2
REMARK    2  A    between atoms: C_2  and  C_3
REMARK    3  A    between atoms: C_3  and  C_4
REMARK    4  A    between atoms: C_4  and  C_5
REMARK    5  A    between atoms: C_5  and  C_6
REMARK    6  A    between atoms: C_6  and  C_7
REMARK    7  A    between atoms: C_7  and  C_8
REMARK    8  A    between atoms: C_8  and  C_9
REMARK    9  A    between atoms: C_9  and  C_10
REMARK   10  A    between atoms: C_10  and  N_11
REMARK   11  A    between atoms: N_11  and  C_12
REMARK   12  A    between atoms: C_12  and  C_13
REMARK   13  A    between atoms: C_13  and  C_14
REMARK   14  A    between atoms: C_14  and  C_15
REMARK   15  A    between atoms: C_15  and  C_16
REMARK   16  A    between atoms: C_16  and  C_17
REMARK   17  A    between atoms: C_17  and  C_18
REMARK   18  A    between atoms: C_18  and  C_19
REMARK   19  A    between atoms: C_19  and  C_20
REMARK   20  A    between atoms: C_20  and  C_21
REMARK   21  A    between atoms: C_22  and  CA_24
REMARK   22  A    between atoms: CA_24  and  N_25
REMARK   23  A    between atoms: CA_24  and  C_26
REMARK   24  A    between atoms: C_26  and  O_27
REMARK                            x       y       z     vdW  Elec       q    Type
REMARK                         _______ _______ _______ _____ _____    ______ ____
ROOT
ATOM      1  N   UNL     1       5.361   4.991  17.728  0.00  0.00    +0.000 N 
ATOM      2  C   UNL     1       6.742   5.293  17.653  0.00  0.00    +0.000 C 
ATOM      3  O   UNL     1       7.516   4.592  17.009  0.00  0.00    +0.000 OA
ENDROOT
BRANCH   2   4
ATOM      4  CA  UNL     1       7.300   6.507  18.457  0.00  0.00    +0.000 C 
BRANCH   4   5
ATOM      5  N   UNL     1       8.420   6.137  19.347  0.00  0.00    +0.000 NA
ATOM      6  H1  UNL     1       8.260   5.215  19.720  0.00  0.00    +0.000 HD
ATOM      7  H2  UNL     1       8.504   6.782  20.146  0.00  0.00    +0.000 HD
ENDBRANCH   4   5
BRANCH   4   8
ATOM      8  C   UNL     1       7.824   7.548  17.432  0.00  0.00    +0.000 C 
BRANCH   8   9
ATOM      9  O   UNL     1       8.234   8.769  18.043  0.00  0.00    +0.000 OA
ATOM     10  H   UNL     1       8.881   9.195  17.456  0.00  0.00    +0.000 HD
ENDBRANCH   8   9
ENDBRANCH   4   8
ENDBRANCH   2   4
BRANCH   1  11
ATOM     11  C   UNL     1       4.444   5.873  18.493  0.00  0.00    +0.000 C 
BRANCH  11  12
ATOM     12  C   UNL     1       3.533   6.844  17.750  0.00  0.00    +0.000 C 
BRANCH  12  13
ATOM     13  C   UNL     1       2.460   7.574  18.547  0.00  0.00    +0.000 C 
BRANCH  13  14
ATOM     14  C   UNL     1       2.269   8.916  17.833  0.00  0.00    +0.000 C 
BRANCH  14  15
ATOM     15  C   UNL     1       0.871   9.454  18.013  0.00  0.00    +0.000 C 
BRANCH  15  16
ATOM     16  C   UNL     1       0.901  10.801  18.724  0.00  0.00    +0.000 C 
BRANCH  16  17
ATOM     17  C   UNL     1       0.077  10.696  19.996  0.00  0.00    +0.000 C 
BRANCH  17  18
ATOM     18  C   UNL     1       0.923  10.263  21.183  0.00  0.00    +0.000 C 
BRANCH  18  19
ATOM     19  C   UNL     1       0.263   9.079  21.882  0.00  0.00    +0.000 C 
ATOM     20  C   UNL     1      -0.607   9.538  23.035  0.00  0.00    +0.000 C 
ENDBRANCH  18  19
ENDBRANCH  17  18
ENDBRANCH  16  17
ENDBRANCH  15  16
ENDBRANCH  14  15
ENDBRANCH  13  14
ENDBRANCH  12  13
ENDBRANCH  11  12
ENDBRANCH   1  11
BRANCH   1  21
ATOM     21  C   UNL     1       4.953   3.836  16.923  0.00  0.00    +0.000 C 
BRANCH  21  22
ATOM     22  C   UNL     1       4.433   2.583  17.623  0.00  0.00    +0.000 C 
BRANCH  22  23
ATOM     23  C   UNL     1       2.952   2.230  17.647  0.00  0.00    +0.000 C 
BRANCH  23  24
ATOM     24  C   UNL     1       2.240   3.414  16.958  0.00  0.00    +0.000 C 
BRANCH  24  25
ATOM     25  C   UNL     1       1.237   4.098  17.861  0.00  0.00    +0.000 C 
BRANCH  25  26
ATOM     26  C   UNL     1       1.178   3.431  19.236  0.00  0.00    +0.000 C 
BRANCH  26  27
ATOM     27  C   UNL     1       1.379   4.498  20.306  0.00  0.00    +0.000 C 
BRANCH  27  28
ATOM     28  C   UNL     1       2.158   3.981  21.507  0.00  0.00    +0.000 C 
BRANCH  28  30
ATOM     29  C   UNL     1       3.845   2.161  21.098  0.00  0.00    +0.000 C 
ATOM     30  C   UNL     1       2.386   2.477  21.365  0.00  0.00    +0.000 C 
ENDBRANCH  28  30
ENDBRANCH  27  28
ENDBRANCH  26  27
ENDBRANCH  25  26
ENDBRANCH  24  25
ENDBRANCH  23  24
ENDBRANCH  22  23
ENDBRANCH  21  22
ENDBRANCH   1  21
TORSDOF 22
ENDMDL
MODEL 8
REMARK VINA RESULT:      -5.5      2.390      6.725
REMARK  Name = 
REMARK  24 active torsions:
REMARK  status: ('A' for Active; 'I' for Inactive)
REMARK    1  A    between atoms: C_1  and  C_2
REMARK    2  A    between atoms: C_2  and  C_3
REMARK    3  A    between atoms: C_3  and  C_4
REMARK    4  A    between atoms: C_4  and  C_5
REMARK    5  A    between atoms: C_5  and  C_6
REMARK    6  A    between atoms: C_6  and  C_7
REMARK    7  A    between atoms: C_7  and  C_8
REMARK    8  A    between atoms: C_8  and  C_9
REMARK    9  A    between atoms: C_9  and  C_10
REMARK   10  A    between atoms: C_10  and  N_11
REMARK   11  A    between atoms: N_11  and  C_12
REMARK   12  A    between atoms: C_12  and  C_13
REMARK   13  A    between atoms: C_13  and  C_14
REMARK   14  A    between atoms: C_14  and  C_15
REMARK   15  A    between atoms: C_15  and  C_16
REMARK   16  A    between atoms: C_16  and  C_17
REMARK   17  A    between atoms: C_17  and  C_18
REMARK   18  A    between atoms: C_18  and  C_19
REMARK   19  A    between atoms: C_19  and  C_20
REMARK   20  A    between atoms: C_20  and  C_21
REMARK   21  A    between atoms: C_22  and  CA_24
REMARK   22  A    between atoms: CA_24  and  N_25
REMARK   23  A    between atoms: CA_24  and  C_26
REMARK   24  A    between atoms: C_26  and  O_27
REMARK                            x       y       z     vdW  Elec       q    Type
REMARK                         _______ _______ _______ _____ _____    ______ ____
ROOT
ATOM      1  N   UNL     1       4.568   6.048  17.799  0.00  0.00    +0.000 N 
ATOM      2  C   UNL     1       5.481   6.367  16.766  0.00  0.00    +0.000 C 
ATOM      3  O   UNL     1       5.125   6.986  15.768  0.00  0.00    +0.000 OA
ENDROOT
BRANCH   2   4
ATOM      4  CA  UNL     1       6.953   5.865  16.870  0.00  0.00    +0.000 C 
BRANCH   4   5
ATOM      5  N   UNL     1       7.576   5.643  15.548  0.00  0.00    +0.000 NA
ATOM      6  H1  UNL     1       6.966   5.995  14.828  0.00  0.00    +0.000 HD
ATOM      7  H2  UNL     1       7.730   4.642  15.360  0.00  0.00    +0.000 HD
ENDBRANCH   4   5
BRANCH   4   8
ATOM      8  C   UNL     1       7.770   6.958  17.610  0.00  0.00    +0.000 C 
BRANCH   8   9
ATOM      9  O   UNL     1       7.419   8.279  17.205  0.00  0.00    +0.000 OA
ATOM     10  H   UNL     1       7.000   8.723  17.962  0.00  0.00    +0.000 HD
ENDBRANCH   8   9
ENDBRANCH   4   8
ENDBRANCH   2   4
BRANCH   1  11
ATOM     11  C   UNL     1       5.031   5.321  19.007  0.00  0.00    +0.000 C 
BRANCH  11  12
ATOM     12  C   UNL     1       4.769   3.825  19.138  0.00  0.00    +0.000 C 
BRANCH  12  13
ATOM     13  C   UNL     1       4.551   3.020  17.863  0.00  0.00    +0.000 C 
BRANCH  13  14
ATOM     14  C   UNL     1       3.377   2.085  18.172  0.00  0.00    +0.000 C 
BRANCH  14  15
ATOM     15  C   UNL     1       2.052   2.710  17.812  0.00  0.00    +0.000 C 
BRANCH  15  16
ATOM     16  C   UNL     1       0.967   2.268  18.786  0.00  0.00    +0.000 C 
BRANCH  16  17
ATOM     17  C   UNL     1       1.315   2.795  20.168  0.00  0.00    +0.000 C 
BRANCH  17  18
ATOM     18  C   UNL     1       0.823   4.219  20.370  0.00  0.00    +0.000 C 
BRANCH  18  19
ATOM     19  C   UNL     1       1.959   5.086  20.904  0.00  0.00    +0.000 C 
ATOM     20  C   UNL     1       1.582   6.554  20.889  0.00  0.00    +0.000 C 
ENDBRANCH  18  19
ENDBRANCH  17  18
ENDBRANCH  16  17
ENDBRANCH  15  16
ENDBRANCH  14  15
ENDBRANCH  13  14
ENDBRANCH  12  13
ENDBRANCH  11  12
ENDBRANCH   1  11
BRANCH   1  21
ATOM     21  C   UNL     1       3.218   6.582  17.596  0.00  0.00    +0.000 C 
BRANCH  21  22
ATOM     22  C   UNL     1       2.912   8.020  18.008  0.00  0.00    +0.000 C 
BRANCH  22  23
ATOM     23  C   UNL     1       1.596   8.697  17.649  0.00  0.00    +0.000 C 
BRANCH  23  24
ATOM     24  C   UNL     1       1.283   9.633  18.836  0.00  0.00    +0.000 C 
BRANCH  24  25
ATOM     25  C   UNL     1       0.066  10.499  18.591  0.00  0.00    +0.000 C 
BRANCH  25  26
ATOM     26  C   UNL     1       0.014  11.679  19.562  0.00  0.00    +0.000 C 
BRANCH  26  27
ATOM     27  C   UNL     1       1.406  12.294  19.659  0.00  0.00    +0.000 C 
BRANCH  27  28
ATOM     28  C   UNL     1       1.577  13.497  18.741  0.00  0.00    +0.000 C 
BRANCH  28  30
ATOM     29  C   UNL     1       3.443  14.967  17.916  0.00  0.00    +0.000 C 
ATOM     30  C   UNL     1       3.011  13.545  18.217  0.00  0.00    +0.000 C 
ENDBRANCH  28  30
ENDBRANCH  27  28
ENDBRANCH  26  27
ENDBRANCH  25  26
ENDBRANCH  24  25
ENDBRANCH  23  24
ENDBRANCH  22  23
ENDBRANCH  21  22
ENDBRANCH   1  21
TORSDOF 22
ENDMDL
MODEL 9
REMARK VINA RESULT:      -5.5      2.742      6.158
REMARK  Name = 
REMARK  24 active torsions:
REMARK  status: ('A' for Active; 'I' for Inactive)
REMARK    1  A    between atoms: C_1  and  C_2
REMARK    2  A    between atoms: C_2  and  C_3
REMARK    3  A    between atoms: C_3  and  C_4
REMARK    4  A    between atoms: C_4  and  C_5
REMARK    5  A    between atoms: C_5  and  C_6
REMARK    6  A    between atoms: C_6  and  C_7
REMARK    7  A    between atoms: C_7  and  C_8
REMARK    8  A    between atoms: C_8  and  C_9
REMARK    9  A    between atoms: C_9  and  C_10
REMARK   10  A    between atoms: C_10  and  N_11
REMARK   11  A    between atoms: N_11  and  C_12
REMARK   12  A    between atoms: C_12  and  C_13
REMARK   13  A    between atoms: C_13  and  C_14
REMARK   14  A    between atoms: C_14  and  C_15
REMARK   15  A    between atoms: C_15  and  C_16
REMARK   16  A    between atoms: C_16  and  C_17
REMARK   17  A    between atoms: C_17  and  C_18
REMARK   18  A    between atoms: C_18  and  C_19
REMARK   19  A    between atoms: C_19  and  C_20
REMARK   20  A    between atoms: C_20  and  C_21
REMARK   21  A    between atoms: C_22  and  CA_24
REMARK   22  A    between atoms: CA_24  and  N_25
REMARK   23  A    between atoms: CA_24  and  C_26
REMARK   24  A    between atoms: C_26  and  O_27
REMARK                            x       y       z     vdW  Elec       q    Type
REMARK                         _______ _______ _______ _____ _____    ______ ____
ROOT
ATOM      1  N   UNL     1       3.673   4.083  18.733  0.00  0.00    +0.000 N 
ATOM      2  C   UNL     1       2.658   3.197  19.166  0.00  0.00    +0.000 C 
ATOM      3  O   UNL     1       2.376   2.186  18.529  0.00  0.00    +0.000 OA
ENDROOT
BRANCH   2   4
ATOM      4  CA  UNL     1       1.839   3.546  20.446  0.00  0.00    +0.000 C 
BRANCH   4   5
ATOM      5  N   UNL     1       0.388   3.320  20.275  0.00  0.00    +0.000 NA
ATOM      6  H1  UNL     1      -0.075   4.204  20.144  0.00  0.00    +0.000 HD
ATOM      7  H2  UNL     1      -0.030   2.872  21.103  0.00  0.00    +0.000 HD
ENDBRANCH   4   5
BRANCH   4   8
ATOM      8  C   UNL     1       2.338   2.624  21.589  0.00  0.00    +0.000 C 
BRANCH   8   9
ATOM      9  O   UNL     1       3.674   2.168  21.388  0.00  0.00    +0.000 OA
ATOM     10  H   UNL     1       4.240   2.599  22.052  0.00  0.00    +0.000 HD
ENDBRANCH   8   9
ENDBRANCH   4   8
ENDBRANCH   2   4
BRANCH   1  11
ATOM     11  C   UNL     1       4.010   5.283  19.537  0.00  0.00    +0.000 C 
BRANCH  11  12
ATOM     12  C   UNL     1       3.235   6.579  19.324  0.00  0.00    +0.000 C 
BRANCH  12  13
ATOM     13  C   UNL     1       2.644   6.845  17.946  0.00  0.00    +0.000 C 
BRANCH  13  14
ATOM     14  C   UNL     1       2.607   8.371  17.809  0.00  0.00    +0.000 C 
BRANCH  14  15
ATOM     15  C   UNL     1       1.196   8.903  17.842  0.00  0.00    +0.000 C 
BRANCH  15  16
ATOM     16  C   UNL     1       1.029   9.912  18.972  0.00  0.00    +0.000 C 
BRANCH  16  17
ATOM     17  C   UNL     1      -0.149  10.814  18.645  0.00  0.00    +0.000 C 
BRANCH  17  18
ATOM     18  C   UNL     1      -1.179  10.106  17.779  0.00  0.00    +0.000 C 
BRANCH  18  19
ATOM     19  C   UNL     1      -2.482  10.901  17.774  0.00  0.00    +0.000 C 
ATOM     20  C   UNL     1      -2.583  11.794  18.994  0.00  0.00    +0.000 C 
ENDBRANCH  18  19
ENDBRANCH  17  18
ENDBRANCH  16  17
ENDBRANCH  15  16
ENDBRANCH  14  15
ENDBRANCH  13  14
ENDBRANCH  12  13
ENDBRANCH  11  12
ENDBRANCH   1  11
BRANCH   1  21
ATOM     21  C   UNL     1       4.381   3.644  17.526  0.00  0.00    +0.000 C 
BRANCH  21  22
ATOM     22  C   UNL     1       5.694   4.321  17.142  0.00  0.00    +0.000 C 
BRANCH  22  23
ATOM     23  C   UNL     1       5.732   5.561  16.258  0.00  0.00    +0.000 C 
BRANCH  23  24
ATOM     24  C   UNL     1       6.674   5.199  15.090  0.00  0.00    +0.000 C 
BRANCH  24  25
ATOM     25  C   UNL     1       6.379   3.836  14.504  0.00  0.00    +0.000 C 
BRANCH  25  26
ATOM     26  C   UNL     1       5.319   3.918  13.404  0.00  0.00    +0.000 C 
BRANCH  26  27
ATOM     27  C   UNL     1       5.923   3.400  12.104  0.00  0.00    +0.000 C 
BRANCH  27  28
ATOM     28  C   UNL     1       5.220   2.152  11.590  0.00  0.00    +0.000 C 
BRANCH  28  30
ATOM     29  C   UNL     1       7.612   1.803  10.896  0.00  0.00    +0.000 C 
ATOM     30  C   UNL     1       6.254   1.152  11.076  0.00  0.00    +0.000 C 
ENDBRANCH  28  30
ENDBRANCH  27  28
ENDBRANCH  26  27
ENDBRANCH  25  26
ENDBRANCH  24  25
ENDBRANCH  23  24
ENDBRANCH  22  23
ENDBRANCH  21  22
ENDBRANCH   1  21
TORSDOF 22
ENDMDL
