MODEL 1
REMARK VINA RESULT:      -7.6      0.000      0.000
REMARK  Name = 
REMARK  3 active torsions:
REMARK  status: ('A' for Active; 'I' for Inactive)
REMARK    1  A    between atoms: C_1  and  N_2
REMARK    2  A    between atoms: C_4  and  C_5
REMARK    3  A    between atoms: N_7  and  C_8
REMARK                            x       y       z     vdW  Elec       q    Type
REMARK                         _______ _______ _______ _____ _____    ______ ____
ROOT
ATOM      1  C   UNL     1       0.165  12.328  18.140  0.00  0.00    +0.000 C 
ATOM      2  N   UNL     1       0.459  11.096  18.834  0.00  0.00    +0.000 N 
ATOM      3  N   UNL     1       1.320  10.245  18.233  0.00  0.00    +0.000 NA
ATOM      4  C   UNL     1       1.436   9.211  19.085  0.00  0.00    +0.000 A 
ATOM      5  C   UNL     1       0.631   9.431  20.243  0.00  0.00    +0.000 A 
ATOM      6  C   UNL     1      -0.002  10.656  20.051  0.00  0.00    +0.000 A 
ATOM      7  C   UNL     1      -0.915  11.292  21.022  0.00  0.00    +0.000 A 
ATOM      8  C   UNL     1      -1.807  12.323  20.691  0.00  0.00    +0.000 A 
ATOM      9  C   UNL     1      -2.660  12.888  21.651  0.00  0.00    +0.000 A 
ATOM     10  C   UNL     1      -2.650  12.421  22.957  0.00  0.00    +0.000 A 
ATOM     11  C   UNL     1      -1.782  11.391  23.313  0.00  0.00    +0.000 A 
ATOM     12  C   UNL     1      -0.922  10.819  22.359  0.00  0.00    +0.000 A 
ATOM     13  S   UNL     1       0.182   9.527  22.954  0.00  0.00    +0.000 S 
ATOM     14  C   UNL     1       0.432   8.554  21.424  0.00  0.00    +0.000 C 
ENDROOT
BRANCH   4  15
ATOM     15  C   UNL     1       2.286   8.044  18.759  0.00  0.00    +0.000 C 
ATOM     16  O   UNL     1       3.174   8.081  17.916  0.00  0.00    +0.000 OA
ATOM     17  N   UNL     1       1.999   6.921  19.519  0.00  0.00    +0.000 N 
ATOM     18  H   UNL     1       1.222   7.026  20.166  0.00  0.00    +0.000 HD
BRANCH  17  19
ATOM     19  C   UNL     1       2.784   5.694  19.469  0.00  0.00    +0.000 C 
ATOM     20  C   UNL     1       2.440   4.760  20.641  0.00  0.00    +0.000 C 
ATOM     21  C   UNL     1       1.159   3.953  20.433  0.00  0.00    +0.000 C 
ATOM     22  C   UNL     1       1.186   3.197  19.113  0.00  0.00    +0.000 C 
ATOM     23  C   UNL     1       1.402   4.151  17.944  0.00  0.00    +0.000 C 
ATOM     24  C   UNL     1       2.675   4.980  18.113  0.00  0.00    +0.000 C 
ENDBRANCH  17  19
ENDBRANCH   4  15
TORSDOF 2
ENDMDL
MODEL 2
REMARK VINA RESULT:      -7.5      1.867      2.530
REMARK  Name = 
REMARK  3 active torsions:
REMARK  status: ('A' for Active; 'I' for Inactive)
REMARK    1  A    between atoms: C_1  and  N_2
REMARK    2  A    between atoms: C_4  and  C_5
REMARK    3  A    between atoms: N_7  and  C_8
REMARK                            x       y       z     vdW  Elec       q    Type
REMARK                         _______ _______ _______ _____ _____    ______ ____
ROOT
ATOM      1  C   UNL     1       0.476   9.258  23.159  0.00  0.00    +0.000 C 
ATOM      2  N   UNL     1       0.661   9.186  21.728  0.00  0.00    +0.000 N 
ATOM      3  N   UNL     1       1.449   8.191  21.263  0.00  0.00    +0.000 NA
ATOM      4  C   UNL     1       1.433   8.334  19.925  0.00  0.00    +0.000 A 
ATOM      5  C   UNL     1       0.611   9.441  19.556  0.00  0.00    +0.000 A 
ATOM      6  C   UNL     1       0.130   9.984  20.744  0.00  0.00    +0.000 A 
ATOM      7  C   UNL     1      -0.787  11.138  20.831  0.00  0.00    +0.000 A 
ATOM      8  C   UNL     1      -0.984  11.889  21.999  0.00  0.00    +0.000 A 
ATOM      9  C   UNL     1      -1.863  12.982  22.027  0.00  0.00    +0.000 A 
ATOM     10  C   UNL     1      -2.549  13.356  20.880  0.00  0.00    +0.000 A 
ATOM     11  C   UNL     1      -2.366  12.635  19.702  0.00  0.00    +0.000 A 
ATOM     12  C   UNL     1      -1.489  11.537  19.665  0.00  0.00    +0.000 A 
ATOM     13  S   UNL     1      -1.373  10.662  18.096  0.00  0.00    +0.000 S 
ATOM     14  C   UNL     1       0.322   9.981  18.204  0.00  0.00    +0.000 C 
ENDROOT
BRANCH   4  15
ATOM     15  C   UNL     1       2.216   7.432  19.051  0.00  0.00    +0.000 C 
ATOM     16  O   UNL     1       2.987   7.840  18.191  0.00  0.00    +0.000 OA
ATOM     17  N   UNL     1       2.014   6.087  19.322  0.00  0.00    +0.000 N 
ATOM     18  H   UNL     1       1.329   5.892  20.049  0.00  0.00    +0.000 HD
BRANCH  17  19
ATOM     19  C   UNL     1       2.767   5.016  18.683  0.00  0.00    +0.000 C 
ATOM     20  C   UNL     1       3.567   4.201  19.712  0.00  0.00    +0.000 C 
ATOM     21  C   UNL     1       2.732   3.167  20.467  0.00  0.00    +0.000 C 
ATOM     22  C   UNL     1       1.973   2.259  19.510  0.00  0.00    +0.000 C 
ATOM     23  C   UNL     1       1.086   3.072  18.576  0.00  0.00    +0.000 C 
ATOM     24  C   UNL     1       1.883   4.120  17.801  0.00  0.00    +0.000 C 
ENDBRANCH  17  19
ENDBRANCH   4  15
TORSDOF 2
ENDMDL
MODEL 3
REMARK VINA RESULT:      -7.4      1.869      2.757
REMARK  Name = 
REMARK  3 active torsions:
REMARK  status: ('A' for Active; 'I' for Inactive)
REMARK    1  A    between atoms: C_1  and  N_2
REMARK    2  A    between atoms: C_4  and  C_5
REMARK    3  A    between atoms: N_7  and  C_8
REMARK                            x       y       z     vdW  Elec       q    Type
REMARK                         _______ _______ _______ _____ _____    ______ ____
ROOT
ATOM      1  C   UNL     1       0.876   9.229  22.959  0.00  0.00    +0.000 C 
ATOM      2  N   UNL     1       0.843   9.394  21.524  0.00  0.00    +0.000 N 
ATOM      3  N   UNL     1       1.597   8.544  20.793  0.00  0.00    +0.000 NA
ATOM      4  C   UNL     1       1.369   8.893  19.514  0.00  0.00    +0.000 A 
ATOM      5  C   UNL     1       0.447   9.980  19.454  0.00  0.00    +0.000 A 
ATOM      6  C   UNL     1       0.129  10.295  20.772  0.00  0.00    +0.000 A 
ATOM      7  C   UNL     1      -0.819  11.351  21.179  0.00  0.00    +0.000 A 
ATOM      8  C   UNL     1      -0.870  11.895  22.472  0.00  0.00    +0.000 A 
ATOM      9  C   UNL     1      -1.787  12.904  22.805  0.00  0.00    +0.000 A 
ATOM     10  C   UNL     1      -2.659  13.401  21.847  0.00  0.00    +0.000 A 
ATOM     11  C   UNL     1      -2.624  12.888  20.552  0.00  0.00    +0.000 A 
ATOM     12  C   UNL     1      -1.711  11.876  20.209  0.00  0.00    +0.000 A 
ATOM     13  S   UNL     1      -1.795  11.266  18.516  0.00  0.00    +0.000 S 
ATOM     14  C   UNL     1      -0.072  10.702  18.266  0.00  0.00    +0.000 C 
ENDROOT
BRANCH   4  15
ATOM     15  C   UNL     1       2.051   8.197  18.399  0.00  0.00    +0.000 C 
ATOM     16  O   UNL     1       2.366   8.758  17.357  0.00  0.00    +0.000 OA
ATOM     17  N   UNL     1       2.323   6.863  18.664  0.00  0.00    +0.000 N 
ATOM     18  H   UNL     1       1.984   6.524  19.561  0.00  0.00    +0.000 HD
BRANCH  17  19
ATOM     19  C   UNL     1       3.098   6.008  17.774  0.00  0.00    +0.000 C 
ATOM     20  C   UNL     1       4.601   6.094  18.084  0.00  0.00    +0.000 C 
ATOM     21  C   UNL     1       5.035   5.247  19.280  0.00  0.00    +0.000 C 
ATOM     22  C   UNL     1       4.581   3.802  19.133  0.00  0.00    +0.000 C 
ATOM     23  C   UNL     1       3.071   3.722  18.952  0.00  0.00    +0.000 C 
ATOM     24  C   UNL     1       2.593   4.557  17.764  0.00  0.00    +0.000 C 
ENDBRANCH  17  19
ENDBRANCH   4  15
TORSDOF 2
ENDMDL
MODEL 4
REMARK VINA RESULT:      -7.3      2.383      7.671
REMARK  Name = 
REMARK  3 active torsions:
REMARK  status: ('A' for Active; 'I' for Inactive)
REMARK    1  A    between atoms: C_1  and  N_2
REMARK    2  A    between atoms: C_4  and  C_5
REMARK    3  A    between atoms: N_7  and  C_8
REMARK                            x       y       z     vdW  Elec       q    Type
REMARK                         _______ _______ _______ _____ _____    ______ ____
ROOT
ATOM      1  C   UNL     1       4.150   6.892  16.892  0.00  0.00    +0.000 C 
ATOM      2  N   UNL     1       3.318   6.820  18.070  0.00  0.00    +0.000 N 
ATOM      3  N   UNL     1       2.843   7.989  18.556  0.00  0.00    +0.000 NA
ATOM      4  C   UNL     1       2.092   7.642  19.617  0.00  0.00    +0.000 A 
ATOM      5  C   UNL     1       2.099   6.225  19.787  0.00  0.00    +0.000 A 
ATOM      6  C   UNL     1       2.910   5.715  18.777  0.00  0.00    +0.000 A 
ATOM      7  C   UNL     1       3.178   4.280  18.558  0.00  0.00    +0.000 A 
ATOM      8  C   UNL     1       4.247   3.796  17.788  0.00  0.00    +0.000 A 
ATOM      9  C   UNL     1       4.462   2.420  17.618  0.00  0.00    +0.000 A 
ATOM     10  C   UNL     1       3.622   1.500  18.229  0.00  0.00    +0.000 A 
ATOM     11  C   UNL     1       2.559   1.951  19.008  0.00  0.00    +0.000 A 
ATOM     12  C   UNL     1       2.334   3.327  19.184  0.00  0.00    +0.000 A 
ATOM     13  S   UNL     1       0.902   3.781  20.177  0.00  0.00    +0.000 S 
ATOM     14  C   UNL     1       1.435   5.405  20.831  0.00  0.00    +0.000 C 
ENDROOT
BRANCH   4  15
ATOM     15  C   UNL     1       1.417   8.668  20.443  0.00  0.00    +0.000 C 
ATOM     16  O   UNL     1       1.477   8.685  21.666  0.00  0.00    +0.000 OA
ATOM     17  N   UNL     1       0.739   9.621  19.696  0.00  0.00    +0.000 N 
ATOM     18  H   UNL     1       0.755   9.471  18.690  0.00  0.00    +0.000 HD
BRANCH  17  19
ATOM     19  C   UNL     1       0.108  10.798  20.277  0.00  0.00    +0.000 C 
ATOM     20  C   UNL     1       1.020  12.032  20.175  0.00  0.00    +0.000 C 
ATOM     21  C   UNL     1       1.006  12.699  18.800  0.00  0.00    +0.000 C 
ATOM     22  C   UNL     1      -0.413  13.021  18.352  0.00  0.00    +0.000 C 
ATOM     23  C   UNL     1      -1.276  11.765  18.337  0.00  0.00    +0.000 C 
ATOM     24  C   UNL     1      -1.289  11.065  19.695  0.00  0.00    +0.000 C 
ENDBRANCH  17  19
ENDBRANCH   4  15
TORSDOF 2
ENDMDL
MODEL 5
REMARK VINA RESULT:      -7.2      3.662      8.166
REMARK  Name = 
REMARK  3 active torsions:
REMARK  status: ('A' for Active; 'I' for Inactive)
REMARK    1  A    between atoms: C_1  and  N_2
REMARK    2  A    between atoms: C_4  and  C_5
REMARK    3  A    between atoms: N_7  and  C_8
REMARK                            x       y       z     vdW  Elec       q    Type
REMARK                         _______ _______ _______ _____ _____    ______ ____
ROOT
ATOM      1  C   UNL     1       0.106   9.361  23.535  0.00  0.00    +0.000 C 
ATOM      2  N   UNL     1      -0.537  10.305  22.650  0.00  0.00    +0.000 N 
ATOM      3  N   UNL     1      -1.412  11.169  23.210  0.00  0.00    +0.000 NA
ATOM      4  C   UNL     1      -1.838  11.938  22.191  0.00  0.00    +0.000 A 
ATOM      5  C   UNL     1      -1.206  11.542  20.975  0.00  0.00    +0.000 A 
ATOM      6  C   UNL     1      -0.374  10.473  21.297  0.00  0.00    +0.000 A 
ATOM      7  C   UNL     1       0.497   9.766  20.337  0.00  0.00    +0.000 A 
ATOM      8  C   UNL     1       1.050   8.499  20.575  0.00  0.00    +0.000 A 
ATOM      9  C   UNL     1       1.867   7.867  19.625  0.00  0.00    +0.000 A 
ATOM     10  C   UNL     1       2.132   8.483  18.410  0.00  0.00    +0.000 A 
ATOM     11  C   UNL     1       1.588   9.737  18.141  0.00  0.00    +0.000 A 
ATOM     12  C   UNL     1       0.771  10.380  19.087  0.00  0.00    +0.000 A 
ATOM     13  S   UNL     1       0.165  12.015  18.638  0.00  0.00    +0.000 S 
ATOM     14  C   UNL     1      -1.387  12.087  19.606  0.00  0.00    +0.000 C 
ENDROOT
BRANCH   4  15
ATOM     15  C   UNL     1      -2.845  13.001  22.406  0.00  0.00    +0.000 C 
ATOM     16  O   UNL     1      -2.545  14.165  22.643  0.00  0.00    +0.000 OA
ATOM     17  N   UNL     1      -4.153  12.558  22.282  0.00  0.00    +0.000 N 
ATOM     18  H   UNL     1      -4.255  11.561  22.105  0.00  0.00    +0.000 HD
BRANCH  17  19
ATOM     19  C   UNL     1      -5.310  13.443  22.323  0.00  0.00    +0.000 C 
ATOM     20  C   UNL     1      -6.305  13.117  21.198  0.00  0.00    +0.000 C 
ATOM     21  C   UNL     1      -7.207  11.921  21.497  0.00  0.00    +0.000 C 
ATOM     22  C   UNL     1      -7.916  12.078  22.835  0.00  0.00    +0.000 C 
ATOM     23  C   UNL     1      -6.910  12.275  23.963  0.00  0.00    +0.000 C 
ATOM     24  C   UNL     1      -5.986  13.464  23.703  0.00  0.00    +0.000 C 
ENDBRANCH  17  19
ENDBRANCH   4  15
TORSDOF 2
ENDMDL
MODEL 6
REMARK VINA RESULT:      -7.1      1.753      2.372
REMARK  Name = 
REMARK  3 active torsions:
REMARK  status: ('A' for Active; 'I' for Inactive)
REMARK    1  A    between atoms: C_1  and  N_2
REMARK    2  A    between atoms: C_4  and  C_5
REMARK    3  A    between atoms: N_7  and  C_8
REMARK                            x       y       z     vdW  Elec       q    Type
REMARK                         _______ _______ _______ _____ _____    ______ ____
ROOT
ATOM      1  C   UNL     1       1.801  10.692  17.974  0.00  0.00    +0.000 C 
ATOM      2  N   UNL     1       1.510   9.703  18.985  0.00  0.00    +0.000 N 
ATOM      3  N   UNL     1       2.146   8.514  18.879  0.00  0.00    +0.000 NA
ATOM      4  C   UNL     1       1.724   7.801  19.938  0.00  0.00    +0.000 A 
ATOM      5  C   UNL     1       0.811   8.569  20.721  0.00  0.00    +0.000 A 
ATOM      6  C   UNL     1       0.681   9.796  20.076  0.00  0.00    +0.000 A 
ATOM      7  C   UNL     1      -0.153  10.915  20.559  0.00  0.00    +0.000 A 
ATOM      8  C   UNL     1      -0.557  11.989  19.751  0.00  0.00    +0.000 A 
ATOM      9  C   UNL     1      -1.357  13.024  20.257  0.00  0.00    +0.000 A 
ATOM     10  C   UNL     1      -1.783  12.998  21.578  0.00  0.00    +0.000 A 
ATOM     11  C   UNL     1      -1.406  11.938  22.401  0.00  0.00    +0.000 A 
ATOM     12  C   UNL     1      -0.604  10.897  21.904  0.00  0.00    +0.000 A 
ATOM     13  S   UNL     1      -0.150   9.610  23.078  0.00  0.00    +0.000 S 
ATOM     14  C   UNL     1       0.083   8.183  21.955  0.00  0.00    +0.000 C 
ENDROOT
BRANCH   4  15
ATOM     15  C   UNL     1       2.184   6.411  20.155  0.00  0.00    +0.000 C 
ATOM     16  O   UNL     1       1.538   5.585  20.788  0.00  0.00    +0.000 OA
ATOM     17  N   UNL     1       3.398   6.129  19.546  0.00  0.00    +0.000 N 
ATOM     18  H   UNL     1       3.835   6.916  19.071  0.00  0.00    +0.000 HD
BRANCH  17  19
ATOM     19  C   UNL     1       3.990   4.798  19.510  0.00  0.00    +0.000 C 
ATOM     20  C   UNL     1       3.218   3.866  18.563  0.00  0.00    +0.000 C 
ATOM     21  C   UNL     1       3.561   4.061  17.087  0.00  0.00    +0.000 C 
ATOM     22  C   UNL     1       5.062   3.974  16.848  0.00  0.00    +0.000 C 
ATOM     23  C   UNL     1       5.809   4.991  17.701  0.00  0.00    +0.000 C 
ATOM     24  C   UNL     1       5.493   4.831  19.188  0.00  0.00    +0.000 C 
ENDBRANCH  17  19
ENDBRANCH   4  15
TORSDOF 2
ENDMDL
MODEL 7
REMARK VINA RESULT:      -7.0      1.880      2.619
REMARK  Name = 
REMARK  3 active torsions:
REMARK  status: ('A' for Active; 'I' for Inactive)
REMARK    1  A    between atoms: C_1  and  N_2
REMARK    2  A    between atoms: C_4  and  C_5
REMARK    3  A    between atoms: N_7  and  C_8
REMARK                            x       y       z     vdW  Elec       q    Type
REMARK                         _______ _______ _______ _____ _____    ______ ____
ROOT
ATOM      1  C   UNL     1      -0.386   9.428  23.183  0.00  0.00    +0.000 C 
ATOM      2  N   UNL     1       0.130   9.696  21.861  0.00  0.00    +0.000 N 
ATOM      3  N   UNL     1       0.773   8.684  21.238  0.00  0.00    +0.000 NA
ATOM      4  C   UNL     1       1.122   9.182  20.038  0.00  0.00    +0.000 A 
ATOM      5  C   UNL     1       0.678  10.533  19.915  0.00  0.00    +0.000 A 
ATOM      6  C   UNL     1       0.047  10.847  21.115  0.00  0.00    +0.000 A 
ATOM      7  C   UNL     1      -0.591  12.144  21.415  0.00  0.00    +0.000 A 
ATOM      8  C   UNL     1      -0.904  12.575  22.713  0.00  0.00    +0.000 A 
ATOM      9  C   UNL     1      -1.504  13.823  22.945  0.00  0.00    +0.000 A 
ATOM     10  C   UNL     1      -1.785  14.671  21.884  0.00  0.00    +0.000 A 
ATOM     11  C   UNL     1      -1.475  14.275  20.584  0.00  0.00    +0.000 A 
ATOM     12  C   UNL     1      -0.877  13.026  20.342  0.00  0.00    +0.000 A 
ATOM     13  S   UNL     1      -0.566  12.613  18.617  0.00  0.00    +0.000 S 
ATOM     14  C   UNL     1       0.859  11.477  18.785  0.00  0.00    +0.000 C 
ENDROOT
BRANCH   4  15
ATOM     15  C   UNL     1       1.883   8.367  19.065  0.00  0.00    +0.000 C 
ATOM     16  O   UNL     1       2.248   8.796  17.977  0.00  0.00    +0.000 OA
ATOM     17  N   UNL     1       2.165   7.086  19.517  0.00  0.00    +0.000 N 
ATOM     18  H   UNL     1       1.781   6.858  20.431  0.00  0.00    +0.000 HD
BRANCH  17  19
ATOM     19  C   UNL     1       3.009   6.146  18.792  0.00  0.00    +0.000 C 
ATOM     20  C   UNL     1       3.813   5.257  19.754  0.00  0.00    +0.000 C 
ATOM     21  C   UNL     1       3.012   4.093  20.337  0.00  0.00    +0.000 C 
ATOM     22  C   UNL     1       2.352   3.268  19.241  0.00  0.00    +0.000 C 
ATOM     23  C   UNL     1       1.457   4.139  18.368  0.00  0.00    +0.000 C 
ATOM     24  C   UNL     1       2.221   5.318  17.765  0.00  0.00    +0.000 C 
ENDBRANCH  17  19
ENDBRANCH   4  15
TORSDOF 2
ENDMDL
MODEL 8
REMARK VINA RESULT:      -6.8      3.604      8.058
REMARK  Name = 
REMARK  3 active torsions:
REMARK  status: ('A' for Active; 'I' for Inactive)
REMARK    1  A    between atoms: C_1  and  N_2
REMARK    2  A    between atoms: C_4  and  C_5
REMARK    3  A    between atoms: N_7  and  C_8
REMARK                            x       y       z     vdW  Elec       q    Type
REMARK                         _______ _______ _______ _____ _____    ______ ____
ROOT
ATOM      1  C   UNL     1       0.349   9.350  23.505  0.00  0.00    +0.000 C 
ATOM      2  N   UNL     1      -0.386  10.271  22.671  0.00  0.00    +0.000 N 
ATOM      3  N   UNL     1      -1.267  11.089  23.291  0.00  0.00    +0.000 NA
ATOM      4  C   UNL     1      -1.786  11.846  22.308  0.00  0.00    +0.000 A 
ATOM      5  C   UNL     1      -1.209  11.492  21.052  0.00  0.00    +0.000 A 
ATOM      6  C   UNL     1      -0.311  10.460  21.312  0.00  0.00    +0.000 A 
ATOM      7  C   UNL     1       0.533   9.804  20.295  0.00  0.00    +0.000 A 
ATOM      8  C   UNL     1       1.157   8.561  20.485  0.00  0.00    +0.000 A 
ATOM      9  C   UNL     1       1.944   7.977  19.481  0.00  0.00    +0.000 A 
ATOM     10  C   UNL     1       2.110   8.616  18.261  0.00  0.00    +0.000 A 
ATOM     11  C   UNL     1       1.494   9.846  18.039  0.00  0.00    +0.000 A 
ATOM     12  C   UNL     1       0.704  10.441  19.039  0.00  0.00    +0.000 A 
ATOM     13  S   UNL     1      -0.000  12.051  18.646  0.00  0.00    +0.000 S 
ATOM     14  C   UNL     1      -1.495  12.041  19.703  0.00  0.00    +0.000 C 
ENDROOT
BRANCH   4  15
ATOM     15  C   UNL     1      -2.827  12.860  22.594  0.00  0.00    +0.000 C 
ATOM     16  O   UNL     1      -2.587  13.921  23.157  0.00  0.00    +0.000 OA
ATOM     17  N   UNL     1      -4.086  12.504  22.136  0.00  0.00    +0.000 N 
ATOM     18  H   UNL     1      -4.144  11.584  21.706  0.00  0.00    +0.000 HD
BRANCH  17  19
ATOM     19  C   UNL     1      -5.241  13.391  22.186  0.00  0.00    +0.000 C 
ATOM     20  C   UNL     1      -5.322  14.277  20.932  0.00  0.00    +0.000 C 
ATOM     21  C   UNL     1      -5.914  13.572  19.713  0.00  0.00    +0.000 C 
ATOM     22  C   UNL     1      -7.262  12.942  20.035  0.00  0.00    +0.000 C 
ATOM     23  C   UNL     1      -7.144  11.968  21.201  0.00  0.00    +0.000 C 
ATOM     24  C   UNL     1      -6.554  12.635  22.443  0.00  0.00    +0.000 C 
ENDBRANCH  17  19
ENDBRANCH   4  15
TORSDOF 2
ENDMDL
MODEL 9
REMARK VINA RESULT:      -6.8      3.129      7.883
REMARK  Name = 
REMARK  3 active torsions:
REMARK  status: ('A' for Active; 'I' for Inactive)
REMARK    1  A    between atoms: C_1  and  N_2
REMARK    2  A    between atoms: C_4  and  C_5
REMARK    3  A    between atoms: N_7  and  C_8
REMARK                            x       y       z     vdW  Elec       q    Type
REMARK                         _______ _______ _______ _____ _____    ______ ____
ROOT
ATOM      1  C   UNL     1      -0.984  12.447  18.252  0.00  0.00    +0.000 C 
ATOM      2  N   UNL     1      -0.800  12.103  19.642  0.00  0.00    +0.000 N 
ATOM      3  N   UNL     1      -1.443  12.870  20.552  0.00  0.00    +0.000 NA
ATOM      4  C   UNL     1      -1.128  12.330  21.743  0.00  0.00    +0.000 A 
ATOM      5  C   UNL     1      -0.276  11.199  21.564  0.00  0.00    +0.000 A 
ATOM      6  C   UNL     1      -0.069  11.079  20.193  0.00  0.00    +0.000 A 
ATOM      7  C   UNL     1       0.737  10.020  19.554  0.00  0.00    +0.000 A 
ATOM      8  C   UNL     1       1.228  10.101  18.242  0.00  0.00    +0.000 A 
ATOM      9  C   UNL     1       1.997   9.068  17.684  0.00  0.00    +0.000 A 
ATOM     10  C   UNL     1       2.304   7.941  18.433  0.00  0.00    +0.000 A 
ATOM     11  C   UNL     1       1.838   7.838  19.743  0.00  0.00    +0.000 A 
ATOM     12  C   UNL     1       1.066   8.866  20.310  0.00  0.00    +0.000 A 
ATOM     13  S   UNL     1       0.489   8.593  21.994  0.00  0.00    +0.000 S 
ATOM     14  C   UNL     1       0.334  10.317  22.590  0.00  0.00    +0.000 C 
ENDROOT
BRANCH   4  15
ATOM     15  C   UNL     1      -1.629  12.920  23.005  0.00  0.00    +0.000 C 
ATOM     16  O   UNL     1      -0.923  13.579  23.759  0.00  0.00    +0.000 OA
ATOM     17  N   UNL     1      -2.976  12.680  23.232  0.00  0.00    +0.000 N 
ATOM     18  H   UNL     1      -3.433  12.099  22.533  0.00  0.00    +0.000 HD
BRANCH  17  19
ATOM     19  C   UNL     1      -3.722  13.265  24.338  0.00  0.00    +0.000 C 
ATOM     20  C   UNL     1      -4.106  14.724  24.046  0.00  0.00    +0.000 C 
ATOM     21  C   UNL     1      -5.327  14.873  23.140  0.00  0.00    +0.000 C 
ATOM     22  C   UNL     1      -6.515  14.084  23.673  0.00  0.00    +0.000 C 
ATOM     23  C   UNL     1      -6.159  12.612  23.840  0.00  0.00    +0.000 C 
ATOM     24  C   UNL     1      -4.939  12.418  24.740  0.00  0.00    +0.000 C 
ENDBRANCH  17  19
ENDBRANCH   4  15
TORSDOF 2
ENDMDL
