MODEL 1
REMARK VINA RESULT:      -7.9      0.000      0.000
REMARK  Name = 
REMARK  7 active torsions:
REMARK  status: ('A' for Active; 'I' for Inactive)
REMARK    1  A    between atoms: C_1  and  N_2
REMARK    2  A    between atoms: C_6  and  C_7
REMARK    3  A    between atoms: C_11  and  C_12
REMARK    4  A    between atoms: C_12  and  C_13
REMARK    5  A    between atoms: C_12  and  C_14
REMARK    6  A    between atoms: C_12  and  C_15
REMARK    7  A    between atoms: CB_20  and  CG_21
REMARK                            x       y       z     vdW  Elec       q    Type
REMARK                         _______ _______ _______ _____ _____    ______ ____
ROOT
ATOM      1  C   ACE A   0       1.408  10.748  18.193  0.00  0.00    +0.000 C 
ATOM      2  N   PHE A   1       1.616   9.453  18.822  0.00  0.00    +0.000 N 
ATOM      3  C   UNK A   2       2.376   8.553  18.074  0.00  0.00    +0.000 A 
ATOM      4  O   UNK A   2       2.783   8.795  16.935  0.00  0.00    +0.000 OA
ATOM      5  C   UNK A   2       2.720   7.266  18.739  0.00  0.00    +0.000 A 
ATOM      6  C   UNK A   2       3.523   6.428  18.068  0.00  0.00    +0.000 C 
ATOM      7  N   UNK A   2       2.260   6.997  20.000  0.00  0.00    +0.000 N 
ATOM      8  C   PHE A   1       1.460   7.818  20.739  0.00  0.00    +0.000 A 
ATOM      9  O   PHE A   1       1.090   7.488  21.861  0.00  0.00    +0.000 OA
ATOM     10  CA  PHE A   1       1.076   9.126  20.072  0.00  0.00    +0.000 A 
ATOM     11  CB  PHE A   1       0.201   9.841  20.805  0.00  0.00    +0.000 C 
ATOM     12  H   UNK A   2       2.541   6.113  20.423  0.00  0.00    +0.000 HD
ENDROOT
BRANCH   6  13
ATOM     13  C   UNK A   2       4.089   5.223  18.558  0.00  0.00    +0.000 A 
ATOM     14  N   UNK A   2       3.289   4.287  19.168  0.00  0.00    +0.000 NA
ATOM     15  C   UNK A   2       4.108   3.346  19.563  0.00  0.00    +0.000 A 
ATOM     16  N   UNK A   2       5.393   3.627  19.209  0.00  0.00    +0.000 N 
ATOM     17  C   UNK A   2       5.423   4.853  18.568  0.00  0.00    +0.000 A 
ATOM     18  H   UNK A   2       6.187   3.035  19.407  0.00  0.00    +0.000 HD
BRANCH  17  19
ATOM     19  C   UNK A   2       6.704   5.499  18.057  0.00  0.00    +0.000 C 
ATOM     20  C   UNK A   2       7.660   5.815  19.229  0.00  0.00    +0.000 C 
ATOM     21  C   UNK A   2       7.428   4.550  17.083  0.00  0.00    +0.000 C 
ATOM     22  C   UNK A   2       6.417   6.830  17.333  0.00  0.00    +0.000 C 
ENDBRANCH  17  19
ENDBRANCH   6  13
BRANCH  11  23
ATOM     23  CG  PHE A   1      -0.467  11.109  20.527  0.00  0.00    +0.000 A 
ATOM     24  CD1 PHE A   1      -1.552  11.157  19.646  0.00  0.00    +0.000 A 
ATOM     25  CE1 PHE A   1      -2.285  12.335  19.511  0.00  0.00    +0.000 A 
ATOM     26  CZ  PHE A   1      -1.934  13.463  20.254  0.00  0.00    +0.000 A 
ATOM     27  CE2 PHE A   1      -0.824  13.431  21.096  0.00  0.00    +0.000 A 
ATOM     28  CD2 PHE A   1      -0.085  12.257  21.228  0.00  0.00    +0.000 A 
ENDBRANCH  11  23
TORSDOF 3
ENDMDL
MODEL 2
REMARK VINA RESULT:      -7.8      0.198      1.288
REMARK  Name = 
REMARK  7 active torsions:
REMARK  status: ('A' for Active; 'I' for Inactive)
REMARK    1  A    between atoms: C_1  and  N_2
REMARK    2  A    between atoms: C_6  and  C_7
REMARK    3  A    between atoms: C_11  and  C_12
REMARK    4  A    between atoms: C_12  and  C_13
REMARK    5  A    between atoms: C_12  and  C_14
REMARK    6  A    between atoms: C_12  and  C_15
REMARK    7  A    between atoms: CB_20  and  CG_21
REMARK                            x       y       z     vdW  Elec       q    Type
REMARK                         _______ _______ _______ _____ _____    ______ ____
ROOT
ATOM      1  C   ACE A   0       1.448  10.698  18.203  0.00  0.00    +0.000 C 
ATOM      2  N   PHE A   1       1.658   9.398  18.819  0.00  0.00    +0.000 N 
ATOM      3  C   UNK A   2       2.408   8.501  18.057  0.00  0.00    +0.000 A 
ATOM      4  O   UNK A   2       2.803   8.750  16.916  0.00  0.00    +0.000 OA
ATOM      5  C   UNK A   2       2.754   7.208  18.709  0.00  0.00    +0.000 A 
ATOM      6  C   UNK A   2       3.547   6.373  18.023  0.00  0.00    +0.000 C 
ATOM      7  N   UNK A   2       2.305   6.931  19.973  0.00  0.00    +0.000 N 
ATOM      8  C   PHE A   1       1.516   7.749  20.725  0.00  0.00    +0.000 A 
ATOM      9  O   PHE A   1       1.156   7.411  21.848  0.00  0.00    +0.000 OA
ATOM     10  CA  PHE A   1       1.130   9.063  20.072  0.00  0.00    +0.000 A 
ATOM     11  CB  PHE A   1       0.265   9.775  20.819  0.00  0.00    +0.000 C 
ATOM     12  H   UNK A   2       2.588   6.042  20.386  0.00  0.00    +0.000 HD
ENDROOT
BRANCH   6  13
ATOM     13  C   UNK A   2       4.114   5.162  18.499  0.00  0.00    +0.000 A 
ATOM     14  N   UNK A   2       3.310   4.204  19.068  0.00  0.00    +0.000 NA
ATOM     15  C   UNK A   2       4.129   3.262  19.460  0.00  0.00    +0.000 A 
ATOM     16  N   UNK A   2       5.419   3.564  19.142  0.00  0.00    +0.000 N 
ATOM     17  C   UNK A   2       5.451   4.804  18.531  0.00  0.00    +0.000 A 
ATOM     18  H   UNK A   2       6.214   2.975  19.346  0.00  0.00    +0.000 HD
BRANCH  17  19
ATOM     19  C   UNK A   2       6.736   5.475  18.065  0.00  0.00    +0.000 C 
ATOM     20  C   UNK A   2       7.503   4.562  17.082  0.00  0.00    +0.000 C 
ATOM     21  C   UNK A   2       6.416   6.800  17.347  0.00  0.00    +0.000 C 
ATOM     22  C   UNK A   2       7.683   5.768  19.247  0.00  0.00    +0.000 C 
ENDBRANCH  17  19
ENDBRANCH   6  13
BRANCH  11  23
ATOM     23  CG  PHE A   1      -0.402  11.048  20.558  0.00  0.00    +0.000 A 
ATOM     24  CD1 PHE A   1       0.089  12.231  21.120  0.00  0.00    +0.000 A 
ATOM     25  CE1 PHE A   1      -0.452  13.457  20.737  0.00  0.00    +0.000 A 
ATOM     26  CZ  PHE A   1      -1.481  13.502  19.796  0.00  0.00    +0.000 A 
ATOM     27  CE2 PHE A   1      -2.004  12.321  19.271  0.00  0.00    +0.000 A 
ATOM     28  CD2 PHE A   1      -1.471  11.094  19.657  0.00  0.00    +0.000 A 
ENDBRANCH  11  23
TORSDOF 3
ENDMDL
MODEL 3
REMARK VINA RESULT:      -7.6      1.630      3.241
REMARK  Name = 
REMARK  7 active torsions:
REMARK  status: ('A' for Active; 'I' for Inactive)
REMARK    1  A    between atoms: C_1  and  N_2
REMARK    2  A    between atoms: C_6  and  C_7
REMARK    3  A    between atoms: C_11  and  C_12
REMARK    4  A    between atoms: C_12  and  C_13
REMARK    5  A    between atoms: C_12  and  C_14
REMARK    6  A    between atoms: C_12  and  C_15
REMARK    7  A    between atoms: CB_20  and  CG_21
REMARK                            x       y       z     vdW  Elec       q    Type
REMARK                         _______ _______ _______ _____ _____    ______ ____
ROOT
ATOM      1  C   ACE A   0      -0.235   9.296  21.521  0.00  0.00    +0.000 C 
ATOM      2  N   PHE A   1       0.716   9.009  20.459  0.00  0.00    +0.000 N 
ATOM      3  C   UNK A   2       1.381   7.789  20.580  0.00  0.00    +0.000 A 
ATOM      4  O   UNK A   2       1.240   7.036  21.547  0.00  0.00    +0.000 OA
ATOM      5  C   UNK A   2       2.264   7.401  19.446  0.00  0.00    +0.000 A 
ATOM      6  C   UNK A   2       2.841   6.193  19.507  0.00  0.00    +0.000 C 
ATOM      7  N   UNK A   2       2.425   8.243  18.378  0.00  0.00    +0.000 N 
ATOM      8  C   PHE A   1       1.848   9.472  18.251  0.00  0.00    +0.000 A 
ATOM      9  O   PHE A   1       2.057  10.161  17.258  0.00  0.00    +0.000 OA
ATOM     10  CA  PHE A   1       0.962   9.899  19.406  0.00  0.00    +0.000 A 
ATOM     11  CB  PHE A   1       0.511  11.161  19.271  0.00  0.00    +0.000 C 
ATOM     12  H   UNK A   2       3.021   7.924  17.615  0.00  0.00    +0.000 HD
ENDROOT
BRANCH   6  13
ATOM     13  C   UNK A   2       3.600   5.564  18.487  0.00  0.00    +0.000 A 
ATOM     14  N   UNK A   2       4.407   6.316  17.669  0.00  0.00    +0.000 NA
ATOM     15  C   UNK A   2       4.903   5.466  16.806  0.00  0.00    +0.000 A 
ATOM     16  N   UNK A   2       4.469   4.199  17.053  0.00  0.00    +0.000 N 
ATOM     17  C   UNK A   2       3.602   4.226  18.131  0.00  0.00    +0.000 A 
ATOM     18  H   UNK A   2       4.732   3.386  16.515  0.00  0.00    +0.000 HD
BRANCH  17  19
ATOM     19  C   UNK A   2       2.900   2.987  18.671  0.00  0.00    +0.000 C 
ATOM     20  C   UNK A   2       1.380   3.062  18.406  0.00  0.00    +0.000 C 
ATOM     21  C   UNK A   2       3.449   1.721  17.983  0.00  0.00    +0.000 C 
ATOM     22  C   UNK A   2       3.090   2.845  20.194  0.00  0.00    +0.000 C 
ENDBRANCH  17  19
ENDBRANCH   6  13
BRANCH  11  23
ATOM     23  CG  PHE A   1      -0.308  11.984  20.156  0.00  0.00    +0.000 A 
ATOM     24  CD1 PHE A   1      -1.694  12.046  19.980  0.00  0.00    +0.000 A 
ATOM     25  CE1 PHE A   1      -2.485  12.700  20.923  0.00  0.00    +0.000 A 
ATOM     26  CZ  PHE A   1      -1.893  13.291  22.039  0.00  0.00    +0.000 A 
ATOM     27  CE2 PHE A   1      -0.507  13.272  22.191  0.00  0.00    +0.000 A 
ATOM     28  CD2 PHE A   1       0.286  12.625  21.247  0.00  0.00    +0.000 A 
ENDBRANCH  11  23
TORSDOF 3
ENDMDL
MODEL 4
REMARK VINA RESULT:      -7.5      0.935      1.114
REMARK  Name = 
REMARK  7 active torsions:
REMARK  status: ('A' for Active; 'I' for Inactive)
REMARK    1  A    between atoms: C_1  and  N_2
REMARK    2  A    between atoms: C_6  and  C_7
REMARK    3  A    between atoms: C_11  and  C_12
REMARK    4  A    between atoms: C_12  and  C_13
REMARK    5  A    between atoms: C_12  and  C_14
REMARK    6  A    between atoms: C_12  and  C_15
REMARK    7  A    between atoms: CB_20  and  CG_21
REMARK                            x       y       z     vdW  Elec       q    Type
REMARK                         _______ _______ _______ _____ _____    ______ ____
ROOT
ATOM      1  C   ACE A   0       1.038  11.413  18.548  0.00  0.00    +0.000 C 
ATOM      2  N   PHE A   1       1.283  10.101  19.124  0.00  0.00    +0.000 N 
ATOM      3  C   UNK A   2       1.928   9.199  18.277  0.00  0.00    +0.000 A 
ATOM      4  O   UNK A   2       2.206   9.455  17.103  0.00  0.00    +0.000 OA
ATOM      5  C   UNK A   2       2.312   7.890  18.874  0.00  0.00    +0.000 A 
ATOM      6  C   UNK A   2       3.010   7.048  18.100  0.00  0.00    +0.000 C 
ATOM      7  N   UNK A   2       1.994   7.606  20.176  0.00  0.00    +0.000 N 
ATOM      8  C   PHE A   1       1.307   8.431  21.016  0.00  0.00    +0.000 A 
ATOM      9  O   PHE A   1       1.061   8.086  22.168  0.00  0.00    +0.000 OA
ATOM     10  CA  PHE A   1       0.883   9.761  20.423  0.00  0.00    +0.000 A 
ATOM     11  CB  PHE A   1       0.118  10.481  21.265  0.00  0.00    +0.000 C 
ATOM     12  H   UNK A   2       2.299   6.707  20.547  0.00  0.00    +0.000 HD
ENDROOT
BRANCH   6  13
ATOM     13  C   UNK A   2       3.597   5.819  18.499  0.00  0.00    +0.000 A 
ATOM     14  N   UNK A   2       2.981   5.041  19.449  0.00  0.00    +0.000 NA
ATOM     15  C   UNK A   2       3.795   4.034  19.642  0.00  0.00    +0.000 A 
ATOM     16  N   UNK A   2       4.891   4.122  18.838  0.00  0.00    +0.000 N 
ATOM     17  C   UNK A   2       4.806   5.283  18.091  0.00  0.00    +0.000 A 
ATOM     18  H   UNK A   2       5.644   3.449  18.818  0.00  0.00    +0.000 HD
BRANCH  17  19
ATOM     19  C   UNK A   2       5.877   5.721  17.101  0.00  0.00    +0.000 C 
ATOM     20  C   UNK A   2       7.027   4.690  17.049  0.00  0.00    +0.000 C 
ATOM     21  C   UNK A   2       5.276   5.849  15.688  0.00  0.00    +0.000 C 
ATOM     22  C   UNK A   2       6.498   7.075  17.500  0.00  0.00    +0.000 C 
ENDBRANCH  17  19
ENDBRANCH   6  13
BRANCH  11  23
ATOM     23  CG  PHE A   1      -0.545  11.770  21.089  0.00  0.00    +0.000 A 
ATOM     24  CD1 PHE A   1      -1.787  11.845  20.453  0.00  0.00    +0.000 A 
ATOM     25  CE1 PHE A   1      -2.486  13.051  20.433  0.00  0.00    +0.000 A 
ATOM     26  CZ  PHE A   1      -1.945  14.180  21.048  0.00  0.00    +0.000 A 
ATOM     27  CE2 PHE A   1      -0.684  14.119  21.641  0.00  0.00    +0.000 A 
ATOM     28  CD2 PHE A   1       0.019  12.918  21.656  0.00  0.00    +0.000 A 
ENDBRANCH  11  23
TORSDOF 3
ENDMDL
MODEL 5
REMARK VINA RESULT:      -7.5      1.340      2.624
REMARK  Name = 
REMARK  7 active torsions:
REMARK  status: ('A' for Active; 'I' for Inactive)
REMARK    1  A    between atoms: C_1  and  N_2
REMARK    2  A    between atoms: C_6  and  C_7
REMARK    3  A    between atoms: C_11  and  C_12
REMARK    4  A    between atoms: C_12  and  C_13
REMARK    5  A    between atoms: C_12  and  C_14
REMARK    6  A    between atoms: C_12  and  C_15
REMARK    7  A    between atoms: CB_20  and  CG_21
REMARK                            x       y       z     vdW  Elec       q    Type
REMARK                         _______ _______ _______ _____ _____    ______ ____
ROOT
ATOM      1  C   ACE A   0       1.092  11.029  18.274  0.00  0.00    +0.000 C 
ATOM      2  N   PHE A   1       1.376   9.786  18.972  0.00  0.00    +0.000 N 
ATOM      3  C   UNK A   2       2.049   8.828  18.213  0.00  0.00    +0.000 A 
ATOM      4  O   UNK A   2       2.321   8.980  17.020  0.00  0.00    +0.000 OA
ATOM      5  C   UNK A   2       2.472   7.593  18.930  0.00  0.00    +0.000 A 
ATOM      6  C   UNK A   2       3.196   6.703  18.238  0.00  0.00    +0.000 C 
ATOM      7  N   UNK A   2       2.161   7.424  20.253  0.00  0.00    +0.000 N 
ATOM      8  C   PHE A   1       1.447   8.303  21.013  0.00  0.00    +0.000 A 
ATOM      9  O   PHE A   1       1.210   8.061  22.192  0.00  0.00    +0.000 OA
ATOM     10  CA  PHE A   1       0.984   9.557  20.297  0.00  0.00    +0.000 A 
ATOM     11  CB  PHE A   1       0.196  10.330  21.068  0.00  0.00    +0.000 C 
ATOM     12  H   UNK A   2       2.492   6.573  20.707  0.00  0.00    +0.000 HD
ENDROOT
BRANCH   6  13
ATOM     13  C   UNK A   2       3.820   5.536  18.750  0.00  0.00    +0.000 A 
ATOM     14  N   UNK A   2       5.169   5.536  19.009  0.00  0.00    +0.000 NA
ATOM     15  C   UNK A   2       5.441   4.315  19.395  0.00  0.00    +0.000 A 
ATOM     16  N   UNK A   2       4.320   3.542  19.418  0.00  0.00    +0.000 N 
ATOM     17  C   UNK A   2       3.245   4.299  18.986  0.00  0.00    +0.000 A 
ATOM     18  H   UNK A   2       4.297   2.570  19.691  0.00  0.00    +0.000 HD
BRANCH  17  19
ATOM     19  C   UNK A   2       1.832   3.748  18.857  0.00  0.00    +0.000 C 
ATOM     20  C   UNK A   2       0.968   4.170  20.067  0.00  0.00    +0.000 C 
ATOM     21  C   UNK A   2       1.165   4.285  17.576  0.00  0.00    +0.000 C 
ATOM     22  C   UNK A   2       1.827   2.207  18.810  0.00  0.00    +0.000 C 
ENDBRANCH  17  19
ENDBRANCH   6  13
BRANCH  11  23
ATOM     23  CG  PHE A   1      -0.505  11.576  20.773  0.00  0.00    +0.000 A 
ATOM     24  CD1 PHE A   1      -1.727  11.555  20.092  0.00  0.00    +0.000 A 
ATOM     25  CE1 PHE A   1      -2.466  12.729  19.957  0.00  0.00    +0.000 A 
ATOM     26  CZ  PHE A   1      -1.988  13.921  20.500  0.00  0.00    +0.000 A 
ATOM     27  CE2 PHE A   1      -0.748  13.953  21.137  0.00  0.00    +0.000 A 
ATOM     28  CD2 PHE A   1      -0.003  12.784  21.267  0.00  0.00    +0.000 A 
ENDBRANCH  11  23
TORSDOF 3
ENDMDL
MODEL 6
REMARK VINA RESULT:      -7.5      1.474      3.328
REMARK  Name = 
REMARK  7 active torsions:
REMARK  status: ('A' for Active; 'I' for Inactive)
REMARK    1  A    between atoms: C_1  and  N_2
REMARK    2  A    between atoms: C_6  and  C_7
REMARK    3  A    between atoms: C_11  and  C_12
REMARK    4  A    between atoms: C_12  and  C_13
REMARK    5  A    between atoms: C_12  and  C_14
REMARK    6  A    between atoms: C_12  and  C_15
REMARK    7  A    between atoms: CB_20  and  CG_21
REMARK                            x       y       z     vdW  Elec       q    Type
REMARK                         _______ _______ _______ _____ _____    ______ ____
ROOT
ATOM      1  C   ACE A   0      -0.140   9.061  21.385  0.00  0.00    +0.000 C 
ATOM      2  N   PHE A   1       0.842   8.727  20.366  0.00  0.00    +0.000 N 
ATOM      3  C   UNK A   2       1.525   7.529  20.579  0.00  0.00    +0.000 A 
ATOM      4  O   UNK A   2       1.374   6.835  21.587  0.00  0.00    +0.000 OA
ATOM      5  C   UNK A   2       2.443   7.089  19.492  0.00  0.00    +0.000 A 
ATOM      6  C   UNK A   2       3.040   5.898  19.642  0.00  0.00    +0.000 C 
ATOM      7  N   UNK A   2       2.615   7.867  18.378  0.00  0.00    +0.000 N 
ATOM      8  C   PHE A   1       2.020   9.074  18.161  0.00  0.00    +0.000 A 
ATOM      9  O   PHE A   1       2.242   9.705  17.132  0.00  0.00    +0.000 OA
ATOM     10  CA  PHE A   1       1.099   9.554  19.266  0.00  0.00    +0.000 A 
ATOM     11  CB  PHE A   1       0.629  10.797  19.042  0.00  0.00    +0.000 C 
ATOM     12  H   UNK A   2       3.236   7.513  17.651  0.00  0.00    +0.000 HD
ENDROOT
BRANCH   6  13
ATOM     13  C   UNK A   2       3.835   5.222  18.681  0.00  0.00    +0.000 A 
ATOM     14  N   UNK A   2       4.709   5.930  17.893  0.00  0.00    +0.000 NA
ATOM     15  C   UNK A   2       5.227   5.045  17.080  0.00  0.00    +0.000 A 
ATOM     16  N   UNK A   2       4.740   3.798  17.331  0.00  0.00    +0.000 N 
ATOM     17  C   UNK A   2       3.816   3.877  18.357  0.00  0.00    +0.000 A 
ATOM     18  H   UNK A   2       5.007   2.965  16.827  0.00  0.00    +0.000 HD
BRANCH  17  19
ATOM     19  C   UNK A   2       3.046   2.673  18.884  0.00  0.00    +0.000 C 
ATOM     20  C   UNK A   2       3.598   1.364  18.277  0.00  0.00    +0.000 C 
ATOM     21  C   UNK A   2       3.174   2.588  20.417  0.00  0.00    +0.000 C 
ATOM     22  C   UNK A   2       1.551   2.750  18.515  0.00  0.00    +0.000 C 
ENDBRANCH  17  19
ENDBRANCH   6  13
BRANCH  11  23
ATOM     23  CG  PHE A   1      -0.227  11.657  19.854  0.00  0.00    +0.000 A 
ATOM     24  CD1 PHE A   1       0.329  12.474  20.844  0.00  0.00    +0.000 A 
ATOM     25  CE1 PHE A   1      -0.469  13.408  21.502  0.00  0.00    +0.000 A 
ATOM     26  CZ  PHE A   1      -1.820  13.525  21.173  0.00  0.00    +0.000 A 
ATOM     27  CE2 PHE A   1      -2.386  12.679  20.221  0.00  0.00    +0.000 A 
ATOM     28  CD2 PHE A   1      -1.593  11.740  19.567  0.00  0.00    +0.000 A 
ENDBRANCH  11  23
TORSDOF 3
ENDMDL
MODEL 7
REMARK VINA RESULT:      -7.5      0.885      1.621
REMARK  Name = 
REMARK  7 active torsions:
REMARK  status: ('A' for Active; 'I' for Inactive)
REMARK    1  A    between atoms: C_1  and  N_2
REMARK    2  A    between atoms: C_6  and  C_7
REMARK    3  A    between atoms: C_11  and  C_12
REMARK    4  A    between atoms: C_12  and  C_13
REMARK    5  A    between atoms: C_12  and  C_14
REMARK    6  A    between atoms: C_12  and  C_15
REMARK    7  A    between atoms: CB_20  and  CG_21
REMARK                            x       y       z     vdW  Elec       q    Type
REMARK                         _______ _______ _______ _____ _____    ______ ____
ROOT
ATOM      1  C   ACE A   0       1.042  11.346  18.506  0.00  0.00    +0.000 C 
ATOM      2  N   PHE A   1       1.293  10.042  19.097  0.00  0.00    +0.000 N 
ATOM      3  C   UNK A   2       1.918   9.124  18.252  0.00  0.00    +0.000 A 
ATOM      4  O   UNK A   2       2.174   9.361  17.069  0.00  0.00    +0.000 OA
ATOM      5  C   UNK A   2       2.309   7.823  18.861  0.00  0.00    +0.000 A 
ATOM      6  C   UNK A   2       2.988   6.966  18.086  0.00  0.00    +0.000 C 
ATOM      7  N   UNK A   2       2.016   7.560  20.173  0.00  0.00    +0.000 N 
ATOM      8  C   PHE A   1       1.349   8.400  21.014  0.00  0.00    +0.000 A 
ATOM      9  O   PHE A   1       1.124   8.074  22.175  0.00  0.00    +0.000 OA
ATOM     10  CA  PHE A   1       0.918   9.722  20.409  0.00  0.00    +0.000 A 
ATOM     11  CB  PHE A   1       0.172  10.459  21.255  0.00  0.00    +0.000 C 
ATOM     12  H   UNK A   2       2.325   6.665  20.552  0.00  0.00    +0.000 HD
ENDROOT
BRANCH   6  13
ATOM     13  C   UNK A   2       3.578   5.742  18.492  0.00  0.00    +0.000 A 
ATOM     14  N   UNK A   2       2.962   4.964  19.442  0.00  0.00    +0.000 NA
ATOM     15  C   UNK A   2       3.779   3.961  19.643  0.00  0.00    +0.000 A 
ATOM     16  N   UNK A   2       4.878   4.050  18.843  0.00  0.00    +0.000 N 
ATOM     17  C   UNK A   2       4.792   5.208  18.091  0.00  0.00    +0.000 A 
ATOM     18  H   UNK A   2       5.634   3.381  18.828  0.00  0.00    +0.000 HD
BRANCH  17  19
ATOM     19  C   UNK A   2       5.865   5.647  17.104  0.00  0.00    +0.000 C 
ATOM     20  C   UNK A   2       5.335   5.579  15.655  0.00  0.00    +0.000 C 
ATOM     21  C   UNK A   2       6.296   7.098  17.395  0.00  0.00    +0.000 C 
ATOM     22  C   UNK A   2       7.108   4.737  17.177  0.00  0.00    +0.000 C 
ENDBRANCH  17  19
ENDBRANCH   6  13
BRANCH  11  23
ATOM     23  CG  PHE A   1      -0.489  11.748  21.073  0.00  0.00    +0.000 A 
ATOM     24  CD1 PHE A   1       0.165  12.933  21.426  0.00  0.00    +0.000 A 
ATOM     25  CE1 PHE A   1      -0.404  14.163  21.101  0.00  0.00    +0.000 A 
ATOM     26  CZ  PHE A   1      -1.623  14.210  20.424  0.00  0.00    +0.000 A 
ATOM     27  CE2 PHE A   1      -2.299  13.031  20.113  0.00  0.00    +0.000 A 
ATOM     28  CD2 PHE A   1      -1.737  11.800  20.444  0.00  0.00    +0.000 A 
ENDBRANCH  11  23
TORSDOF 3
ENDMDL
MODEL 8
REMARK VINA RESULT:      -7.4      1.348      2.789
REMARK  Name = 
REMARK  7 active torsions:
REMARK  status: ('A' for Active; 'I' for Inactive)
REMARK    1  A    between atoms: C_1  and  N_2
REMARK    2  A    between atoms: C_6  and  C_7
REMARK    3  A    between atoms: C_11  and  C_12
REMARK    4  A    between atoms: C_12  and  C_13
REMARK    5  A    between atoms: C_12  and  C_14
REMARK    6  A    between atoms: C_12  and  C_15
REMARK    7  A    between atoms: CB_20  and  CG_21
REMARK                            x       y       z     vdW  Elec       q    Type
REMARK                         _______ _______ _______ _____ _____    ______ ____
ROOT
ATOM      1  C   ACE A   0       1.102  11.047  18.364  0.00  0.00    +0.000 C 
ATOM      2  N   PHE A   1       1.390   9.787  19.031  0.00  0.00    +0.000 N 
ATOM      3  C   UNK A   2       2.046   8.842  18.242  0.00  0.00    +0.000 A 
ATOM      4  O   UNK A   2       2.300   9.017  17.048  0.00  0.00    +0.000 OA
ATOM      5  C   UNK A   2       2.473   7.590  18.926  0.00  0.00    +0.000 A 
ATOM      6  C   UNK A   2       3.181   6.711  18.204  0.00  0.00    +0.000 C 
ATOM      7  N   UNK A   2       2.182   7.395  20.250  0.00  0.00    +0.000 N 
ATOM      8  C   PHE A   1       1.486   8.262  21.040  0.00  0.00    +0.000 A 
ATOM      9  O   PHE A   1       1.266   7.996  22.217  0.00  0.00    +0.000 OA
ATOM     10  CA  PHE A   1       1.019   9.533  20.357  0.00  0.00    +0.000 A 
ATOM     11  CB  PHE A   1       0.247  10.294  21.158  0.00  0.00    +0.000 C 
ATOM     12  H   UNK A   2       2.516   6.533  20.681  0.00  0.00    +0.000 HD
ENDROOT
BRANCH   6  13
ATOM     13  C   UNK A   2       3.806   5.530  18.682  0.00  0.00    +0.000 A 
ATOM     14  N   UNK A   2       5.159   5.517  18.917  0.00  0.00    +0.000 NA
ATOM     15  C   UNK A   2       5.430   4.287  19.273  0.00  0.00    +0.000 A 
ATOM     16  N   UNK A   2       4.305   3.520  19.301  0.00  0.00    +0.000 N 
ATOM     17  C   UNK A   2       3.228   4.292  18.903  0.00  0.00    +0.000 A 
ATOM     18  H   UNK A   2       4.281   2.543  19.554  0.00  0.00    +0.000 HD
BRANCH  17  19
ATOM     19  C   UNK A   2       1.809   3.752  18.788  0.00  0.00    +0.000 C 
ATOM     20  C   UNK A   2       1.819   2.212  18.666  0.00  0.00    +0.000 C 
ATOM     21  C   UNK A   2       0.990   4.134  20.036  0.00  0.00    +0.000 C 
ATOM     22  C   UNK A   2       1.092   4.303  17.538  0.00  0.00    +0.000 C 
ENDBRANCH  17  19
ENDBRANCH   6  13
BRANCH  11  23
ATOM     23  CG  PHE A   1      -0.451  11.550  20.900  0.00  0.00    +0.000 A 
ATOM     24  CD1 PHE A   1       0.113  12.766  21.298  0.00  0.00    +0.000 A 
ATOM     25  CE1 PHE A   1      -0.478  13.967  20.906  0.00  0.00    +0.000 A 
ATOM     26  CZ  PHE A   1      -1.629  13.952  20.118  0.00  0.00    +0.000 A 
ATOM     27  CE2 PHE A   1      -2.220  12.741  19.761  0.00  0.00    +0.000 A 
ATOM     28  CD2 PHE A   1      -1.636  11.540  20.157  0.00  0.00    +0.000 A 
ENDBRANCH  11  23
TORSDOF 3
ENDMDL
MODEL 9
REMARK VINA RESULT:      -7.3      2.192      8.864
REMARK  Name = 
REMARK  7 active torsions:
REMARK  status: ('A' for Active; 'I' for Inactive)
REMARK    1  A    between atoms: C_1  and  N_2
REMARK    2  A    between atoms: C_6  and  C_7
REMARK    3  A    between atoms: C_11  and  C_12
REMARK    4  A    between atoms: C_12  and  C_13
REMARK    5  A    between atoms: C_12  and  C_14
REMARK    6  A    between atoms: C_12  and  C_15
REMARK    7  A    between atoms: CB_20  and  CG_21
REMARK                            x       y       z     vdW  Elec       q    Type
REMARK                         _______ _______ _______ _____ _____    ______ ____
ROOT
ATOM      1  C   ACE A   0       1.520   6.908  20.980  0.00  0.00    +0.000 C 
ATOM      2  N   PHE A   1       1.318   8.113  20.193  0.00  0.00    +0.000 N 
ATOM      3  C   UNK A   2       0.474   9.060  20.775  0.00  0.00    +0.000 A 
ATOM      4  O   UNK A   2      -0.122   8.871  21.838  0.00  0.00    +0.000 OA
ATOM      5  C   UNK A   2       0.346  10.360  20.062  0.00  0.00    +0.000 A 
ATOM      6  C   UNK A   2      -0.391  11.311  20.653  0.00  0.00    +0.000 C 
ATOM      7  N   UNK A   2       1.003  10.564  18.877  0.00  0.00    +0.000 N 
ATOM      8  C   PHE A   1       1.782   9.644  18.241  0.00  0.00    +0.000 A 
ATOM      9  O   PHE A   1       2.326   9.915  17.175  0.00  0.00    +0.000 OA
ATOM     10  CA  PHE A   1       1.907   8.302  18.937  0.00  0.00    +0.000 A 
ATOM     11  CB  PHE A   1       2.598   7.405  18.208  0.00  0.00    +0.000 C 
ATOM     12  H   UNK A   2       0.904  11.479  18.438  0.00  0.00    +0.000 HD
ENDROOT
BRANCH   6  13
ATOM     13  C   UNK A   2      -0.534  12.657  20.229  0.00  0.00    +0.000 A 
ATOM     14  N   UNK A   2       0.542  13.330  19.703  0.00  0.00    +0.000 NA
ATOM     15  C   UNK A   2       0.109  14.545  19.483  0.00  0.00    +0.000 A 
ATOM     16  N   UNK A   2      -1.204  14.672  19.822  0.00  0.00    +0.000 N 
ATOM     17  C   UNK A   2      -1.653  13.466  20.330  0.00  0.00    +0.000 A 
ATOM     18  H   UNK A   2      -1.742  15.521  19.730  0.00  0.00    +0.000 HD
BRANCH  17  19
ATOM     19  C   UNK A   2      -3.072  13.249  20.839  0.00  0.00    +0.000 C 
ATOM     20  C   UNK A   2      -3.808  14.598  20.995  0.00  0.00    +0.000 C 
ATOM     21  C   UNK A   2      -3.866  12.376  19.849  0.00  0.00    +0.000 C 
ATOM     22  C   UNK A   2      -3.080  12.564  22.221  0.00  0.00    +0.000 C 
ENDBRANCH  17  19
ENDBRANCH   6  13
BRANCH  11  23
ATOM     23  CG  PHE A   1       2.906   6.000  18.461  0.00  0.00    +0.000 A 
ATOM     24  CD1 PHE A   1       2.056   4.995  17.990  0.00  0.00    +0.000 A 
ATOM     25  CE1 PHE A   1       2.438   3.658  18.093  0.00  0.00    +0.000 A 
ATOM     26  CZ  PHE A   1       3.666   3.326  18.666  0.00  0.00    +0.000 A 
ATOM     27  CE2 PHE A   1       4.493   4.325  19.180  0.00  0.00    +0.000 A 
ATOM     28  CD2 PHE A   1       4.111   5.660  19.085  0.00  0.00    +0.000 A 
ENDBRANCH  11  23
TORSDOF 3
ENDMDL
