MODEL 1
REMARK VINA RESULT:      -7.7      0.000      0.000
REMARK  Name = 
REMARK  4 active torsions:
REMARK  status: ('A' for Active; 'I' for Inactive)
REMARK    1  A    between atoms: C_1  and  C_2
REMARK    2  A    between atoms: C_2  and  O_3
REMARK    3  A    between atoms: O_3  and  C_4
REMARK    4  A    between atoms: C_4  and  C_6
REMARK                            x       y       z     vdW  Elec       q    Type
REMARK                         _______ _______ _______ _____ _____    ______ ____
ROOT
ATOM      1  C   UNL     1       5.813   4.183  17.257  0.00  0.00    +0.000 C 
ATOM      2  C   UNL     1       4.667   3.907  16.300  0.00  0.00    +0.000 C 
ATOM      3  C   UNL     1       4.583   5.050  17.274  0.00  0.00    +0.000 C 
ATOM      4  C   UNL     1       4.591   6.494  16.841  0.00  0.00    +0.000 C 
ATOM      5  O   UNL     1       5.169   6.953  15.875  0.00  0.00    +0.000 OA
ATOM      6  N   UNL     1       3.791   7.186  17.734  0.00  0.00    +0.000 N 
ATOM      7  C   UNL     1       3.201   6.337  18.671  0.00  0.00    +0.000 A 
ATOM      8  C   UNL     1       2.310   6.680  19.666  0.00  0.00    +0.000 A 
ATOM      9  C   UNL     1       1.809   5.644  20.457  0.00  0.00    +0.000 A 
ATOM     10  C   UNL     1       2.211   4.316  20.229  0.00  0.00    +0.000 A 
ATOM     11 BR   UNL     1       1.484   2.933  21.296  0.00  0.00    +0.000 Br
ATOM     12  C   UNL     1       3.126   3.994  19.222  0.00  0.00    +0.000 A 
ATOM     13  C   UNL     1       3.628   5.021  18.437  0.00  0.00    +0.000 A 
ATOM     14  H   UNL     1       3.618   8.177  17.646  0.00  0.00    +0.000 HD
ENDROOT
BRANCH   1  15
ATOM     15  C   UNL     1       7.120   4.592  16.695  0.00  0.00    +0.000 C 
ATOM     16  O   UNL     1       7.350   4.642  15.497  0.00  0.00    +0.000 OA
BRANCH  15  17
ATOM     17  O   UNL     1       8.047   4.695  17.687  0.00  0.00    +0.000 OA
BRANCH  17  19
ATOM     18  C   UNL     1       7.905   7.023  18.243  0.00  0.00    +0.000 C 
ATOM     19  C   UNL     1       7.694   5.603  18.740  0.00  0.00    +0.000 C 
ENDBRANCH  17  19
ENDBRANCH  15  17
ENDBRANCH   1  15
TORSDOF 3
ENDMDL
MODEL 2
REMARK VINA RESULT:      -7.4      2.348      3.694
REMARK  Name = 
REMARK  4 active torsions:
REMARK  status: ('A' for Active; 'I' for Inactive)
REMARK    1  A    between atoms: C_1  and  C_2
REMARK    2  A    between atoms: C_2  and  O_3
REMARK    3  A    between atoms: O_3  and  C_4
REMARK    4  A    between atoms: C_4  and  C_6
REMARK                            x       y       z     vdW  Elec       q    Type
REMARK                         _______ _______ _______ _____ _____    ______ ____
ROOT
ATOM      1  C   UNL     1       5.291   4.666  15.240  0.00  0.00    +0.000 C 
ATOM      2  C   UNL     1       4.978   6.005  15.885  0.00  0.00    +0.000 C 
ATOM      3  C   UNL     1       5.406   4.838  16.731  0.00  0.00    +0.000 C 
ATOM      4  C   UNL     1       6.724   4.799  17.463  0.00  0.00    +0.000 C 
ATOM      5  O   UNL     1       7.763   5.315  17.103  0.00  0.00    +0.000 OA
ATOM      6  N   UNL     1       6.513   4.089  18.633  0.00  0.00    +0.000 N 
ATOM      7  C   UNL     1       5.177   3.716  18.783  0.00  0.00    +0.000 A 
ATOM      8  C   UNL     1       4.608   3.051  19.849  0.00  0.00    +0.000 A 
ATOM      9  C   UNL     1       3.231   2.829  19.800  0.00  0.00    +0.000 A 
ATOM     10  C   UNL     1       2.477   3.276  18.701  0.00  0.00    +0.000 A 
ATOM     11 BR   UNL     1       0.606   2.991  18.685  0.00  0.00    +0.000 Br
ATOM     12  C   UNL     1       3.077   3.937  17.625  0.00  0.00    +0.000 A 
ATOM     13  C   UNL     1       4.446   4.155  17.668  0.00  0.00    +0.000 A 
ATOM     14  H   UNL     1       7.245   3.941  19.312  0.00  0.00    +0.000 HD
ENDROOT
BRANCH   1  15
ATOM     15  C   UNL     1       6.443   4.579  14.315  0.00  0.00    +0.000 C 
ATOM     16  O   UNL     1       7.178   5.522  14.067  0.00  0.00    +0.000 OA
BRANCH  15  17
ATOM     17  O   UNL     1       6.425   3.390  13.652  0.00  0.00    +0.000 OA
BRANCH  17  19
ATOM     18  C   UNL     1       4.946   3.178  11.777  0.00  0.00    +0.000 C 
ATOM     19  C   UNL     1       6.362   3.505  12.224  0.00  0.00    +0.000 C 
ENDBRANCH  17  19
ENDBRANCH  15  17
ENDBRANCH   1  15
TORSDOF 3
ENDMDL
MODEL 3
REMARK VINA RESULT:      -7.1      1.082      1.144
REMARK  Name = 
REMARK  4 active torsions:
REMARK  status: ('A' for Active; 'I' for Inactive)
REMARK    1  A    between atoms: C_1  and  C_2
REMARK    2  A    between atoms: C_2  and  O_3
REMARK    3  A    between atoms: O_3  and  C_4
REMARK    4  A    between atoms: C_4  and  C_6
REMARK                            x       y       z     vdW  Elec       q    Type
REMARK                         _______ _______ _______ _____ _____    ______ ____
ROOT
ATOM      1  C   UNL     1       5.934   4.247  16.222  0.00  0.00    +0.000 C 
ATOM      2  C   UNL     1       4.909   4.439  15.120  0.00  0.00    +0.000 C 
ATOM      3  C   UNL     1       4.761   5.167  16.427  0.00  0.00    +0.000 C 
ATOM      4  C   UNL     1       4.902   6.663  16.549  0.00  0.00    +0.000 C 
ATOM      5  O   UNL     1       5.624   7.375  15.880  0.00  0.00    +0.000 OA
ATOM      6  N   UNL     1       4.032   7.069  17.546  0.00  0.00    +0.000 N 
ATOM      7  C   UNL     1       3.280   6.005  18.047  0.00  0.00    +0.000 A 
ATOM      8  C   UNL     1       2.288   6.059  19.003  0.00  0.00    +0.000 A 
ATOM      9  C   UNL     1       1.633   4.865  19.310  0.00  0.00    +0.000 A 
ATOM     10  C   UNL     1       1.989   3.671  18.658  0.00  0.00    +0.000 A 
ATOM     11 BR   UNL     1       1.057   2.077  19.073  0.00  0.00    +0.000 Br
ATOM     12  C   UNL     1       3.009   3.638  17.702  0.00  0.00    +0.000 A 
ATOM     13  C   UNL     1       3.663   4.822  17.397  0.00  0.00    +0.000 A 
ATOM     14  H   UNL     1       3.925   8.039  17.806  0.00  0.00    +0.000 HD
ENDROOT
BRANCH   1  15
ATOM     15  C   UNL     1       7.323   4.700  15.983  0.00  0.00    +0.000 C 
ATOM     16  O   UNL     1       7.725   5.089  14.898  0.00  0.00    +0.000 OA
BRANCH  15  17
ATOM     17  O   UNL     1       8.101   4.424  17.066  0.00  0.00    +0.000 OA
BRANCH  17  19
ATOM     18  C   UNL     1       7.856   6.172  18.688  0.00  0.00    +0.000 C 
ATOM     19  C   UNL     1       7.499   4.740  18.329  0.00  0.00    +0.000 C 
ENDBRANCH  17  19
ENDBRANCH  15  17
ENDBRANCH   1  15
TORSDOF 3
ENDMDL
MODEL 4
REMARK VINA RESULT:      -7.0      2.048      3.142
REMARK  Name = 
REMARK  4 active torsions:
REMARK  status: ('A' for Active; 'I' for Inactive)
REMARK    1  A    between atoms: C_1  and  C_2
REMARK    2  A    between atoms: C_2  and  O_3
REMARK    3  A    between atoms: O_3  and  C_4
REMARK    4  A    between atoms: C_4  and  C_6
REMARK                            x       y       z     vdW  Elec       q    Type
REMARK                         _______ _______ _______ _____ _____    ______ ____
ROOT
ATOM      1  C   UNL     1       6.672   6.567  18.450  0.00  0.00    +0.000 C 
ATOM      2  C   UNL     1       7.182   5.457  19.351  0.00  0.00    +0.000 C 
ATOM      3  C   UNL     1       6.298   5.135  18.178  0.00  0.00    +0.000 C 
ATOM      4  C   UNL     1       6.788   4.375  16.971  0.00  0.00    +0.000 C 
ATOM      5  O   UNL     1       7.913   4.398  16.512  0.00  0.00    +0.000 OA
ATOM      6  N   UNL     1       5.720   3.625  16.508  0.00  0.00    +0.000 N 
ATOM      7  C   UNL     1       4.596   3.759  17.325  0.00  0.00    +0.000 A 
ATOM      8  C   UNL     1       3.383   3.116  17.190  0.00  0.00    +0.000 A 
ATOM      9  C   UNL     1       2.417   3.370  18.165  0.00  0.00    +0.000 A 
ATOM     10  C   UNL     1       2.693   4.247  19.229  0.00  0.00    +0.000 A 
ATOM     11 BR   UNL     1       1.372   4.540  20.552  0.00  0.00    +0.000 Br
ATOM     12  C   UNL     1       3.925   4.898  19.337  0.00  0.00    +0.000 A 
ATOM     13  C   UNL     1       4.886   4.650  18.368  0.00  0.00    +0.000 A 
ATOM     14  H   UNL     1       5.800   3.008  15.713  0.00  0.00    +0.000 HD
ENDROOT
BRANCH   1  15
ATOM     15  C   UNL     1       7.654   7.343  17.660  0.00  0.00    +0.000 C 
ATOM     16  O   UNL     1       7.829   7.182  16.462  0.00  0.00    +0.000 OA
BRANCH  15  17
ATOM     17  O   UNL     1       8.443   8.084  18.486  0.00  0.00    +0.000 OA
BRANCH  17  19
ATOM     18  C   UNL     1       9.273  10.193  19.268  0.00  0.00    +0.000 C 
ATOM     19  C   UNL     1       8.447   9.490  18.203  0.00  0.00    +0.000 C 
ENDBRANCH  17  19
ENDBRANCH  15  17
ENDBRANCH   1  15
TORSDOF 3
ENDMDL
MODEL 5
REMARK VINA RESULT:      -6.9      2.429      3.674
REMARK  Name = 
REMARK  4 active torsions:
REMARK  status: ('A' for Active; 'I' for Inactive)
REMARK    1  A    between atoms: C_1  and  C_2
REMARK    2  A    between atoms: C_2  and  O_3
REMARK    3  A    between atoms: O_3  and  C_4
REMARK    4  A    between atoms: C_4  and  C_6
REMARK                            x       y       z     vdW  Elec       q    Type
REMARK                         _______ _______ _______ _____ _____    ______ ____
ROOT
ATOM      1  C   UNL     1       6.190   5.992  15.752  0.00  0.00    +0.000 C 
ATOM      2  C   UNL     1       6.916   6.972  16.656  0.00  0.00    +0.000 C 
ATOM      3  C   UNL     1       6.026   5.913  17.246  0.00  0.00    +0.000 C 
ATOM      4  C   UNL     1       6.555   4.766  18.070  0.00  0.00    +0.000 C 
ATOM      5  O   UNL     1       7.635   4.224  17.940  0.00  0.00    +0.000 OA
ATOM      6  N   UNL     1       5.590   4.474  19.019  0.00  0.00    +0.000 N 
ATOM      7  C   UNL     1       4.509   5.353  18.951  0.00  0.00    +0.000 A 
ATOM      8  C   UNL     1       3.404   5.386  19.775  0.00  0.00    +0.000 A 
ATOM      9  C   UNL     1       2.468   6.396  19.546  0.00  0.00    +0.000 A 
ATOM     10  C   UNL     1       2.667   7.329  18.514  0.00  0.00    +0.000 A 
ATOM     11 BR   UNL     1       1.396   8.707  18.255  0.00  0.00    +0.000 Br
ATOM     12  C   UNL     1       3.789   7.269  17.682  0.00  0.00    +0.000 A 
ATOM     13  C   UNL     1       4.718   6.264  17.904  0.00  0.00    +0.000 A 
ATOM     14  H   UNL     1       5.718   3.750  19.711  0.00  0.00    +0.000 HD
ENDROOT
BRANCH   1  15
ATOM     15  C   UNL     1       6.993   5.046  14.945  0.00  0.00    +0.000 C 
ATOM     16  O   UNL     1       8.035   5.354  14.389  0.00  0.00    +0.000 OA
BRANCH  15  17
ATOM     17  O   UNL     1       6.304   3.887  14.755  0.00  0.00    +0.000 OA
BRANCH  17  19
ATOM     18  C   UNL     1       5.973   3.318  12.450  0.00  0.00    +0.000 C 
ATOM     19  C   UNL     1       5.344   3.931  13.691  0.00  0.00    +0.000 C 
ENDBRANCH  17  19
ENDBRANCH  15  17
ENDBRANCH   1  15
TORSDOF 3
ENDMDL
MODEL 6
REMARK VINA RESULT:      -6.8      3.709      5.653
REMARK  Name = 
REMARK  4 active torsions:
REMARK  status: ('A' for Active; 'I' for Inactive)
REMARK    1  A    between atoms: C_1  and  C_2
REMARK    2  A    between atoms: C_2  and  O_3
REMARK    3  A    between atoms: O_3  and  C_4
REMARK    4  A    between atoms: C_4  and  C_6
REMARK                            x       y       z     vdW  Elec       q    Type
REMARK                         _______ _______ _______ _____ _____    ______ ____
ROOT
ATOM      1  C   UNL     1       2.589   2.980  17.615  0.00  0.00    +0.000 C 
ATOM      2  C   UNL     1       3.444   1.725  17.605  0.00  0.00    +0.000 C 
ATOM      3  C   UNL     1       4.017   3.028  18.088  0.00  0.00    +0.000 C 
ATOM      4  C   UNL     1       4.397   3.270  19.527  0.00  0.00    +0.000 C 
ATOM      5  O   UNL     1       3.859   2.789  20.505  0.00  0.00    +0.000 OA
ATOM      6  N   UNL     1       5.491   4.118  19.517  0.00  0.00    +0.000 N 
ATOM      7  C   UNL     1       5.916   4.405  18.219  0.00  0.00    +0.000 A 
ATOM      8  C   UNL     1       7.003   5.168  17.844  0.00  0.00    +0.000 A 
ATOM      9  C   UNL     1       7.264   5.274  16.477  0.00  0.00    +0.000 A 
ATOM     10  C   UNL     1       6.441   4.622  15.542  0.00  0.00    +0.000 A 
ATOM     11 BR   UNL     1       6.847   4.759  13.699  0.00  0.00    +0.000 Br
ATOM     12  C   UNL     1       5.337   3.865  15.945  0.00  0.00    +0.000 A 
ATOM     13  C   UNL     1       5.072   3.760  17.303  0.00  0.00    +0.000 A 
ATOM     14  H   UNL     1       5.950   4.415  20.366  0.00  0.00    +0.000 HD
ENDROOT
BRANCH   1  15
ATOM     15  C   UNL     1       1.408   3.025  18.506  0.00  0.00    +0.000 C 
ATOM     16  O   UNL     1       0.675   2.067  18.698  0.00  0.00    +0.000 OA
BRANCH  15  17
ATOM     17  O   UNL     1       1.160   4.306  18.894  0.00  0.00    +0.000 OA
BRANCH  17  19
ATOM     18  C   UNL     1       1.840   5.706  20.717  0.00  0.00    +0.000 C 
ATOM     19  C   UNL     1       1.031   4.485  20.311  0.00  0.00    +0.000 C 
ENDBRANCH  17  19
ENDBRANCH  15  17
ENDBRANCH   1  15
TORSDOF 3
ENDMDL
MODEL 7
REMARK VINA RESULT:      -6.7      1.073      1.931
REMARK  Name = 
REMARK  4 active torsions:
REMARK  status: ('A' for Active; 'I' for Inactive)
REMARK    1  A    between atoms: C_1  and  C_2
REMARK    2  A    between atoms: C_2  and  O_3
REMARK    3  A    between atoms: O_3  and  C_4
REMARK    4  A    between atoms: C_4  and  C_6
REMARK                            x       y       z     vdW  Elec       q    Type
REMARK                         _______ _______ _______ _____ _____    ______ ____
ROOT
ATOM      1  C   UNL     1       5.748   4.336  17.284  0.00  0.00    +0.000 C 
ATOM      2  C   UNL     1       4.573   3.975  16.392  0.00  0.00    +0.000 C 
ATOM      3  C   UNL     1       4.481   5.147  17.330  0.00  0.00    +0.000 C 
ATOM      4  C   UNL     1       4.401   6.574  16.848  0.00  0.00    +0.000 C 
ATOM      5  O   UNL     1       4.912   7.023  15.842  0.00  0.00    +0.000 OA
ATOM      6  N   UNL     1       3.612   7.260  17.755  0.00  0.00    +0.000 N 
ATOM      7  C   UNL     1       3.105   6.419  18.747  0.00  0.00    +0.000 A 
ATOM      8  C   UNL     1       2.245   6.757  19.771  0.00  0.00    +0.000 A 
ATOM      9  C   UNL     1       1.830   5.729  20.619  0.00  0.00    +0.000 A 
ATOM     10  C   UNL     1       2.283   4.413  20.416  0.00  0.00    +0.000 A 
ATOM     11 BR   UNL     1       1.671   3.038  21.563  0.00  0.00    +0.000 Br
ATOM     12  C   UNL     1       3.165   4.097  19.379  0.00  0.00    +0.000 A 
ATOM     13  C   UNL     1       3.582   5.117  18.537  0.00  0.00    +0.000 A 
ATOM     14  H   UNL     1       3.389   8.238  17.642  0.00  0.00    +0.000 HD
ENDROOT
BRANCH   1  15
ATOM     15  C   UNL     1       7.007   4.783  16.647  0.00  0.00    +0.000 C 
ATOM     16  O   UNL     1       7.632   5.766  17.013  0.00  0.00    +0.000 OA
BRANCH  15  17
ATOM     17  O   UNL     1       7.234   4.077  15.505  0.00  0.00    +0.000 OA
BRANCH  17  19
ATOM     18  C   UNL     1       6.394   3.969  13.263  0.00  0.00    +0.000 C 
ATOM     19  C   UNL     1       7.093   4.836  14.297  0.00  0.00    +0.000 C 
ENDBRANCH  17  19
ENDBRANCH  15  17
ENDBRANCH   1  15
TORSDOF 3
ENDMDL
MODEL 8
REMARK VINA RESULT:      -6.7      3.460      5.712
REMARK  Name = 
REMARK  4 active torsions:
REMARK  status: ('A' for Active; 'I' for Inactive)
REMARK    1  A    between atoms: C_1  and  C_2
REMARK    2  A    between atoms: C_2  and  O_3
REMARK    3  A    between atoms: O_3  and  C_4
REMARK    4  A    between atoms: C_4  and  C_6
REMARK                            x       y       z     vdW  Elec       q    Type
REMARK                         _______ _______ _______ _____ _____    ______ ____
ROOT
ATOM      1  C   UNL     1       2.882   3.995  17.510  0.00  0.00    +0.000 C 
ATOM      2  C   UNL     1       3.603   2.692  17.802  0.00  0.00    +0.000 C 
ATOM      3  C   UNL     1       4.385   3.955  17.567  0.00  0.00    +0.000 C 
ATOM      4  C   UNL     1       5.185   4.635  18.649  0.00  0.00    +0.000 C 
ATOM      5  O   UNL     1       4.921   4.653  19.836  0.00  0.00    +0.000 OA
ATOM      6  N   UNL     1       6.286   5.207  18.037  0.00  0.00    +0.000 N 
ATOM      7  C   UNL     1       6.334   4.915  16.673  0.00  0.00    +0.000 A 
ATOM      8  C   UNL     1       7.316   5.276  15.774  0.00  0.00    +0.000 A 
ATOM      9  C   UNL     1       7.175   4.824  14.461  0.00  0.00    +0.000 A 
ATOM     10  C   UNL     1       6.071   4.034  14.095  0.00  0.00    +0.000 A 
ATOM     11 BR   UNL     1       5.931   3.408  12.315  0.00  0.00    +0.000 Br
ATOM     12  C   UNL     1       5.080   3.692  15.021  0.00  0.00    +0.000 A 
ATOM     13  C   UNL     1       5.216   4.143  16.325  0.00  0.00    +0.000 A 
ATOM     14  H   UNL     1       6.992   5.707  18.557  0.00  0.00    +0.000 HD
ENDROOT
BRANCH   1  15
ATOM     15  C   UNL     1       2.018   4.577  18.561  0.00  0.00    +0.000 C 
ATOM     16  O   UNL     1       2.074   5.748  18.904  0.00  0.00    +0.000 OA
BRANCH  15  17
ATOM     17  O   UNL     1       1.330   3.593  19.203  0.00  0.00    +0.000 OA
BRANCH  17  19
ATOM     18  C   UNL     1       2.124   3.049  21.399  0.00  0.00    +0.000 C 
ATOM     19  C   UNL     1       1.101   3.838  20.598  0.00  0.00    +0.000 C 
ENDBRANCH  17  19
ENDBRANCH  15  17
ENDBRANCH   1  15
TORSDOF 3
ENDMDL
MODEL 9
REMARK VINA RESULT:      -6.6      3.607      5.434
REMARK  Name = 
REMARK  4 active torsions:
REMARK  status: ('A' for Active; 'I' for Inactive)
REMARK    1  A    between atoms: C_1  and  C_2
REMARK    2  A    between atoms: C_2  and  O_3
REMARK    3  A    between atoms: O_3  and  C_4
REMARK    4  A    between atoms: C_4  and  C_6
REMARK                            x       y       z     vdW  Elec       q    Type
REMARK                         _______ _______ _______ _____ _____    ______ ____
ROOT
ATOM      1  C   UNL     1       2.772   5.380  19.512  0.00  0.00    +0.000 C 
ATOM      2  C   UNL     1       2.182   6.170  18.358  0.00  0.00    +0.000 C 
ATOM      3  C   UNL     1       3.224   5.117  18.101  0.00  0.00    +0.000 C 
ATOM      4  C   UNL     1       2.925   3.832  17.370  0.00  0.00    +0.000 C 
ATOM      5  O   UNL     1       1.870   3.228  17.378  0.00  0.00    +0.000 OA
ATOM      6  N   UNL     1       4.068   3.495  16.666  0.00  0.00    +0.000 N 
ATOM      7  C   UNL     1       5.068   4.459  16.802  0.00  0.00    +0.000 A 
ATOM      8  C   UNL     1       6.307   4.470  16.197  0.00  0.00    +0.000 A 
ATOM      9  C   UNL     1       7.126   5.573  16.444  0.00  0.00    +0.000 A 
ATOM     10  C   UNL     1       6.683   6.616  17.276  0.00  0.00    +0.000 A 
ATOM     11 BR   UNL     1       7.805   8.114  17.559  0.00  0.00    +0.000 Br
ATOM     12  C   UNL     1       5.427   6.578  17.889  0.00  0.00    +0.000 A 
ATOM     13  C   UNL     1       4.613   5.481  17.649  0.00  0.00    +0.000 A 
ATOM     14  H   UNL     1       4.114   2.678  16.075  0.00  0.00    +0.000 HD
ENDROOT
BRANCH   1  15
ATOM     15  C   UNL     1       1.881   4.489  20.288  0.00  0.00    +0.000 C 
ATOM     16  O   UNL     1       0.662   4.568  20.261  0.00  0.00    +0.000 OA
BRANCH  15  17
ATOM     17  O   UNL     1       2.609   3.738  21.161  0.00  0.00    +0.000 OA
BRANCH  17  19
ATOM     18  C   UNL     1       4.324   2.288  20.322  0.00  0.00    +0.000 C 
ATOM     19  C   UNL     1       2.862   2.396  20.725  0.00  0.00    +0.000 C 
ENDBRANCH  17  19
ENDBRANCH  15  17
ENDBRANCH   1  15
TORSDOF 3
ENDMDL
