MODEL 1
REMARK VINA RESULT:      -6.4      0.000      0.000
REMARK  Name = 
REMARK  10 active torsions:
REMARK  status: ('A' for Active; 'I' for Inactive)
REMARK    1  A    between atoms: C_2  and  C_3
REMARK    2  A    between atoms: C_3  and  C_4
REMARK    3  A    between atoms: C_3  and  O_7
REMARK    4  A    between atoms: C_4  and  C_5
REMARK    5  A    between atoms: C_5  and  C_6
REMARK    6  A    between atoms: O_7  and  C_8
REMARK    7  A    between atoms: C_8  and  N_9
REMARK    8  A    between atoms: N_12  and  C_13
REMARK    9  A    between atoms: C_14  and  C_15
REMARK   10  A    between atoms: N_16  and  O_17
REMARK                            x       y       z     vdW  Elec       q    Type
REMARK                         _______ _______ _______ _____ _____    ______ ____
ROOT
ATOM      1  N   UNL     1       4.182   4.548  18.820  0.00  0.00    +0.000 N 
ATOM      2  C   UNL     1       3.410   4.963  17.759  0.00  0.00    +0.000 A 
ATOM      3  C   UNL     1       2.394   4.069  17.645  0.00  0.00    +0.000 A 
ATOM      4  N   UNL     1       2.567   3.133  18.644  0.00  0.00    +0.000 N 
ATOM      5  C   UNL     1       1.705   1.975  18.864  0.00  0.00    +0.000 C 
ATOM      6  C   UNL     1       3.671   3.427  19.388  0.00  0.00    +0.000 A 
ENDROOT
BRANCH   6   7
ATOM      7  C   UNL     1       4.180   2.690  20.488  0.00  0.00    +0.000 C 
ATOM      8  N   UNL     1       5.075   1.756  20.390  0.00  0.00    +0.000 NA
BRANCH   8   9
ATOM      9  O   UNL     1       5.310   1.245  21.674  0.00  0.00    +0.000 OA
ATOM     10  H   UNL     1       5.709   1.987  22.166  0.00  0.00    +0.000 HD
ENDBRANCH   8   9
ENDBRANCH   6   7
BRANCH   1  11
ATOM     11  C   UNL     1       5.451   5.154  19.210  0.00  0.00    +0.000 C 
BRANCH  11  12
ATOM     12  O   UNL     1       6.501   4.315  18.791  0.00  0.00    +0.000 OA
BRANCH  12  13
ATOM     13  C   UNL     1       7.501   4.950  18.006  0.00  0.00    +0.000 C 
BRANCH  13  15
ATOM     14  C   UNL     1       6.748   5.060  15.287  0.00  0.00    +0.000 C 
ATOM     15  C   UNL     1       7.095   5.009  16.542  0.00  0.00    +0.000 C 
ENDBRANCH  13  15
BRANCH  13  16
ATOM     16  C   UNL     1       7.709   6.390  18.492  0.00  0.00    +0.000 C 
BRANCH  16  17
ATOM     17  C   UNL     1       7.577   7.431  17.381  0.00  0.00    +0.000 C 
ATOM     18  C   UNL     1       8.068   8.790  17.854  0.00  0.00    +0.000 C 
ENDBRANCH  16  17
ENDBRANCH  13  16
ENDBRANCH  12  13
ENDBRANCH  11  12
ENDBRANCH   1  11
TORSDOF 8
ENDMDL
MODEL 2
REMARK VINA RESULT:      -6.2      1.556      1.651
REMARK  Name = 
REMARK  10 active torsions:
REMARK  status: ('A' for Active; 'I' for Inactive)
REMARK    1  A    between atoms: C_2  and  C_3
REMARK    2  A    between atoms: C_3  and  C_4
REMARK    3  A    between atoms: C_3  and  O_7
REMARK    4  A    between atoms: C_4  and  C_5
REMARK    5  A    between atoms: C_5  and  C_6
REMARK    6  A    between atoms: O_7  and  C_8
REMARK    7  A    between atoms: C_8  and  N_9
REMARK    8  A    between atoms: N_12  and  C_13
REMARK    9  A    between atoms: C_14  and  C_15
REMARK   10  A    between atoms: N_16  and  O_17
REMARK                            x       y       z     vdW  Elec       q    Type
REMARK                         _______ _______ _______ _____ _____    ______ ____
ROOT
ATOM      1  N   UNL     1       3.829   4.923  19.332  0.00  0.00    +0.000 N 
ATOM      2  C   UNL     1       3.011   5.931  19.788  0.00  0.00    +0.000 A 
ATOM      3  C   UNL     1       1.999   5.333  20.469  0.00  0.00    +0.000 A 
ATOM      4  N   UNL     1       2.227   3.973  20.418  0.00  0.00    +0.000 N 
ATOM      5  C   UNL     1       1.360   2.957  21.005  0.00  0.00    +0.000 C 
ATOM      6  C   UNL     1       3.369   3.707  19.722  0.00  0.00    +0.000 A 
ENDROOT
BRANCH   6   7
ATOM      7  C   UNL     1       3.921   2.430  19.444  0.00  0.00    +0.000 C 
ATOM      8  N   UNL     1       3.602   1.705  18.416  0.00  0.00    +0.000 NA
BRANCH   8   9
ATOM      9  O   UNL     1       4.330   0.509  18.488  0.00  0.00    +0.000 OA
ATOM     10  H   UNL     1       5.264   0.790  18.534  0.00  0.00    +0.000 HD
ENDBRANCH   8   9
ENDBRANCH   6   7
BRANCH   1  11
ATOM     11  C   UNL     1       4.969   5.117  18.443  0.00  0.00    +0.000 C 
BRANCH  11  12
ATOM     12  O   UNL     1       6.144   4.752  19.127  0.00  0.00    +0.000 OA
BRANCH  12  13
ATOM     13  C   UNL     1       7.351   4.975  18.412  0.00  0.00    +0.000 C 
BRANCH  13  15
ATOM     14  C   UNL     1       6.961   4.675  15.632  0.00  0.00    +0.000 C 
ATOM     15  C   UNL     1       7.141   4.813  16.915  0.00  0.00    +0.000 C 
ENDBRANCH  13  15
BRANCH  13  16
ATOM     16  C   UNL     1       7.849   6.404  18.663  0.00  0.00    +0.000 C 
BRANCH  16  17
ATOM     17  C   UNL     1       7.527   7.368  17.521  0.00  0.00    +0.000 C 
ATOM     18  C   UNL     1       8.055   8.761  17.827  0.00  0.00    +0.000 C 
ENDBRANCH  16  17
ENDBRANCH  13  16
ENDBRANCH  12  13
ENDBRANCH  11  12
ENDBRANCH   1  11
TORSDOF 8
ENDMDL
MODEL 3
REMARK VINA RESULT:      -6.2      1.780      2.064
REMARK  Name = 
REMARK  10 active torsions:
REMARK  status: ('A' for Active; 'I' for Inactive)
REMARK    1  A    between atoms: C_2  and  C_3
REMARK    2  A    between atoms: C_3  and  C_4
REMARK    3  A    between atoms: C_3  and  O_7
REMARK    4  A    between atoms: C_4  and  C_5
REMARK    5  A    between atoms: C_5  and  C_6
REMARK    6  A    between atoms: O_7  and  C_8
REMARK    7  A    between atoms: C_8  and  N_9
REMARK    8  A    between atoms: N_12  and  C_13
REMARK    9  A    between atoms: C_14  and  C_15
REMARK   10  A    between atoms: N_16  and  O_17
REMARK                            x       y       z     vdW  Elec       q    Type
REMARK                         _______ _______ _______ _____ _____    ______ ____
ROOT
ATOM      1  N   UNL     1       3.045   4.950  18.944  0.00  0.00    +0.000 N 
ATOM      2  C   UNL     1       2.481   5.934  19.724  0.00  0.00    +0.000 A 
ATOM      3  C   UNL     1       1.820   5.303  20.729  0.00  0.00    +0.000 A 
ATOM      4  N   UNL     1       2.002   3.948  20.542  0.00  0.00    +0.000 N 
ATOM      5  C   UNL     1       1.435   2.904  21.389  0.00  0.00    +0.000 C 
ATOM      6  C   UNL     1       2.771   3.718  19.440  0.00  0.00    +0.000 A 
ENDROOT
BRANCH   6   7
ATOM      7  C   UNL     1       3.160   2.456  18.920  0.00  0.00    +0.000 C 
ATOM      8  N   UNL     1       4.250   1.834  19.253  0.00  0.00    +0.000 NA
BRANCH   8   9
ATOM      9  O   UNL     1       4.304   0.638  18.525  0.00  0.00    +0.000 OA
ATOM     10  H   UNL     1       4.196   0.910  17.593  0.00  0.00    +0.000 HD
ENDBRANCH   8   9
ENDBRANCH   6   7
BRANCH   1  11
ATOM     11  C   UNL     1       3.738   5.187  17.683  0.00  0.00    +0.000 C 
BRANCH  11  12
ATOM     12  O   UNL     1       5.096   5.441  17.954  0.00  0.00    +0.000 OA
BRANCH  12  13
ATOM     13  C   UNL     1       6.007   4.510  17.387  0.00  0.00    +0.000 C 
BRANCH  13  15
ATOM     14  C   UNL     1       5.650   4.302  14.594  0.00  0.00    +0.000 C 
ATOM     15  C   UNL     1       5.815   4.398  15.883  0.00  0.00    +0.000 C 
ENDBRANCH  13  15
BRANCH  13  16
ATOM     16  C   UNL     1       7.448   4.970  17.641  0.00  0.00    +0.000 C 
BRANCH  16  17
ATOM     17  C   UNL     1       7.542   6.207  18.534  0.00  0.00    +0.000 C 
ATOM     18  C   UNL     1       7.735   7.462  17.697  0.00  0.00    +0.000 C 
ENDBRANCH  16  17
ENDBRANCH  13  16
ENDBRANCH  12  13
ENDBRANCH  11  12
ENDBRANCH   1  11
TORSDOF 8
ENDMDL
MODEL 4
REMARK VINA RESULT:      -6.2      1.775      2.861
REMARK  Name = 
REMARK  10 active torsions:
REMARK  status: ('A' for Active; 'I' for Inactive)
REMARK    1  A    between atoms: C_2  and  C_3
REMARK    2  A    between atoms: C_3  and  C_4
REMARK    3  A    between atoms: C_3  and  O_7
REMARK    4  A    between atoms: C_4  and  C_5
REMARK    5  A    between atoms: C_5  and  C_6
REMARK    6  A    between atoms: O_7  and  C_8
REMARK    7  A    between atoms: C_8  and  N_9
REMARK    8  A    between atoms: N_12  and  C_13
REMARK    9  A    between atoms: C_14  and  C_15
REMARK   10  A    between atoms: N_16  and  O_17
REMARK                            x       y       z     vdW  Elec       q    Type
REMARK                         _______ _______ _______ _____ _____    ______ ____
ROOT
ATOM      1  N   UNL     1       3.259   5.020  19.070  0.00  0.00    +0.000 N 
ATOM      2  C   UNL     1       2.494   5.963  19.717  0.00  0.00    +0.000 A 
ATOM      3  C   UNL     1       1.850   5.316  20.724  0.00  0.00    +0.000 A 
ATOM      4  N   UNL     1       2.245   3.995  20.671  0.00  0.00    +0.000 N 
ATOM      5  C   UNL     1       1.767   2.943  21.563  0.00  0.00    +0.000 C 
ATOM      6  C   UNL     1       3.130   3.801  19.652  0.00  0.00    +0.000 A 
ENDROOT
BRANCH   6   7
ATOM      7  C   UNL     1       3.742   2.579  19.275  0.00  0.00    +0.000 C 
ATOM      8  N   UNL     1       3.218   1.724  18.451  0.00  0.00    +0.000 NA
BRANCH   8   9
ATOM      9  O   UNL     1       4.097   0.637  18.339  0.00  0.00    +0.000 OA
ATOM     10  H   UNL     1       4.987   1.029  18.414  0.00  0.00    +0.000 HD
ENDBRANCH   8   9
ENDBRANCH   6   7
BRANCH   1  11
ATOM     11  C   UNL     1       4.015   5.263  17.846  0.00  0.00    +0.000 C 
BRANCH  11  12
ATOM     12  O   UNL     1       5.334   5.616  18.190  0.00  0.00    +0.000 OA
BRANCH  12  13
ATOM     13  C   UNL     1       6.180   5.926  17.092  0.00  0.00    +0.000 C 
BRANCH  13  15
ATOM     14  C   UNL     1       7.877   8.102  17.693  0.00  0.00    +0.000 C 
ATOM     15  C   UNL     1       7.093   7.098  17.415  0.00  0.00    +0.000 C 
ENDBRANCH  13  15
BRANCH  13  16
ATOM     16  C   UNL     1       7.067   4.719  16.761  0.00  0.00    +0.000 C 
BRANCH  16  17
ATOM     17  C   UNL     1       6.725   4.065  15.422  0.00  0.00    +0.000 C 
ATOM     18  C   UNL     1       5.688   4.885  14.670  0.00  0.00    +0.000 C 
ENDBRANCH  16  17
ENDBRANCH  13  16
ENDBRANCH  12  13
ENDBRANCH  11  12
ENDBRANCH   1  11
TORSDOF 8
ENDMDL
MODEL 5
REMARK VINA RESULT:      -6.0      1.565      2.792
REMARK  Name = 
REMARK  10 active torsions:
REMARK  status: ('A' for Active; 'I' for Inactive)
REMARK    1  A    between atoms: C_2  and  C_3
REMARK    2  A    between atoms: C_3  and  C_4
REMARK    3  A    between atoms: C_3  and  O_7
REMARK    4  A    between atoms: C_4  and  C_5
REMARK    5  A    between atoms: C_5  and  C_6
REMARK    6  A    between atoms: O_7  and  C_8
REMARK    7  A    between atoms: C_8  and  N_9
REMARK    8  A    between atoms: N_12  and  C_13
REMARK    9  A    between atoms: C_14  and  C_15
REMARK   10  A    between atoms: N_16  and  O_17
REMARK                            x       y       z     vdW  Elec       q    Type
REMARK                         _______ _______ _______ _____ _____    ______ ____
ROOT
ATOM      1  N   UNL     1       4.044   5.124  19.331  0.00  0.00    +0.000 N 
ATOM      2  C   UNL     1       3.122   6.109  19.598  0.00  0.00    +0.000 A 
ATOM      3  C   UNL     1       2.040   5.492  20.140  0.00  0.00    +0.000 A 
ATOM      4  N   UNL     1       2.331   4.145  20.199  0.00  0.00    +0.000 N 
ATOM      5  C   UNL     1       1.425   3.114  20.693  0.00  0.00    +0.000 C 
ATOM      6  C   UNL     1       3.580   3.905  19.707  0.00  0.00    +0.000 A 
ENDROOT
BRANCH   6   7
ATOM      7  C   UNL     1       4.224   2.647  19.588  0.00  0.00    +0.000 C 
ATOM      8  N   UNL     1       4.843   2.049  20.560  0.00  0.00    +0.000 NA
BRANCH   8   9
ATOM      9  O   UNL     1       5.366   0.847  20.065  0.00  0.00    +0.000 OA
ATOM     10  H   UNL     1       5.358   0.954  19.095  0.00  0.00    +0.000 HD
ENDBRANCH   8   9
ENDBRANCH   6   7
BRANCH   1  11
ATOM     11  C   UNL     1       5.304   5.335  18.625  0.00  0.00    +0.000 C 
BRANCH  11  12
ATOM     12  O   UNL     1       5.032   5.491  17.253  0.00  0.00    +0.000 OA
BRANCH  12  13
ATOM     13  C   UNL     1       6.112   5.994  16.479  0.00  0.00    +0.000 C 
BRANCH  13  15
ATOM     14  C   UNL     1       7.924   7.452  18.080  0.00  0.00    +0.000 C 
ATOM     15  C   UNL     1       7.088   6.778  17.341  0.00  0.00    +0.000 C 
ENDBRANCH  13  15
BRANCH  13  16
ATOM     16  C   UNL     1       6.883   4.830  15.842  0.00  0.00    +0.000 C 
BRANCH  16  17
ATOM     17  C   UNL     1       5.982   3.833  15.113  0.00  0.00    +0.000 C 
ATOM     18  C   UNL     1       6.206   3.902  13.610  0.00  0.00    +0.000 C 
ENDBRANCH  16  17
ENDBRANCH  13  16
ENDBRANCH  12  13
ENDBRANCH  11  12
ENDBRANCH   1  11
TORSDOF 8
ENDMDL
MODEL 6
REMARK VINA RESULT:      -6.0      1.401      1.744
REMARK  Name = 
REMARK  10 active torsions:
REMARK  status: ('A' for Active; 'I' for Inactive)
REMARK    1  A    between atoms: C_2  and  C_3
REMARK    2  A    between atoms: C_3  and  C_4
REMARK    3  A    between atoms: C_3  and  O_7
REMARK    4  A    between atoms: C_4  and  C_5
REMARK    5  A    between atoms: C_5  and  C_6
REMARK    6  A    between atoms: O_7  and  C_8
REMARK    7  A    between atoms: C_8  and  N_9
REMARK    8  A    between atoms: N_12  and  C_13
REMARK    9  A    between atoms: C_14  and  C_15
REMARK   10  A    between atoms: N_16  and  O_17
REMARK                            x       y       z     vdW  Elec       q    Type
REMARK                         _______ _______ _______ _____ _____    ______ ____
ROOT
ATOM      1  N   UNL     1       3.124   3.873  18.099  0.00  0.00    +0.000 N 
ATOM      2  C   UNL     1       2.075   4.763  18.137  0.00  0.00    +0.000 A 
ATOM      3  C   UNL     1       1.363   4.477  19.258  0.00  0.00    +0.000 A 
ATOM      4  N   UNL     1       2.000   3.423  19.882  0.00  0.00    +0.000 N 
ATOM      5  C   UNL     1       1.547   2.783  21.112  0.00  0.00    +0.000 C 
ATOM      6  C   UNL     1       3.102   3.046  19.174  0.00  0.00    +0.000 A 
ENDROOT
BRANCH   6   7
ATOM      7  C   UNL     1       4.000   1.993  19.490  0.00  0.00    +0.000 C 
ATOM      8  N   UNL     1       4.905   2.060  20.417  0.00  0.00    +0.000 NA
BRANCH   8   9
ATOM      9  O   UNL     1       5.607   0.847  20.422  0.00  0.00    +0.000 OA
ATOM     10  H   UNL     1       5.965   0.763  19.518  0.00  0.00    +0.000 HD
ENDBRANCH   8   9
ENDBRANCH   6   7
BRANCH   1  11
ATOM     11  C   UNL     1       4.065   3.747  16.991  0.00  0.00    +0.000 C 
BRANCH  11  12
ATOM     12  O   UNL     1       5.058   4.736  17.126  0.00  0.00    +0.000 OA
BRANCH  12  13
ATOM     13  C   UNL     1       6.308   4.419  16.532  0.00  0.00    +0.000 C 
BRANCH  13  15
ATOM     14  C   UNL     1       6.022   3.886  13.774  0.00  0.00    +0.000 C 
ATOM     15  C   UNL     1       6.154   4.132  15.047  0.00  0.00    +0.000 C 
ENDBRANCH  13  15
BRANCH  13  16
ATOM     16  C   UNL     1       7.272   5.603  16.681  0.00  0.00    +0.000 C 
BRANCH  16  17
ATOM     17  C   UNL     1       6.700   6.749  17.516  0.00  0.00    +0.000 C 
ATOM     18  C   UNL     1       7.678   7.912  17.576  0.00  0.00    +0.000 C 
ENDBRANCH  16  17
ENDBRANCH  13  16
ENDBRANCH  12  13
ENDBRANCH  11  12
ENDBRANCH   1  11
TORSDOF 8
ENDMDL
MODEL 7
REMARK VINA RESULT:      -5.9      0.936      2.471
REMARK  Name = 
REMARK  10 active torsions:
REMARK  status: ('A' for Active; 'I' for Inactive)
REMARK    1  A    between atoms: C_2  and  C_3
REMARK    2  A    between atoms: C_3  and  C_4
REMARK    3  A    between atoms: C_3  and  O_7
REMARK    4  A    between atoms: C_4  and  C_5
REMARK    5  A    between atoms: C_5  and  C_6
REMARK    6  A    between atoms: O_7  and  C_8
REMARK    7  A    between atoms: C_8  and  N_9
REMARK    8  A    between atoms: N_12  and  C_13
REMARK    9  A    between atoms: C_14  and  C_15
REMARK   10  A    between atoms: N_16  and  O_17
REMARK                            x       y       z     vdW  Elec       q    Type
REMARK                         _______ _______ _______ _____ _____    ______ ____
ROOT
ATOM      1  N   UNL     1       3.777   4.788  18.831  0.00  0.00    +0.000 N 
ATOM      2  C   UNL     1       2.685   5.346  18.207  0.00  0.00    +0.000 A 
ATOM      3  C   UNL     1       1.745   4.369  18.123  0.00  0.00    +0.000 A 
ATOM      4  N   UNL     1       2.283   3.240  18.705  0.00  0.00    +0.000 N 
ATOM      5  C   UNL     1       1.612   1.948  18.803  0.00  0.00    +0.000 C 
ATOM      6  C   UNL     1       3.544   3.492  19.158  0.00  0.00    +0.000 A 
ENDROOT
BRANCH   6   7
ATOM      7  C   UNL     1       4.420   2.578  19.798  0.00  0.00    +0.000 C 
ATOM      8  N   UNL     1       4.355   2.264  21.055  0.00  0.00    +0.000 NA
BRANCH   8   9
ATOM      9  O   UNL     1       5.387   1.355  21.327  0.00  0.00    +0.000 OA
ATOM     10  H   UNL     1       5.813   1.197  20.464  0.00  0.00    +0.000 HD
ENDBRANCH   8   9
ENDBRANCH   6   7
BRANCH   1  11
ATOM     11  C   UNL     1       5.062   5.457  19.010  0.00  0.00    +0.000 C 
BRANCH  11  12
ATOM     12  O   UNL     1       5.931   5.048  17.980  0.00  0.00    +0.000 OA
BRANCH  12  13
ATOM     13  C   UNL     1       6.107   5.990  16.932  0.00  0.00    +0.000 C 
BRANCH  13  15
ATOM     14  C   UNL     1       7.898   8.038  17.689  0.00  0.00    +0.000 C 
ATOM     15  C   UNL     1       7.071   7.092  17.339  0.00  0.00    +0.000 C 
ENDBRANCH  13  15
BRANCH  13  16
ATOM     16  C   UNL     1       6.690   5.292  15.697  0.00  0.00    +0.000 C 
BRANCH  16  17
ATOM     17  C   UNL     1       5.630   4.625  14.820  0.00  0.00    +0.000 C 
ATOM     18  C   UNL     1       6.273   3.938  13.625  0.00  0.00    +0.000 C 
ENDBRANCH  16  17
ENDBRANCH  13  16
ENDBRANCH  12  13
ENDBRANCH  11  12
ENDBRANCH   1  11
TORSDOF 8
ENDMDL
MODEL 8
REMARK VINA RESULT:      -5.9      2.333      5.004
REMARK  Name = 
REMARK  10 active torsions:
REMARK  status: ('A' for Active; 'I' for Inactive)
REMARK    1  A    between atoms: C_2  and  C_3
REMARK    2  A    between atoms: C_3  and  C_4
REMARK    3  A    between atoms: C_3  and  O_7
REMARK    4  A    between atoms: C_4  and  C_5
REMARK    5  A    between atoms: C_5  and  C_6
REMARK    6  A    between atoms: O_7  and  C_8
REMARK    7  A    between atoms: C_8  and  N_9
REMARK    8  A    between atoms: N_12  and  C_13
REMARK    9  A    between atoms: C_14  and  C_15
REMARK   10  A    between atoms: N_16  and  O_17
REMARK                            x       y       z     vdW  Elec       q    Type
REMARK                         _______ _______ _______ _____ _____    ______ ____
ROOT
ATOM      1  N   UNL     1       5.182   4.714  17.755  0.00  0.00    +0.000 N 
ATOM      2  C   UNL     1       4.847   5.019  16.455  0.00  0.00    +0.000 A 
ATOM      3  C   UNL     1       5.646   6.051  16.079  0.00  0.00    +0.000 A 
ATOM      4  N   UNL     1       6.455   6.348  17.158  0.00  0.00    +0.000 N 
ATOM      5  C   UNL     1       7.447   7.417  17.189  0.00  0.00    +0.000 C 
ATOM      6  C   UNL     1       6.182   5.515  18.202  0.00  0.00    +0.000 A 
ENDROOT
BRANCH   6   7
ATOM      7  C   UNL     1       6.794   5.523  19.482  0.00  0.00    +0.000 C 
ATOM      8  N   UNL     1       8.024   5.173  19.704  0.00  0.00    +0.000 NA
BRANCH   8   9
ATOM      9  O   UNL     1       8.264   5.290  21.080  0.00  0.00    +0.000 OA
ATOM     10  H   UNL     1       8.327   4.370  21.400  0.00  0.00    +0.000 HD
ENDBRANCH   8   9
ENDBRANCH   6   7
BRANCH   1  11
ATOM     11  C   UNL     1       4.478   3.746  18.588  0.00  0.00    +0.000 C 
BRANCH  11  12
ATOM     12  O   UNL     1       3.130   3.697  18.184  0.00  0.00    +0.000 OA
BRANCH  12  13
ATOM     13  C   UNL     1       2.211   4.309  19.078  0.00  0.00    +0.000 C 
BRANCH  13  15
ATOM     14  C   UNL     1       2.212   3.016  21.588  0.00  0.00    +0.000 C 
ATOM     15  C   UNL     1       2.212   3.613  20.429  0.00  0.00    +0.000 C 
ENDBRANCH  13  15
BRANCH  13  16
ATOM     16  C   UNL     1       2.605   5.774  19.307  0.00  0.00    +0.000 C 
BRANCH  16  17
ATOM     17  C   UNL     1       2.056   6.723  18.241  0.00  0.00    +0.000 C 
ATOM     18  C   UNL     1       3.023   7.871  17.992  0.00  0.00    +0.000 C 
ENDBRANCH  16  17
ENDBRANCH  13  16
ENDBRANCH  12  13
ENDBRANCH  11  12
ENDBRANCH   1  11
TORSDOF 8
ENDMDL
MODEL 9
REMARK VINA RESULT:      -5.9      1.992      3.457
REMARK  Name = 
REMARK  10 active torsions:
REMARK  status: ('A' for Active; 'I' for Inactive)
REMARK    1  A    between atoms: C_2  and  C_3
REMARK    2  A    between atoms: C_3  and  C_4
REMARK    3  A    between atoms: C_3  and  O_7
REMARK    4  A    between atoms: C_4  and  C_5
REMARK    5  A    between atoms: C_5  and  C_6
REMARK    6  A    between atoms: O_7  and  C_8
REMARK    7  A    between atoms: C_8  and  N_9
REMARK    8  A    between atoms: N_12  and  C_13
REMARK    9  A    between atoms: C_14  and  C_15
REMARK   10  A    between atoms: N_16  and  O_17
REMARK                            x       y       z     vdW  Elec       q    Type
REMARK                         _______ _______ _______ _____ _____    ______ ____
ROOT
ATOM      1  N   UNL     1       4.127   3.794  18.868  0.00  0.00    +0.000 N 
ATOM      2  C   UNL     1       4.018   2.580  18.228  0.00  0.00    +0.000 A 
ATOM      3  C   UNL     1       2.737   2.163  18.400  0.00  0.00    +0.000 A 
ATOM      4  N   UNL     1       2.092   3.137  19.136  0.00  0.00    +0.000 N 
ATOM      5  C   UNL     1       0.700   3.073  19.568  0.00  0.00    +0.000 C 
ATOM      6  C   UNL     1       2.945   4.161  19.424  0.00  0.00    +0.000 A 
ENDROOT
BRANCH   6   7
ATOM      7  C   UNL     1       2.653   5.329  20.173  0.00  0.00    +0.000 C 
ATOM      8  N   UNL     1       2.348   6.476  19.647  0.00  0.00    +0.000 NA
BRANCH   8   9
ATOM      9  O   UNL     1       2.148   7.391  20.690  0.00  0.00    +0.000 OA
ATOM     10  H   UNL     1       2.715   7.068  21.415  0.00  0.00    +0.000 HD
ENDBRANCH   8   9
ENDBRANCH   6   7
BRANCH   1  11
ATOM     11  C   UNL     1       5.373   4.534  19.038  0.00  0.00    +0.000 C 
BRANCH  11  12
ATOM     12  O   UNL     1       5.957   4.734  17.773  0.00  0.00    +0.000 OA
BRANCH  12  13
ATOM     13  C   UNL     1       5.639   5.971  17.152  0.00  0.00    +0.000 C 
BRANCH  13  15
ATOM     14  C   UNL     1       7.690   7.870  17.551  0.00  0.00    +0.000 C 
ATOM     15  C   UNL     1       6.743   6.994  17.367  0.00  0.00    +0.000 C 
ENDBRANCH  13  15
BRANCH  13  16
ATOM     16  C   UNL     1       5.476   5.769  15.640  0.00  0.00    +0.000 C 
BRANCH  16  17
ATOM     17  C   UNL     1       5.430   4.299  15.226  0.00  0.00    +0.000 C 
ATOM     18  C   UNL     1       6.211   4.076  13.940  0.00  0.00    +0.000 C 
ENDBRANCH  16  17
ENDBRANCH  13  16
ENDBRANCH  12  13
ENDBRANCH  11  12
ENDBRANCH   1  11
TORSDOF 8
ENDMDL
