MODEL 1
REMARK VINA RESULT:      -9.1      0.000      0.000
REMARK  Name = 
REMARK  2 active torsions:
REMARK  status: ('A' for Active; 'I' for Inactive)
REMARK    1  A    between atoms: C_2  and  C_3
REMARK    2  A    between atoms: C_17  and  C_18
REMARK                            x       y       z     vdW  Elec       q    Type
REMARK                         _______ _______ _______ _____ _____    ______ ____
ROOT
ATOM      1  O   UNL     1       4.913   6.397  16.507  0.00  0.00    +0.000 OA
ATOM      2  C   UNL     1       4.891   5.306  17.079  0.00  0.00    +0.000 C 
ATOM      3  N   UNL     1       3.850   4.986  17.937  0.00  0.00    +0.000 N 
ATOM      4  C   UNL     1       3.702   3.772  18.716  0.00  0.00    +0.000 C 
ATOM      5  C   UNL     1       2.361   3.238  18.252  0.00  0.00    +0.000 C 
ATOM      6  C   UNL     1       1.526   4.510  18.124  0.00  0.00    +0.000 C 
ATOM      7  C   UNL     1       2.538   5.609  17.726  0.00  0.00    +0.000 C 
ENDROOT
BRANCH   2   8
ATOM      8  C   UNL     1       6.011   4.254  16.877  0.00  0.00    +0.000 C 
ATOM      9  C   UNL     1       7.405   4.878  16.843  0.00  0.00    +0.000 C 
ATOM     10  O   UNL     1       7.609   5.687  15.677  0.00  0.00    +0.000 OA
ATOM     11  C   UNL     1       7.203   5.033  14.546  0.00  0.00    +0.000 A 
ATOM     12  C   UNL     1       7.696   5.511  13.332  0.00  0.00    +0.000 A 
ATOM     13  C   UNL     1       7.384   4.846  12.147  0.00  0.00    +0.000 A 
ATOM     14  C   UNL     1       6.571   3.713  12.175  0.00  0.00    +0.000 A 
ATOM     15  C   UNL     1       6.046   3.259  13.388  0.00  0.00    +0.000 A 
ATOM     16  C   UNL     1       6.353   3.927  14.573  0.00  0.00    +0.000 A 
ATOM     17  O   UNL     1       5.806   3.425  15.724  0.00  0.00    +0.000 OA
ENDBRANCH   2   8
BRANCH   7  18
ATOM     18  C   UNL     1       2.316   6.841  18.580  0.00  0.00    +0.000 A 
ATOM     19  N   UNL     1       2.118   6.824  19.884  0.00  0.00    +0.000 NA
ATOM     20  C   UNL     1       1.658   8.061  20.313  0.00  0.00    +0.000 A 
ATOM     21  C   UNL     1       1.258   8.384  21.626  0.00  0.00    +0.000 A 
ATOM     22  C   UNL     1       0.766   9.662  21.914  0.00  0.00    +0.000 A 
ATOM     23  C   UNL     1       0.684  10.624  20.911  0.00  0.00    +0.000 A 
ATOM     24  C   UNL     1       1.086  10.334  19.603  0.00  0.00    +0.000 A 
ATOM     25  C   UNL     1       1.564   9.042  19.324  0.00  0.00    +0.000 A 
ATOM     26  S   UNL     1       2.088   8.372  17.824  0.00  0.00    +0.000 S 
ENDBRANCH   7  18
TORSDOF 2
ENDMDL
MODEL 2
REMARK VINA RESULT:      -7.7      1.029      1.123
REMARK  Name = 
REMARK  2 active torsions:
REMARK  status: ('A' for Active; 'I' for Inactive)
REMARK    1  A    between atoms: C_2  and  C_3
REMARK    2  A    between atoms: C_17  and  C_18
REMARK                            x       y       z     vdW  Elec       q    Type
REMARK                         _______ _______ _______ _____ _____    ______ ____
ROOT
ATOM      1  O   UNL     1       4.713   6.989  17.393  0.00  0.00    +0.000 OA
ATOM      2  C   UNL     1       4.801   5.962  18.070  0.00  0.00    +0.000 C 
ATOM      3  N   UNL     1       3.780   5.607  18.940  0.00  0.00    +0.000 N 
ATOM      4  C   UNL     1       3.753   4.464  19.831  0.00  0.00    +0.000 C 
ATOM      5  C   UNL     1       2.494   3.737  19.403  0.00  0.00    +0.000 C 
ATOM      6  C   UNL     1       1.523   4.885  19.139  0.00  0.00    +0.000 C 
ATOM      7  C   UNL     1       2.412   6.051  18.650  0.00  0.00    +0.000 C 
ENDROOT
BRANCH   2   8
ATOM      8  C   UNL     1       6.037   5.033  17.988  0.00  0.00    +0.000 C 
ATOM      9  C   UNL     1       7.323   5.792  17.665  0.00  0.00    +0.000 C 
ATOM     10  O   UNL     1       7.321   6.322  16.333  0.00  0.00    +0.000 OA
ATOM     11  C   UNL     1       6.924   5.377  15.427  0.00  0.00    +0.000 A 
ATOM     12  C   UNL     1       7.249   5.610  14.091  0.00  0.00    +0.000 A 
ATOM     13  C   UNL     1       6.943   4.652  13.125  0.00  0.00    +0.000 A 
ATOM     14  C   UNL     1       6.301   3.470  13.493  0.00  0.00    +0.000 A 
ATOM     15  C   UNL     1       5.941   3.256  14.826  0.00  0.00    +0.000 A 
ATOM     16  C   UNL     1       6.243   4.216  15.792  0.00  0.00    +0.000 A 
ATOM     17  O   UNL     1       5.863   3.937  17.078  0.00  0.00    +0.000 OA
ENDBRANCH   2   8
BRANCH   7  18
ATOM     18  C   UNL     1       2.029   7.325  19.375  0.00  0.00    +0.000 A 
ATOM     19  N   UNL     1       1.681   7.388  20.646  0.00  0.00    +0.000 NA
ATOM     20  C   UNL     1       1.111   8.624  20.923  0.00  0.00    +0.000 A 
ATOM     21  C   UNL     1       0.543   9.015  22.153  0.00  0.00    +0.000 A 
ATOM     22  C   UNL     1      -0.043  10.279  22.284  0.00  0.00    +0.000 A 
ATOM     23  C   UNL     1      -0.054  11.161  21.207  0.00  0.00    +0.000 A 
ATOM     24  C   UNL     1       0.514  10.804  19.979  0.00  0.00    +0.000 A 
ATOM     25  C   UNL     1       1.085   9.525  19.857  0.00  0.00    +0.000 A 
ATOM     26  S   UNL     1       1.815   8.783  18.483  0.00  0.00    +0.000 S 
ENDBRANCH   7  18
TORSDOF 2
ENDMDL
MODEL 3
REMARK VINA RESULT:      -7.2      3.812      6.055
REMARK  Name = 
REMARK  2 active torsions:
REMARK  status: ('A' for Active; 'I' for Inactive)
REMARK    1  A    between atoms: C_2  and  C_3
REMARK    2  A    between atoms: C_17  and  C_18
REMARK                            x       y       z     vdW  Elec       q    Type
REMARK                         _______ _______ _______ _____ _____    ______ ____
ROOT
ATOM      1  O   UNL     1       2.072   8.239  17.752  0.00  0.00    +0.000 OA
ATOM      2  C   UNL     1       2.232   8.010  18.952  0.00  0.00    +0.000 C 
ATOM      3  N   UNL     1       1.560   8.762  19.904  0.00  0.00    +0.000 N 
ATOM      4  C   UNL     1       1.674   8.649  21.345  0.00  0.00    +0.000 C 
ATOM      5  C   UNL     1       0.245   8.384  21.774  0.00  0.00    +0.000 C 
ATOM      6  C   UNL     1      -0.553   9.304  20.854  0.00  0.00    +0.000 C 
ATOM      7  C   UNL     1       0.273   9.372  19.549  0.00  0.00    +0.000 C 
ENDROOT
BRANCH   2   8
ATOM      8  C   UNL     1       3.182   6.893  19.452  0.00  0.00    +0.000 C 
ATOM      9  C   UNL     1       3.844   6.128  18.307  0.00  0.00    +0.000 C 
ATOM     10  O   UNL     1       2.904   5.342  17.563  0.00  0.00    +0.000 OA
ATOM     11  C   UNL     1       2.098   4.618  18.399  0.00  0.00    +0.000 A 
ATOM     12  C   UNL     1       1.426   3.532  17.838  0.00  0.00    +0.000 A 
ATOM     13  C   UNL     1       0.648   2.704  18.647  0.00  0.00    +0.000 A 
ATOM     14  C   UNL     1       0.533   2.971  20.011  0.00  0.00    +0.000 A 
ATOM     15  C   UNL     1       1.175   4.082  20.564  0.00  0.00    +0.000 A 
ATOM     16  C   UNL     1       1.949   4.912  19.754  0.00  0.00    +0.000 A 
ATOM     17  O   UNL     1       2.552   5.981  20.363  0.00  0.00    +0.000 OA
ENDBRANCH   2   8
BRANCH   7  18
ATOM     18  C   UNL     1       0.398  10.813  19.098  0.00  0.00    +0.000 A 
ATOM     19  N   UNL     1       1.535  11.407  18.791  0.00  0.00    +0.000 NA
ATOM     20  C   UNL     1       1.349  12.780  18.709  0.00  0.00    +0.000 A 
ATOM     21  C   UNL     1       2.360  13.739  18.486  0.00  0.00    +0.000 A 
ATOM     22  C   UNL     1       2.041  15.102  18.474  0.00  0.00    +0.000 A 
ATOM     23  C   UNL     1       0.726  15.516  18.664  0.00  0.00    +0.000 A 
ATOM     24  C   UNL     1      -0.297  14.585  18.873  0.00  0.00    +0.000 A 
ATOM     25  C   UNL     1       0.038  13.220  18.899  0.00  0.00    +0.000 A 
ATOM     26  S   UNL     1      -0.974  11.852  19.173  0.00  0.00    +0.000 S 
ENDBRANCH   7  18
TORSDOF 2
ENDMDL
MODEL 4
REMARK VINA RESULT:      -6.8      0.861      1.271
REMARK  Name = 
REMARK  2 active torsions:
REMARK  status: ('A' for Active; 'I' for Inactive)
REMARK    1  A    between atoms: C_2  and  C_3
REMARK    2  A    between atoms: C_17  and  C_18
REMARK                            x       y       z     vdW  Elec       q    Type
REMARK                         _______ _______ _______ _____ _____    ______ ____
ROOT
ATOM      1  O   UNL     1       4.735   6.428  16.732  0.00  0.00    +0.000 OA
ATOM      2  C   UNL     1       4.775   5.290  17.203  0.00  0.00    +0.000 C 
ATOM      3  N   UNL     1       3.683   4.775  17.886  0.00  0.00    +0.000 N 
ATOM      4  C   UNL     1       3.589   3.482  18.534  0.00  0.00    +0.000 C 
ATOM      5  C   UNL     1       2.387   2.855  17.855  0.00  0.00    +0.000 C 
ATOM      6  C   UNL     1       1.428   4.035  17.726  0.00  0.00    +0.000 C 
ATOM      7  C   UNL     1       2.341   5.272  17.558  0.00  0.00    +0.000 C 
ENDROOT
BRANCH   2   8
ATOM      8  C   UNL     1       6.028   4.390  17.061  0.00  0.00    +0.000 C 
ATOM      9  C   UNL     1       7.324   5.195  16.985  0.00  0.00    +0.000 C 
ATOM     10  O   UNL     1       7.422   5.953  15.771  0.00  0.00    +0.000 OA
ATOM     11  C   UNL     1       7.115   5.182  14.684  0.00  0.00    +0.000 A 
ATOM     12  C   UNL     1       7.544   5.648  13.441  0.00  0.00    +0.000 A 
ATOM     13  C   UNL     1       7.333   4.876  12.299  0.00  0.00    +0.000 A 
ATOM     14  C   UNL     1       6.681   3.647  12.399  0.00  0.00    +0.000 A 
ATOM     15  C   UNL     1       6.216   3.200  13.639  0.00  0.00    +0.000 A 
ATOM     16  C   UNL     1       6.424   3.974  14.780  0.00  0.00    +0.000 A 
ATOM     17  O   UNL     1       5.945   3.473  15.961  0.00  0.00    +0.000 OA
ENDBRANCH   2   8
BRANCH   7  18
ATOM     18  C   UNL     1       1.872   6.382  18.476  0.00  0.00    +0.000 A 
ATOM     19  N   UNL     1       1.613   7.616  18.089  0.00  0.00    +0.000 NA
ATOM     20  C   UNL     1       1.497   8.448  19.194  0.00  0.00    +0.000 A 
ATOM     21  C   UNL     1       1.311   9.846  19.160  0.00  0.00    +0.000 A 
ATOM     22  C   UNL     1       1.258  10.574  20.354  0.00  0.00    +0.000 A 
ATOM     23  C   UNL     1       1.373   9.922  21.579  0.00  0.00    +0.000 A 
ATOM     24  C   UNL     1       1.545   8.535  21.641  0.00  0.00    +0.000 A 
ATOM     25  C   UNL     1       1.612   7.817  20.435  0.00  0.00    +0.000 A 
ATOM     26  S   UNL     1       1.857   6.130  20.180  0.00  0.00    +0.000 S 
ENDBRANCH   7  18
TORSDOF 2
ENDMDL
MODEL 5
REMARK VINA RESULT:      -6.8      4.284      9.305
REMARK  Name = 
REMARK  2 active torsions:
REMARK  status: ('A' for Active; 'I' for Inactive)
REMARK    1  A    between atoms: C_2  and  C_3
REMARK    2  A    between atoms: C_17  and  C_18
REMARK                            x       y       z     vdW  Elec       q    Type
REMARK                         _______ _______ _______ _____ _____    ______ ____
ROOT
ATOM      1  O   UNL     1       0.426  10.178  18.420  0.00  0.00    +0.000 OA
ATOM      2  C   UNL     1      -0.272  10.204  19.435  0.00  0.00    +0.000 C 
ATOM      3  N   UNL     1       0.033   9.392  20.517  0.00  0.00    +0.000 N 
ATOM      4  C   UNL     1      -0.710   9.273  21.756  0.00  0.00    +0.000 C 
ATOM      5  C   UNL     1       0.330   9.618  22.804  0.00  0.00    +0.000 C 
ATOM      6  C   UNL     1       1.584   8.935  22.263  0.00  0.00    +0.000 C 
ATOM      7  C   UNL     1       1.426   8.980  20.726  0.00  0.00    +0.000 C 
ENDROOT
BRANCH   2   8
ATOM      8  C   UNL     1      -1.510  11.128  19.552  0.00  0.00    +0.000 C 
ATOM      9  C   UNL     1      -1.805  11.882  18.257  0.00  0.00    +0.000 C 
ATOM     10  O   UNL     1      -0.796  12.855  17.953  0.00  0.00    +0.000 OA
ATOM     11  C   UNL     1      -0.499  13.615  19.050  0.00  0.00    +0.000 A 
ATOM     12  C   UNL     1       0.147  14.829  18.817  0.00  0.00    +0.000 A 
ATOM     13  C   UNL     1       0.412  15.690  19.882  0.00  0.00    +0.000 A 
ATOM     14  C   UNL     1       0.043  15.330  21.178  0.00  0.00    +0.000 A 
ATOM     15  C   UNL     1      -0.568  14.095  21.415  0.00  0.00    +0.000 A 
ATOM     16  C   UNL     1      -0.829  13.233  20.350  0.00  0.00    +0.000 A 
ATOM     17  O   UNL     1      -1.432  12.042  20.655  0.00  0.00    +0.000 OA
ENDBRANCH   2   8
BRANCH   7  18
ATOM     18  C   UNL     1       1.742   7.618  20.140  0.00  0.00    +0.000 A 
ATOM     19  N   UNL     1       1.593   6.474  20.780  0.00  0.00    +0.000 NA
ATOM     20  C   UNL     1       2.240   5.456  20.093  0.00  0.00    +0.000 A 
ATOM     21  C   UNL     1       2.366   4.119  20.523  0.00  0.00    +0.000 A 
ATOM     22  C   UNL     1       3.089   3.201  19.753  0.00  0.00    +0.000 A 
ATOM     23  C   UNL     1       3.670   3.597  18.552  0.00  0.00    +0.000 A 
ATOM     24  C   UNL     1       3.548   4.914  18.095  0.00  0.00    +0.000 A 
ATOM     25  C   UNL     1       2.834   5.830  18.886  0.00  0.00    +0.000 A 
ATOM     26  S   UNL     1       2.547   7.509  18.621  0.00  0.00    +0.000 S 
ENDBRANCH   7  18
TORSDOF 2
ENDMDL
MODEL 6
REMARK VINA RESULT:      -6.7      5.281     11.205
REMARK  Name = 
REMARK  2 active torsions:
REMARK  status: ('A' for Active; 'I' for Inactive)
REMARK    1  A    between atoms: C_2  and  C_3
REMARK    2  A    between atoms: C_17  and  C_18
REMARK                            x       y       z     vdW  Elec       q    Type
REMARK                         _______ _______ _______ _____ _____    ______ ____
ROOT
ATOM      1  O   UNL     1       0.315  12.142  21.923  0.00  0.00    +0.000 OA
ATOM      2  C   UNL     1      -0.043  12.741  20.907  0.00  0.00    +0.000 C 
ATOM      3  N   UNL     1      -0.262  12.049  19.725  0.00  0.00    +0.000 N 
ATOM      4  C   UNL     1      -0.639  12.610  18.443  0.00  0.00    +0.000 C 
ATOM      5  C   UNL     1      -1.925  11.874  18.122  0.00  0.00    +0.000 C 
ATOM      6  C   UNL     1      -1.622  10.456  18.598  0.00  0.00    +0.000 C 
ATOM      7  C   UNL     1      -0.656  10.637  19.791  0.00  0.00    +0.000 C 
ENDROOT
BRANCH   2   8
ATOM      8  C   UNL     1      -0.260  14.275  20.897  0.00  0.00    +0.000 C 
ATOM      9  C   UNL     1       0.521  14.987  22.001  0.00  0.00    +0.000 C 
ATOM     10  O   UNL     1       0.022  14.673  23.308  0.00  0.00    +0.000 OA
ATOM     11  C   UNL     1      -1.341  14.782  23.354  0.00  0.00    +0.000 A 
ATOM     12  C   UNL     1      -1.919  14.900  24.618  0.00  0.00    +0.000 A 
ATOM     13  C   UNL     1      -3.295  15.092  24.736  0.00  0.00    +0.000 A 
ATOM     14  C   UNL     1      -4.092  15.151  23.592  0.00  0.00    +0.000 A 
ATOM     15  C   UNL     1      -3.516  14.992  22.329  0.00  0.00    +0.000 A 
ATOM     16  C   UNL     1      -2.140  14.796  22.211  0.00  0.00    +0.000 A 
ATOM     17  O   UNL     1      -1.644  14.651  20.943  0.00  0.00    +0.000 OA
ENDBRANCH   2   8
BRANCH   7  18
ATOM     18  C   UNL     1       0.511   9.682  19.653  0.00  0.00    +0.000 A 
ATOM     19  N   UNL     1       1.247   9.549  18.566  0.00  0.00    +0.000 NA
ATOM     20  C   UNL     1       2.028   8.405  18.655  0.00  0.00    +0.000 A 
ATOM     21  C   UNL     1       2.871   7.899  17.644  0.00  0.00    +0.000 A 
ATOM     22  C   UNL     1       3.569   6.704  17.848  0.00  0.00    +0.000 A 
ATOM     23  C   UNL     1       3.449   6.018  19.053  0.00  0.00    +0.000 A 
ATOM     24  C   UNL     1       2.630   6.505  20.078  0.00  0.00    +0.000 A 
ATOM     25  C   UNL     1       1.922   7.698  19.854  0.00  0.00    +0.000 A 
ATOM     26  S   UNL     1       0.814   8.521  20.889  0.00  0.00    +0.000 S 
ENDBRANCH   7  18
TORSDOF 2
ENDMDL
MODEL 7
REMARK VINA RESULT:      -6.6      9.028     12.837
REMARK  Name = 
REMARK  2 active torsions:
REMARK  status: ('A' for Active; 'I' for Inactive)
REMARK    1  A    between atoms: C_2  and  C_3
REMARK    2  A    between atoms: C_17  and  C_18
REMARK                            x       y       z     vdW  Elec       q    Type
REMARK                         _______ _______ _______ _____ _____    ______ ____
ROOT
ATOM      1  O   UNL     1      -3.418  12.783  21.303  0.00  0.00    +0.000 OA
ATOM      2  C   UNL     1      -3.901  12.391  20.240  0.00  0.00    +0.000 C 
ATOM      3  N   UNL     1      -3.075  12.011  19.192  0.00  0.00    +0.000 N 
ATOM      4  C   UNL     1      -3.485  11.574  17.872  0.00  0.00    +0.000 C 
ATOM      5  C   UNL     1      -2.841  10.206  17.759  0.00  0.00    +0.000 C 
ATOM      6  C   UNL     1      -1.481  10.425  18.416  0.00  0.00    +0.000 C 
ATOM      7  C   UNL     1      -1.732  11.503  19.495  0.00  0.00    +0.000 C 
ENDROOT
BRANCH   2   8
ATOM      8  C   UNL     1      -5.432  12.308  20.019  0.00  0.00    +0.000 C 
ATOM      9  C   UNL     1      -6.027  13.623  19.518  0.00  0.00    +0.000 C 
ATOM     10  O   UNL     1      -5.973  14.657  20.510  0.00  0.00    +0.000 OA
ATOM     11  C   UNL     1      -6.424  14.202  21.719  0.00  0.00    +0.000 A 
ATOM     12  C   UNL     1      -6.803  15.168  22.652  0.00  0.00    +0.000 A 
ATOM     13  C   UNL     1      -7.343  14.776  23.876  0.00  0.00    +0.000 A 
ATOM     14  C   UNL     1      -7.492  13.420  24.171  0.00  0.00    +0.000 A 
ATOM     15  C   UNL     1      -7.074  12.454  23.251  0.00  0.00    +0.000 A 
ATOM     16  C   UNL     1      -6.530  12.847  22.029  0.00  0.00    +0.000 A 
ATOM     17  O   UNL     1      -6.146  11.847  21.176  0.00  0.00    +0.000 OA
ENDBRANCH   2   8
BRANCH   7  18
ATOM     18  C   UNL     1      -0.657  12.567  19.413  0.00  0.00    +0.000 A 
ATOM     19  N   UNL     1      -0.887  13.866  19.390  0.00  0.00    +0.000 NA
ATOM     20  C   UNL     1       0.263  14.548  19.016  0.00  0.00    +0.000 A 
ATOM     21  C   UNL     1       0.366  15.938  18.800  0.00  0.00    +0.000 A 
ATOM     22  C   UNL     1       1.580  16.492  18.377  0.00  0.00    +0.000 A 
ATOM     23  C   UNL     1       2.693  15.679  18.184  0.00  0.00    +0.000 A 
ATOM     24  C   UNL     1       2.621  14.299  18.404  0.00  0.00    +0.000 A 
ATOM     25  C   UNL     1       1.392  13.753  18.813  0.00  0.00    +0.000 A 
ATOM     26  S   UNL     1       0.977  12.108  19.120  0.00  0.00    +0.000 S 
ENDBRANCH   7  18
TORSDOF 2
ENDMDL
MODEL 8
REMARK VINA RESULT:      -6.5      7.595      9.938
REMARK  Name = 
REMARK  2 active torsions:
REMARK  status: ('A' for Active; 'I' for Inactive)
REMARK    1  A    between atoms: C_2  and  C_3
REMARK    2  A    between atoms: C_17  and  C_18
REMARK                            x       y       z     vdW  Elec       q    Type
REMARK                         _______ _______ _______ _____ _____    ______ ____
ROOT
ATOM      1  O   UNL     1      -0.768  14.195  19.454  0.00  0.00    +0.000 OA
ATOM      2  C   UNL     1      -0.198  13.156  19.791  0.00  0.00    +0.000 C 
ATOM      3  N   UNL     1      -0.759  11.922  19.496  0.00  0.00    +0.000 N 
ATOM      4  C   UNL     1      -0.241  10.618  19.862  0.00  0.00    +0.000 C 
ATOM      5  C   UNL     1      -0.101   9.927  18.521  0.00  0.00    +0.000 C 
ATOM      6  C   UNL     1      -1.352  10.387  17.778  0.00  0.00    +0.000 C 
ATOM      7  C   UNL     1      -1.641  11.803  18.329  0.00  0.00    +0.000 C 
ENDROOT
BRANCH   2   8
ATOM      8  C   UNL     1       1.149  13.174  20.555  0.00  0.00    +0.000 C 
ATOM      9  C   UNL     1       1.302  14.401  21.451  0.00  0.00    +0.000 C 
ATOM     10  O   UNL     1       1.428  15.613  20.695  0.00  0.00    +0.000 OA
ATOM     11  C   UNL     1       2.343  15.472  19.687  0.00  0.00    +0.000 A 
ATOM     12  C   UNL     1       2.858  16.646  19.137  0.00  0.00    +0.000 A 
ATOM     13  C   UNL     1       3.850  16.577  18.160  0.00  0.00    +0.000 A 
ATOM     14  C   UNL     1       4.316  15.336  17.725  0.00  0.00    +0.000 A 
ATOM     15  C   UNL     1       3.771  14.161  18.249  0.00  0.00    +0.000 A 
ATOM     16  C   UNL     1       2.775  14.230  19.223  0.00  0.00    +0.000 A 
ATOM     17  O   UNL     1       2.289  13.039  19.693  0.00  0.00    +0.000 OA
ENDBRANCH   2   8
BRANCH   7  18
ATOM     18  C   UNL     1      -3.111  11.928  18.673  0.00  0.00    +0.000 A 
ATOM     19  N   UNL     1      -3.577  12.429  19.801  0.00  0.00    +0.000 NA
ATOM     20  C   UNL     1      -4.927  12.132  19.933  0.00  0.00    +0.000 A 
ATOM     21  C   UNL     1      -5.733  12.431  21.050  0.00  0.00    +0.000 A 
ATOM     22  C   UNL     1      -7.074  12.031  21.073  0.00  0.00    +0.000 A 
ATOM     23  C   UNL     1      -7.622  11.352  19.989  0.00  0.00    +0.000 A 
ATOM     24  C   UNL     1      -6.848  11.054  18.862  0.00  0.00    +0.000 A 
ATOM     25  C   UNL     1      -5.498  11.448  18.858  0.00  0.00    +0.000 A 
ATOM     26  S   UNL     1      -4.290  11.193  17.655  0.00  0.00    +0.000 S 
ENDBRANCH   7  18
TORSDOF 2
ENDMDL
MODEL 9
REMARK VINA RESULT:      -6.5      5.110     10.989
REMARK  Name = 
REMARK  2 active torsions:
REMARK  status: ('A' for Active; 'I' for Inactive)
REMARK    1  A    between atoms: C_2  and  C_3
REMARK    2  A    between atoms: C_17  and  C_18
REMARK                            x       y       z     vdW  Elec       q    Type
REMARK                         _______ _______ _______ _____ _____    ______ ____
ROOT
ATOM      1  O   UNL     1       0.047  11.420  22.051  0.00  0.00    +0.000 OA
ATOM      2  C   UNL     1      -0.182  12.161  21.094  0.00  0.00    +0.000 C 
ATOM      3  N   UNL     1      -0.198  11.655  19.802  0.00  0.00    +0.000 N 
ATOM      4  C   UNL     1      -0.404  12.399  18.576  0.00  0.00    +0.000 C 
ATOM      5  C   UNL     1      -1.598  11.700  17.958  0.00  0.00    +0.000 C 
ATOM      6  C   UNL     1      -1.313  10.231  18.258  0.00  0.00    +0.000 C 
ATOM      7  C   UNL     1      -0.541  10.243  19.597  0.00  0.00    +0.000 C 
ENDROOT
BRANCH   2   8
ATOM      8  C   UNL     1      -0.455  13.675  21.280  0.00  0.00    +0.000 C 
ATOM      9  C   UNL     1      -0.253  14.136  22.722  0.00  0.00    +0.000 C 
ATOM     10  O   UNL     1      -1.239  13.593  23.610  0.00  0.00    +0.000 OA
ATOM     11  C   UNL     1      -2.498  13.735  23.093  0.00  0.00    +0.000 A 
ATOM     12  C   UNL     1      -3.561  13.627  23.989  0.00  0.00    +0.000 A 
ATOM     13  C   UNL     1      -4.866  13.835  23.546  0.00  0.00    +0.000 A 
ATOM     14  C   UNL     1      -5.108  14.138  22.206  0.00  0.00    +0.000 A 
ATOM     15  C   UNL     1      -4.044  14.206  21.301  0.00  0.00    +0.000 A 
ATOM     16  C   UNL     1      -2.739  13.993  21.744  0.00  0.00    +0.000 A 
ATOM     17  O   UNL     1      -1.747  14.079  20.804  0.00  0.00    +0.000 OA
ENDBRANCH   2   8
BRANCH   7  18
ATOM     18  C   UNL     1       0.672   9.340  19.496  0.00  0.00    +0.000 A 
ATOM     19  N   UNL     1       1.456   9.254  18.438  0.00  0.00    +0.000 NA
ATOM     20  C   UNL     1       2.281   8.143  18.546  0.00  0.00    +0.000 A 
ATOM     21  C   UNL     1       3.186   7.688  17.565  0.00  0.00    +0.000 A 
ATOM     22  C   UNL     1       3.927   6.520  17.783  0.00  0.00    +0.000 A 
ATOM     23  C   UNL     1       3.786   5.813  18.974  0.00  0.00    +0.000 A 
ATOM     24  C   UNL     1       2.906   6.250  19.970  0.00  0.00    +0.000 A 
ATOM     25  C   UNL     1       2.157   7.416  19.731  0.00  0.00    +0.000 A 
ATOM     26  S   UNL     1       0.974   8.176  20.729  0.00  0.00    +0.000 S 
ENDBRANCH   7  18
TORSDOF 2
ENDMDL
