MODEL 1
REMARK VINA RESULT:      -8.2      0.000      0.000
REMARK  Name = 
REMARK  3 active torsions:
REMARK  status: ('A' for Active; 'I' for Inactive)
REMARK    1  A    between atoms: C_2  and  C_21
REMARK    2  A    between atoms: C_9  and  C_10
REMARK    3  A    between atoms: C_13  and  O_14
REMARK                            x       y       z     vdW  Elec       q    Type
REMARK                         _______ _______ _______ _____ _____    ______ ____
ROOT
ATOM      1  O   UNL     1      -0.932  12.608  20.585  0.00  0.00    +0.000 OA
ATOM      2  C   UNL     1      -0.721  11.701  21.375  0.00  0.00    +0.000 C 
ATOM      3  N   UNL     1      -0.029  10.529  21.158  0.00  0.00    +0.000 N 
ATOM      4  C   UNL     1       0.621  10.221  19.976  0.00  0.00    +0.000 A 
ATOM      5  N   UNL     1       0.689  11.027  18.912  0.00  0.00    +0.000 NA
ATOM      6  N   UNL     1       1.406  10.342  18.008  0.00  0.00    +0.000 N 
ATOM      7  C   UNL     1       1.826   9.123  18.449  0.00  0.00    +0.000 A 
ATOM      8  N   UNL     1       2.570   8.237  17.763  0.00  0.00    +0.000 NA
ATOM      9  C   UNL     1       2.814   7.068  18.425  0.00  0.00    +0.000 A 
ATOM     10  C   UNL     1       2.306   6.815  19.719  0.00  0.00    +0.000 A 
ATOM     11 BR   UNL     1       2.423   5.146  20.634  0.00  0.00    +0.000 Br
ATOM     12  C   UNL     1       1.572   7.800  20.401  0.00  0.00    +0.000 A 
ATOM     13  C   UNL     1       1.316   8.999  19.729  0.00  0.00    +0.000 A 
ATOM     14  H   UNL     1       0.015   9.841  21.892  0.00  0.00    +0.000 HD
ATOM     15  H   UNL     1       1.575  10.759  17.100  0.00  0.00    +0.000 HD
ENDROOT
BRANCH   9  16
ATOM     16  C   UNL     1       3.616   6.101  17.619  0.00  0.00    +0.000 A 
ATOM     17  C   UNL     1       4.743   6.486  16.868  0.00  0.00    +0.000 A 
ATOM     18  C   UNL     1       5.565   5.550  16.232  0.00  0.00    +0.000 A 
ATOM     19  C   UNL     1       5.223   4.206  16.269  0.00  0.00    +0.000 A 
ATOM     20  C   UNL     1       4.060   3.795  16.900  0.00  0.00    +0.000 A 
ATOM     21  C   UNL     1       3.266   4.735  17.571  0.00  0.00    +0.000 A 
BRANCH  19  22
ATOM     22  O   UNL     1       6.011   3.258  15.688  0.00  0.00    +0.000 OA
ATOM     23  H   UNL     1       5.484   2.783  15.024  0.00  0.00    +0.000 HD
ENDBRANCH  19  22
ENDBRANCH   9  16
BRANCH   2  24
ATOM     24  C   UNL     1      -1.282  11.807  22.763  0.00  0.00    +0.000 C 
ATOM     25  C   UNL     1      -1.544  13.180  23.355  0.00  0.00    +0.000 C 
ATOM     26  C   UNL     1      -2.696  12.306  22.960  0.00  0.00    +0.000 C 
ENDBRANCH   2  24
TORSDOF 3
ENDMDL
MODEL 2
REMARK VINA RESULT:      -8.1      0.379      1.054
REMARK  Name = 
REMARK  3 active torsions:
REMARK  status: ('A' for Active; 'I' for Inactive)
REMARK    1  A    between atoms: C_2  and  C_21
REMARK    2  A    between atoms: C_9  and  C_10
REMARK    3  A    between atoms: C_13  and  O_14
REMARK                            x       y       z     vdW  Elec       q    Type
REMARK                         _______ _______ _______ _____ _____    ______ ____
ROOT
ATOM      1  O   UNL     1      -1.016  12.508  20.097  0.00  0.00    +0.000 OA
ATOM      2  C   UNL     1      -0.862  11.646  20.949  0.00  0.00    +0.000 C 
ATOM      3  N   UNL     1      -0.153  10.469  20.847  0.00  0.00    +0.000 N 
ATOM      4  C   UNL     1       0.584  10.102  19.734  0.00  0.00    +0.000 A 
ATOM      5  N   UNL     1       0.729  10.849  18.636  0.00  0.00    +0.000 NA
ATOM      6  N   UNL     1       1.513  10.122  17.826  0.00  0.00    +0.000 N 
ATOM      7  C   UNL     1       1.902   8.931  18.363  0.00  0.00    +0.000 A 
ATOM      8  N   UNL     1       2.696   8.014  17.782  0.00  0.00    +0.000 NA
ATOM      9  C   UNL     1       2.894   6.884  18.523  0.00  0.00    +0.000 A 
ATOM     10  C   UNL     1       2.292   6.698  19.788  0.00  0.00    +0.000 A 
ATOM     11 BR   UNL     1       2.345   5.082  20.798  0.00  0.00    +0.000 Br
ATOM     12  C   UNL     1       1.506   7.713  20.359  0.00  0.00    +0.000 A 
ATOM     13  C   UNL     1       1.298   8.873  19.606  0.00  0.00    +0.000 A 
ATOM     14  H   UNL     1      -0.162   9.822  21.618  0.00  0.00    +0.000 HD
ATOM     15  H   UNL     1       1.747  10.490  16.913  0.00  0.00    +0.000 HD
ENDROOT
BRANCH   9  16
ATOM     16  C   UNL     1       3.755   5.881  17.832  0.00  0.00    +0.000 A 
ATOM     17  C   UNL     1       3.324   4.569  17.554  0.00  0.00    +0.000 A 
ATOM     18  C   UNL     1       4.088   3.686  16.784  0.00  0.00    +0.000 A 
ATOM     19  C   UNL     1       5.344   4.075  16.344  0.00  0.00    +0.000 A 
ATOM     20  C   UNL     1       5.855   5.316  16.692  0.00  0.00    +0.000 A 
ATOM     21  C   UNL     1       5.066   6.210  17.426  0.00  0.00    +0.000 A 
BRANCH  19  22
ATOM     22  O   UNL     1       6.108   3.257  15.568  0.00  0.00    +0.000 OA
ATOM     23  H   UNL     1       6.886   3.755  15.266  0.00  0.00    +0.000 HD
ENDBRANCH  19  22
ENDBRANCH   9  16
BRANCH   2  24
ATOM     24  C   UNL     1      -1.524  11.823  22.283  0.00  0.00    +0.000 C 
ATOM     25  C   UNL     1      -1.203  13.053  23.114  0.00  0.00    +0.000 C 
ATOM     26  C   UNL     1      -2.549  12.920  22.468  0.00  0.00    +0.000 C 
ENDBRANCH   2  24
TORSDOF 3
ENDMDL
MODEL 3
REMARK VINA RESULT:      -7.8      2.354      8.713
REMARK  Name = 
REMARK  3 active torsions:
REMARK  status: ('A' for Active; 'I' for Inactive)
REMARK    1  A    between atoms: C_2  and  C_21
REMARK    2  A    between atoms: C_9  and  C_10
REMARK    3  A    between atoms: C_13  and  O_14
REMARK                            x       y       z     vdW  Elec       q    Type
REMARK                         _______ _______ _______ _____ _____    ______ ____
ROOT
ATOM      1  O   UNL     1       4.787   3.621  17.447  0.00  0.00    +0.000 OA
ATOM      2  C   UNL     1       4.697   4.668  16.826  0.00  0.00    +0.000 C 
ATOM      3  N   UNL     1       4.022   5.814  17.187  0.00  0.00    +0.000 N 
ATOM      4  C   UNL     1       3.370   5.981  18.397  0.00  0.00    +0.000 A 
ATOM      5  N   UNL     1       3.339   5.073  19.376  0.00  0.00    +0.000 NA
ATOM      6  N   UNL     1       2.612   5.642  20.350  0.00  0.00    +0.000 N 
ATOM      7  C   UNL     1       2.182   6.900  20.050  0.00  0.00    +0.000 A 
ATOM      8  N   UNL     1       1.452   7.705  20.842  0.00  0.00    +0.000 NA
ATOM      9  C   UNL     1       1.116   8.903  20.278  0.00  0.00    +0.000 A 
ATOM     10  C   UNL     1       1.496   9.248  18.961  0.00  0.00    +0.000 A 
ATOM     11 BR   UNL     1       0.907  10.800  18.023  0.00  0.00    +0.000 Br
ATOM     12  C   UNL     1       2.296   8.380  18.200  0.00  0.00    +0.000 A 
ATOM     13  C   UNL     1       2.643   7.151  18.770  0.00  0.00    +0.000 A 
ATOM     14  H   UNL     1       3.986   6.588  16.543  0.00  0.00    +0.000 HD
ATOM     15  H   UNL     1       2.440   5.120  21.200  0.00  0.00    +0.000 HD
ENDROOT
BRANCH   9  16
ATOM     16  C   UNL     1       0.283   9.754  21.177  0.00  0.00    +0.000 A 
ATOM     17  C   UNL     1      -0.280  10.976  20.761  0.00  0.00    +0.000 A 
ATOM     18  C   UNL     1      -1.172  11.692  21.566  0.00  0.00    +0.000 A 
ATOM     19  C   UNL     1      -1.454  11.236  22.846  0.00  0.00    +0.000 A 
ATOM     20  C   UNL     1      -0.832  10.099  23.337  0.00  0.00    +0.000 A 
ATOM     21  C   UNL     1       0.026   9.365  22.508  0.00  0.00    +0.000 A 
BRANCH  19  22
ATOM     22  O   UNL     1      -2.338  11.887  23.652  0.00  0.00    +0.000 OA
ATOM     23  H   UNL     1      -3.187  11.959  23.186  0.00  0.00    +0.000 HD
ENDBRANCH  19  22
ENDBRANCH   9  16
BRANCH   2  24
ATOM     24  C   UNL     1       5.363   4.774  15.485  0.00  0.00    +0.000 C 
ATOM     25  C   UNL     1       6.861   5.015  15.418  0.00  0.00    +0.000 C 
ATOM     26  C   UNL     1       6.302   3.678  15.032  0.00  0.00    +0.000 C 
ENDBRANCH   2  24
TORSDOF 3
ENDMDL
MODEL 4
REMARK VINA RESULT:      -7.6      2.331      8.753
REMARK  Name = 
REMARK  3 active torsions:
REMARK  status: ('A' for Active; 'I' for Inactive)
REMARK    1  A    between atoms: C_2  and  C_21
REMARK    2  A    between atoms: C_9  and  C_10
REMARK    3  A    between atoms: C_13  and  O_14
REMARK                            x       y       z     vdW  Elec       q    Type
REMARK                         _______ _______ _______ _____ _____    ______ ____
ROOT
ATOM      1  O   UNL     1       4.741   3.588  17.554  0.00  0.00    +0.000 OA
ATOM      2  C   UNL     1       4.665   4.630  16.922  0.00  0.00    +0.000 C 
ATOM      3  N   UNL     1       3.986   5.780  17.261  0.00  0.00    +0.000 N 
ATOM      4  C   UNL     1       3.314   5.960  18.457  0.00  0.00    +0.000 A 
ATOM      5  N   UNL     1       3.264   5.061  19.445  0.00  0.00    +0.000 NA
ATOM      6  N   UNL     1       2.523   5.642  20.400  0.00  0.00    +0.000 N 
ATOM      7  C   UNL     1       2.100   6.897  20.081  0.00  0.00    +0.000 A 
ATOM      8  N   UNL     1       1.360   7.713  20.853  0.00  0.00    +0.000 NA
ATOM      9  C   UNL     1       1.036   8.906  20.273  0.00  0.00    +0.000 A 
ATOM     10  C   UNL     1       1.440   9.238  18.959  0.00  0.00    +0.000 A 
ATOM     11 BR   UNL     1       0.871  10.782  17.997  0.00  0.00    +0.000 Br
ATOM     12  C   UNL     1       2.250   8.360  18.220  0.00  0.00    +0.000 A 
ATOM     13  C   UNL     1       2.584   7.136  18.807  0.00  0.00    +0.000 A 
ATOM     14  H   UNL     1       3.964   6.548  16.609  0.00  0.00    +0.000 HD
ATOM     15  H   UNL     1       2.334   5.128  21.253  0.00  0.00    +0.000 HD
ENDROOT
BRANCH   9  16
ATOM     16  C   UNL     1       0.190   9.767  21.149  0.00  0.00    +0.000 A 
ATOM     17  C   UNL     1      -0.224   9.371  22.434  0.00  0.00    +0.000 A 
ATOM     18  C   UNL     1      -0.897  10.243  23.297  0.00  0.00    +0.000 A 
ATOM     19  C   UNL     1      -1.243  11.510  22.853  0.00  0.00    +0.000 A 
ATOM     20  C   UNL     1      -0.955  11.901  21.555  0.00  0.00    +0.000 A 
ATOM     21  C   UNL     1      -0.242  11.038  20.713  0.00  0.00    +0.000 A 
BRANCH  19  22
ATOM     22  O   UNL     1      -1.873  12.400  23.670  0.00  0.00    +0.000 OA
ATOM     23  H   UNL     1      -2.774  12.543  23.336  0.00  0.00    +0.000 HD
ENDBRANCH  19  22
ENDBRANCH   9  16
BRANCH   2  24
ATOM     24  C   UNL     1       5.354   4.721  15.592  0.00  0.00    +0.000 C 
ATOM     25  C   UNL     1       6.846   4.999  15.547  0.00  0.00    +0.000 C 
ATOM     26  C   UNL     1       6.329   3.639  15.182  0.00  0.00    +0.000 C 
ENDBRANCH   2  24
TORSDOF 3
ENDMDL
MODEL 5
REMARK VINA RESULT:      -7.5      2.628      3.487
REMARK  Name = 
REMARK  3 active torsions:
REMARK  status: ('A' for Active; 'I' for Inactive)
REMARK    1  A    between atoms: C_2  and  C_21
REMARK    2  A    between atoms: C_9  and  C_10
REMARK    3  A    between atoms: C_13  and  O_14
REMARK                            x       y       z     vdW  Elec       q    Type
REMARK                         _______ _______ _______ _____ _____    ______ ____
ROOT
ATOM      1  O   UNL     1       0.278  12.344  20.561  0.00  0.00    +0.000 OA
ATOM      2  C   UNL     1       0.900  12.222  19.517  0.00  0.00    +0.000 C 
ATOM      3  N   UNL     1       1.472  11.080  18.999  0.00  0.00    +0.000 N 
ATOM      4  C   UNL     1       1.363   9.827  19.577  0.00  0.00    +0.000 A 
ATOM      5  N   UNL     1       0.669   9.558  20.686  0.00  0.00    +0.000 NA
ATOM      6  N   UNL     1       0.830   8.241  20.882  0.00  0.00    +0.000 N 
ATOM      7  C   UNL     1       1.591   7.633  19.929  0.00  0.00    +0.000 A 
ATOM      8  N   UNL     1       1.902   6.326  19.867  0.00  0.00    +0.000 NA
ATOM      9  C   UNL     1       2.721   5.986  18.829  0.00  0.00    +0.000 A 
ATOM     10  C   UNL     1       3.210   6.943  17.911  0.00  0.00    +0.000 A 
ATOM     11 BR   UNL     1       4.511   6.598  16.560  0.00  0.00    +0.000 Br
ATOM     12  C   UNL     1       2.813   8.287  18.004  0.00  0.00    +0.000 A 
ATOM     13  C   UNL     1       1.976   8.643  19.065  0.00  0.00    +0.000 A 
ATOM     14  H   UNL     1       2.009  11.141  18.149  0.00  0.00    +0.000 HD
ATOM     15  H   UNL     1       0.397   7.809  21.689  0.00  0.00    +0.000 HD
ENDROOT
BRANCH   9  16
ATOM     16  C   UNL     1       3.066   4.534  18.813  0.00  0.00    +0.000 A 
ATOM     17  C   UNL     1       2.449   3.615  17.943  0.00  0.00    +0.000 A 
ATOM     18  C   UNL     1       2.880   2.287  17.841  0.00  0.00    +0.000 A 
ATOM     19  C   UNL     1       3.890   1.832  18.675  0.00  0.00    +0.000 A 
ATOM     20  C   UNL     1       4.447   2.674  19.626  0.00  0.00    +0.000 A 
ATOM     21  C   UNL     1       4.040   4.013  19.691  0.00  0.00    +0.000 A 
BRANCH  19  22
ATOM     22  O   UNL     1       4.359   0.557  18.590  0.00  0.00    +0.000 OA
ATOM     23  H   UNL     1       3.712  -0.040  19.001  0.00  0.00    +0.000 HD
ENDBRANCH  19  22
ENDBRANCH   9  16
BRANCH   2  24
ATOM     24  C   UNL     1       1.123  13.434  18.662  0.00  0.00    +0.000 C 
ATOM     25  C   UNL     1       2.006  14.555  19.180  0.00  0.00    +0.000 C 
ATOM     26  C   UNL     1       2.489  13.682  18.061  0.00  0.00    +0.000 C 
ENDBRANCH   2  24
TORSDOF 3
ENDMDL
MODEL 6
REMARK VINA RESULT:      -7.5      2.515      3.311
REMARK  Name = 
REMARK  3 active torsions:
REMARK  status: ('A' for Active; 'I' for Inactive)
REMARK    1  A    between atoms: C_2  and  C_21
REMARK    2  A    between atoms: C_9  and  C_10
REMARK    3  A    between atoms: C_13  and  O_14
REMARK                            x       y       z     vdW  Elec       q    Type
REMARK                         _______ _______ _______ _____ _____    ______ ____
ROOT
ATOM      1  O   UNL     1       0.049  12.110  21.043  0.00  0.00    +0.000 OA
ATOM      2  C   UNL     1       0.617  12.079  19.962  0.00  0.00    +0.000 C 
ATOM      3  N   UNL     1       1.223  11.001  19.353  0.00  0.00    +0.000 N 
ATOM      4  C   UNL     1       1.217   9.716  19.867  0.00  0.00    +0.000 A 
ATOM      5  N   UNL     1       0.601   9.350  20.995  0.00  0.00    +0.000 NA
ATOM      6  N   UNL     1       0.847   8.036  21.110  0.00  0.00    +0.000 N 
ATOM      7  C   UNL     1       1.587   7.524  20.087  0.00  0.00    +0.000 A 
ATOM      8  N   UNL     1       1.967   6.242  19.938  0.00  0.00    +0.000 NA
ATOM      9  C   UNL     1       2.744   6.004  18.840  0.00  0.00    +0.000 A 
ATOM     10  C   UNL     1       3.126   7.035  17.951  0.00  0.00    +0.000 A 
ATOM     11 BR   UNL     1       4.367   6.837  16.517  0.00  0.00    +0.000 Br
ATOM     12  C   UNL     1       2.660   8.347  18.138  0.00  0.00    +0.000 A 
ATOM     13  C   UNL     1       1.865   8.598  19.260  0.00  0.00    +0.000 A 
ATOM     14  H   UNL     1       1.707  11.137  18.481  0.00  0.00    +0.000 HD
ATOM     15  H   UNL     1       0.484   7.539  21.915  0.00  0.00    +0.000 HD
ENDROOT
BRANCH   9  16
ATOM     16  C   UNL     1       3.169   4.579  18.727  0.00  0.00    +0.000 A 
ATOM     17  C   UNL     1       4.162   4.013  19.549  0.00  0.00    +0.000 A 
ATOM     18  C   UNL     1       4.449   2.643  19.528  0.00  0.00    +0.000 A 
ATOM     19  C   UNL     1       3.800   1.824  18.616  0.00  0.00    +0.000 A 
ATOM     20  C   UNL     1       2.898   2.360  17.710  0.00  0.00    +0.000 A 
ATOM     21  C   UNL     1       2.584   3.724  17.769  0.00  0.00    +0.000 A 
BRANCH  19  22
ATOM     22  O   UNL     1       4.029   0.482  18.581  0.00  0.00    +0.000 OA
ATOM     23  H   UNL     1       3.701   0.134  17.735  0.00  0.00    +0.000 HD
ENDBRANCH  19  22
ENDBRANCH   9  16
BRANCH   2  24
ATOM     24  C   UNL     1       0.724  13.344  19.164  0.00  0.00    +0.000 C 
ATOM     25  C   UNL     1       1.799  14.356  19.517  0.00  0.00    +0.000 C 
ATOM     26  C   UNL     1       1.914  13.555  18.255  0.00  0.00    +0.000 C 
ENDBRANCH   2  24
TORSDOF 3
ENDMDL
MODEL 7
REMARK VINA RESULT:      -7.5      2.536      3.214
REMARK  Name = 
REMARK  3 active torsions:
REMARK  status: ('A' for Active; 'I' for Inactive)
REMARK    1  A    between atoms: C_2  and  C_21
REMARK    2  A    between atoms: C_9  and  C_10
REMARK    3  A    between atoms: C_13  and  O_14
REMARK                            x       y       z     vdW  Elec       q    Type
REMARK                         _______ _______ _______ _____ _____    ______ ____
ROOT
ATOM      1  O   UNL     1       0.064  12.142  21.464  0.00  0.00    +0.000 OA
ATOM      2  C   UNL     1       0.634  12.101  20.384  0.00  0.00    +0.000 C 
ATOM      3  N   UNL     1       1.187  11.005  19.758  0.00  0.00    +0.000 N 
ATOM      4  C   UNL     1       1.115   9.713  20.250  0.00  0.00    +0.000 A 
ATOM      5  N   UNL     1       0.479   9.358  21.369  0.00  0.00    +0.000 NA
ATOM      6  N   UNL     1       0.658   8.032  21.462  0.00  0.00    +0.000 N 
ATOM      7  C   UNL     1       1.376   7.502  20.432  0.00  0.00    +0.000 A 
ATOM      8  N   UNL     1       1.692   6.206  20.261  0.00  0.00    +0.000 NA
ATOM      9  C   UNL     1       2.460   5.949  19.162  0.00  0.00    +0.000 A 
ATOM     10  C   UNL     1       2.896   6.974  18.291  0.00  0.00    +0.000 A 
ATOM     11 BR   UNL     1       4.130   6.740  16.857  0.00  0.00    +0.000 Br
ATOM     12  C   UNL     1       2.495   8.304  18.500  0.00  0.00    +0.000 A 
ATOM     13  C   UNL     1       1.710   8.575  19.625  0.00  0.00    +0.000 A 
ATOM     14  H   UNL     1       1.680  11.132  18.889  0.00  0.00    +0.000 HD
ATOM     15  H   UNL     1       0.269   7.540  22.257  0.00  0.00    +0.000 HD
ENDROOT
BRANCH   9  16
ATOM     16  C   UNL     1       2.814   4.506  19.025  0.00  0.00    +0.000 A 
ATOM     17  C   UNL     1       2.049   3.604  18.260  0.00  0.00    +0.000 A 
ATOM     18  C   UNL     1       2.469   2.290  18.027  0.00  0.00    +0.000 A 
ATOM     19  C   UNL     1       3.629   1.827  18.629  0.00  0.00    +0.000 A 
ATOM     20  C   UNL     1       4.352   2.647  19.482  0.00  0.00    +0.000 A 
ATOM     21  C   UNL     1       3.948   3.975  19.675  0.00  0.00    +0.000 A 
BRANCH  19  22
ATOM     22  O   UNL     1       4.089   0.564  18.406  0.00  0.00    +0.000 OA
ATOM     23  H   UNL     1       3.877   0.315  17.491  0.00  0.00    +0.000 HD
ENDBRANCH  19  22
ENDBRANCH   9  16
BRANCH   2  24
ATOM     24  C   UNL     1       0.805  13.373  19.608  0.00  0.00    +0.000 C 
ATOM     25  C   UNL     1      -0.231  13.752  18.566  0.00  0.00    +0.000 C 
ATOM     26  C   UNL     1      -0.145  14.526  19.847  0.00  0.00    +0.000 C 
ENDBRANCH   2  24
TORSDOF 3
ENDMDL
MODEL 8
REMARK VINA RESULT:      -7.4      2.455      8.287
REMARK  Name = 
REMARK  3 active torsions:
REMARK  status: ('A' for Active; 'I' for Inactive)
REMARK    1  A    between atoms: C_2  and  C_21
REMARK    2  A    between atoms: C_9  and  C_10
REMARK    3  A    between atoms: C_13  and  O_14
REMARK                            x       y       z     vdW  Elec       q    Type
REMARK                         _______ _______ _______ _____ _____    ______ ____
ROOT
ATOM      1  O   UNL     1       4.153   4.676  18.059  0.00  0.00    +0.000 OA
ATOM      2  C   UNL     1       3.546   4.614  19.117  0.00  0.00    +0.000 C 
ATOM      3  N   UNL     1       2.788   5.596  19.719  0.00  0.00    +0.000 N 
ATOM      4  C   UNL     1       2.533   6.833  19.155  0.00  0.00    +0.000 A 
ATOM      5  N   UNL     1       2.957   7.223  17.950  0.00  0.00    +0.000 NA
ATOM      6  N   UNL     1       2.486   8.471  17.806  0.00  0.00    +0.000 N 
ATOM      7  C   UNL     1       1.752   8.906  18.868  0.00  0.00    +0.000 A 
ATOM      8  N   UNL     1       1.151  10.103  18.988  0.00  0.00    +0.000 NA
ATOM      9  C   UNL     1       0.513  10.302  20.179  0.00  0.00    +0.000 A 
ATOM     10  C   UNL     1       0.508   9.327  21.202  0.00  0.00    +0.000 A 
ATOM     11 BR   UNL     1      -0.178   9.590  22.962  0.00  0.00    +0.000 Br
ATOM     12  C   UNL     1       1.118   8.078  20.998  0.00  0.00    +0.000 A 
ATOM     13  C   UNL     1       1.774   7.868  19.782  0.00  0.00    +0.000 A 
ATOM     14  H   UNL     1       2.389   5.421  20.627  0.00  0.00    +0.000 HD
ATOM     15  H   UNL     1       2.702   8.981  16.958  0.00  0.00    +0.000 HD
ENDROOT
BRANCH   9  16
ATOM     16  C   UNL     1      -0.115  11.651  20.283  0.00  0.00    +0.000 A 
ATOM     17  C   UNL     1       0.623  12.814  20.575  0.00  0.00    +0.000 A 
ATOM     18  C   UNL     1       0.046  14.088  20.531  0.00  0.00    +0.000 A 
ATOM     19  C   UNL     1      -1.310  14.215  20.274  0.00  0.00    +0.000 A 
ATOM     20  C   UNL     1      -2.098  13.088  20.094  0.00  0.00    +0.000 A 
ATOM     21  C   UNL     1      -1.504  11.819  20.096  0.00  0.00    +0.000 A 
BRANCH  19  22
ATOM     22  O   UNL     1      -1.906  15.437  20.194  0.00  0.00    +0.000 OA
ATOM     23  H   UNL     1      -2.362  15.504  19.339  0.00  0.00    +0.000 HD
ENDBRANCH  19  22
ENDBRANCH   9  16
BRANCH   2  24
ATOM     24  C   UNL     1       3.615   3.348  19.918  0.00  0.00    +0.000 C 
ATOM     25  C   UNL     1       2.537   2.294  19.736  0.00  0.00    +0.000 C 
ATOM     26  C   UNL     1       3.922   2.041  19.221  0.00  0.00    +0.000 C 
ENDBRANCH   2  24
TORSDOF 3
ENDMDL
MODEL 9
REMARK VINA RESULT:      -7.3      2.114      8.656
REMARK  Name = 
REMARK  3 active torsions:
REMARK  status: ('A' for Active; 'I' for Inactive)
REMARK    1  A    between atoms: C_2  and  C_21
REMARK    2  A    between atoms: C_9  and  C_10
REMARK    3  A    between atoms: C_13  and  O_14
REMARK                            x       y       z     vdW  Elec       q    Type
REMARK                         _______ _______ _______ _____ _____    ______ ____
ROOT
ATOM      1  O   UNL     1       4.026   6.605  16.921  0.00  0.00    +0.000 OA
ATOM      2  C   UNL     1       3.570   6.222  17.987  0.00  0.00    +0.000 C 
ATOM      3  N   UNL     1       2.753   6.911  18.858  0.00  0.00    +0.000 N 
ATOM      4  C   UNL     1       2.248   8.176  18.610  0.00  0.00    +0.000 A 
ATOM      5  N   UNL     1       2.459   8.873  17.490  0.00  0.00    +0.000 NA
ATOM      6  N   UNL     1       1.792  10.023  17.671  0.00  0.00    +0.000 N 
ATOM      7  C   UNL     1       1.137  10.096  18.864  0.00  0.00    +0.000 A 
ATOM      8  N   UNL     1       0.382  11.120  19.300  0.00  0.00    +0.000 NA
ATOM      9  C   UNL     1      -0.128  10.955  20.557  0.00  0.00    +0.000 A 
ATOM     10  C   UNL     1       0.139   9.803  21.331  0.00  0.00    +0.000 A 
ATOM     11 BR   UNL     1      -0.357   9.575  23.158  0.00  0.00    +0.000 Br
ATOM     12  C   UNL     1       0.900   8.748  20.801  0.00  0.00    +0.000 A 
ATOM     13  C   UNL     1       1.426   8.911  19.516  0.00  0.00    +0.000 A 
ATOM     14  H   UNL     1       2.500   6.486  19.735  0.00  0.00    +0.000 HD
ATOM     15  H   UNL     1       1.823  10.727  16.944  0.00  0.00    +0.000 HD
ENDROOT
BRANCH   9  16
ATOM     16  C   UNL     1      -0.933  12.124  21.015  0.00  0.00    +0.000 A 
ATOM     17  C   UNL     1      -2.233  12.385  20.542  0.00  0.00    +0.000 A 
ATOM     18  C   UNL     1      -3.028  13.402  21.083  0.00  0.00    +0.000 A 
ATOM     19  C   UNL     1      -2.500  14.235  22.058  0.00  0.00    +0.000 A 
ATOM     20  C   UNL     1      -1.185  14.085  22.471  0.00  0.00    +0.000 A 
ATOM     21  C   UNL     1      -0.411  13.037  21.956  0.00  0.00    +0.000 A 
BRANCH  19  22
ATOM     22  O   UNL     1      -3.248  15.218  22.631  0.00  0.00    +0.000 OA
ATOM     23  H   UNL     1      -4.107  15.258  22.179  0.00  0.00    +0.000 HD
ENDBRANCH  19  22
ENDBRANCH   9  16
BRANCH   2  24
ATOM     24  C   UNL     1       3.926   4.848  18.475  0.00  0.00    +0.000 C 
ATOM     25  C   UNL     1       3.055   3.670  18.076  0.00  0.00    +0.000 C 
ATOM     26  C   UNL     1       4.428   3.815  17.490  0.00  0.00    +0.000 C 
ENDBRANCH   2  24
TORSDOF 3
ENDMDL
