MODEL 1
REMARK VINA RESULT:      -7.6      0.000      0.000
REMARK  Name = 
REMARK  8 active torsions:
REMARK  status: ('A' for Active; 'I' for Inactive)
REMARK    1  A    between atoms: C_1  and  N_2
REMARK    2  A    between atoms: C_11  and  S_12
REMARK    3  A    between atoms: S_12  and  C_13
REMARK    4  A    between atoms: C_13  and  C_14
REMARK    5  A    between atoms: N_17  and  C_18
REMARK    6  A    between atoms: C_18  and  C_19
REMARK    7  A    between atoms: C_19  and  O_20
REMARK    8  A    between atoms: O_20  and  C_21
REMARK                            x       y       z     vdW  Elec       q    Type
REMARK                         _______ _______ _______ _____ _____    ______ ____
ROOT
ATOM      1  C   UNL     1       6.099   3.705  13.499  0.00  0.00    +0.000 C 
ATOM      2  N   UNL     1       6.469   4.407  14.712  0.00  0.00    +0.000 N 
ATOM      3  C   UNL     1       7.458   5.381  14.656  0.00  0.00    +0.000 A 
ATOM      4  O   UNL     1       8.142   5.614  13.665  0.00  0.00    +0.000 OA
ATOM      5  N   UNL     1       7.682   6.098  15.807  0.00  0.00    +0.000 N 
ATOM      6  C   UNL     1       7.123   5.900  17.050  0.00  0.00    +0.000 A 
ATOM      7  O   UNL     1       7.574   6.514  17.998  0.00  0.00    +0.000 OA
ATOM      8  C   UNL     1       6.084   4.898  17.050  0.00  0.00    +0.000 A 
ATOM      9  C   UNL     1       5.812   4.186  15.910  0.00  0.00    +0.000 A 
ATOM     10  N   UNL     1       4.897   3.204  16.111  0.00  0.00    +0.000 NA
ATOM     11  C   UNL     1       4.503   3.372  17.359  0.00  0.00    +0.000 A 
ATOM     12  N   UNL     1       5.187   4.408  17.994  0.00  0.00    +0.000 N 
ATOM     13  H   UNL     1       8.432   6.773  15.768  0.00  0.00    +0.000 HD
ENDROOT
BRANCH  11  14
ATOM     14  S   UNL     1       3.307   2.411  18.182  0.00  0.00    +0.000 S 
BRANCH  14  15
ATOM     15  C   UNL     1       1.765   3.368  18.038  0.00  0.00    +0.000 C 
BRANCH  15  16
ATOM     16  C   UNL     1       0.810   3.048  19.176  0.00  0.00    +0.000 C 
ATOM     17  O   UNL     1      -0.001   2.070  19.076  0.00  0.00    +0.000 OA
ATOM     18  O   UNL     1       0.711   3.913  20.092  0.00  0.00    +0.000 OA
ENDBRANCH  15  16
ENDBRANCH  14  15
ENDBRANCH  11  14
BRANCH  12  19
ATOM     19  C   UNL     1       4.925   4.833  19.375  0.00  0.00    +0.000 C 
BRANCH  19  20
ATOM     20  C   UNL     1       3.712   5.725  19.581  0.00  0.00    +0.000 C 
BRANCH  20  21
ATOM     21  O   UNL     1       3.369   6.554  18.465  0.00  0.00    +0.000 OA
BRANCH  21  22
ATOM     22  C   UNL     1       2.474   7.550  18.816  0.00  0.00    +0.000 A 
ATOM     23  C   UNL     1       2.092   8.429  17.804  0.00  0.00    +0.000 A 
ATOM     24  C   UNL     1       1.224   9.492  18.079  0.00  0.00    +0.000 A 
ATOM     25  C   UNL     1       0.720   9.677  19.368  0.00  0.00    +0.000 A 
ATOM     26  C   UNL     1       1.071   8.789  20.377  0.00  0.00    +0.000 A 
ATOM     27  C   UNL     1       1.934   7.728  20.099  0.00  0.00    +0.000 A 
ENDBRANCH  21  22
ENDBRANCH  20  21
ENDBRANCH  19  20
ENDBRANCH  12  19
TORSDOF 7
ENDMDL
MODEL 2
REMARK VINA RESULT:      -7.6      1.469      1.833
REMARK  Name = 
REMARK  8 active torsions:
REMARK  status: ('A' for Active; 'I' for Inactive)
REMARK    1  A    between atoms: C_1  and  N_2
REMARK    2  A    between atoms: C_11  and  S_12
REMARK    3  A    between atoms: S_12  and  C_13
REMARK    4  A    between atoms: C_13  and  C_14
REMARK    5  A    between atoms: N_17  and  C_18
REMARK    6  A    between atoms: C_18  and  C_19
REMARK    7  A    between atoms: C_19  and  O_20
REMARK    8  A    between atoms: O_20  and  C_21
REMARK                            x       y       z     vdW  Elec       q    Type
REMARK                         _______ _______ _______ _____ _____    ______ ____
ROOT
ATOM      1  C   UNL     1       5.908   3.769  13.642  0.00  0.00    +0.000 C 
ATOM      2  N   UNL     1       6.220   4.512  14.848  0.00  0.00    +0.000 N 
ATOM      3  C   UNL     1       7.305   5.377  14.850  0.00  0.00    +0.000 A 
ATOM      4  O   UNL     1       8.112   5.474  13.930  0.00  0.00    +0.000 OA
ATOM      5  N   UNL     1       7.480   6.144  15.976  0.00  0.00    +0.000 N 
ATOM      6  C   UNL     1       6.774   6.086  17.157  0.00  0.00    +0.000 A 
ATOM      7  O   UNL     1       7.184   6.715  18.115  0.00  0.00    +0.000 OA
ATOM      8  C   UNL     1       5.641   5.194  17.096  0.00  0.00    +0.000 A 
ATOM      9  C   UNL     1       5.419   4.438  15.975  0.00  0.00    +0.000 A 
ATOM     10  N   UNL     1       4.389   3.566  16.125  0.00  0.00    +0.000 NA
ATOM     11  C   UNL     1       3.884   3.855  17.309  0.00  0.00    +0.000 A 
ATOM     12  N   UNL     1       4.602   4.860  17.958  0.00  0.00    +0.000 N 
ATOM     13  H   UNL     1       8.297   6.737  15.985  0.00  0.00    +0.000 HD
ENDROOT
BRANCH  11  14
ATOM     14  S   UNL     1       2.512   3.075  18.045  0.00  0.00    +0.000 S 
BRANCH  14  15
ATOM     15  C   UNL     1       3.220   1.693  18.995  0.00  0.00    +0.000 C 
BRANCH  15  16
ATOM     16  C   UNL     1       3.878   2.184  20.274  0.00  0.00    +0.000 C 
ATOM     17  O   UNL     1       5.110   1.945  20.493  0.00  0.00    +0.000 OA
ATOM     18  O   UNL     1       3.107   2.622  21.174  0.00  0.00    +0.000 OA
ENDBRANCH  15  16
ENDBRANCH  14  15
ENDBRANCH  11  14
BRANCH  12  19
ATOM     19  C   UNL     1       4.240   5.400  19.275  0.00  0.00    +0.000 C 
BRANCH  19  20
ATOM     20  C   UNL     1       2.943   6.189  19.340  0.00  0.00    +0.000 C 
BRANCH  20  21
ATOM     21  O   UNL     1       2.815   7.231  18.367  0.00  0.00    +0.000 OA
BRANCH  21  22
ATOM     22  C   UNL     1       2.007   8.262  18.816  0.00  0.00    +0.000 A 
ATOM     23  C   UNL     1       1.671   8.244  20.169  0.00  0.00    +0.000 A 
ATOM     24  C   UNL     1       0.823   9.224  20.700  0.00  0.00    +0.000 A 
ATOM     25  C   UNL     1       0.313  10.235  19.884  0.00  0.00    +0.000 A 
ATOM     26  C   UNL     1       0.666  10.278  18.541  0.00  0.00    +0.000 A 
ATOM     27  C   UNL     1       1.514   9.303  18.015  0.00  0.00    +0.000 A 
ENDBRANCH  21  22
ENDBRANCH  20  21
ENDBRANCH  19  20
ENDBRANCH  12  19
TORSDOF 7
ENDMDL
MODEL 3
REMARK VINA RESULT:      -7.5      1.479      1.588
REMARK  Name = 
REMARK  8 active torsions:
REMARK  status: ('A' for Active; 'I' for Inactive)
REMARK    1  A    between atoms: C_1  and  N_2
REMARK    2  A    between atoms: C_11  and  S_12
REMARK    3  A    between atoms: S_12  and  C_13
REMARK    4  A    between atoms: C_13  and  C_14
REMARK    5  A    between atoms: N_17  and  C_18
REMARK    6  A    between atoms: C_18  and  C_19
REMARK    7  A    between atoms: C_19  and  O_20
REMARK    8  A    between atoms: O_20  and  C_21
REMARK                            x       y       z     vdW  Elec       q    Type
REMARK                         _______ _______ _______ _____ _____    ______ ____
ROOT
ATOM      1  C   UNL     1       5.912   3.812  13.652  0.00  0.00    +0.000 C 
ATOM      2  N   UNL     1       6.240   4.551  14.857  0.00  0.00    +0.000 N 
ATOM      3  C   UNL     1       7.338   5.400  14.853  0.00  0.00    +0.000 A 
ATOM      4  O   UNL     1       8.142   5.485  13.930  0.00  0.00    +0.000 OA
ATOM      5  N   UNL     1       7.529   6.165  15.978  0.00  0.00    +0.000 N 
ATOM      6  C   UNL     1       6.828   6.118  17.162  0.00  0.00    +0.000 A 
ATOM      7  O   UNL     1       7.251   6.741  18.118  0.00  0.00    +0.000 OA
ATOM      8  C   UNL     1       5.681   5.243  17.107  0.00  0.00    +0.000 A 
ATOM      9  C   UNL     1       5.443   4.489  15.987  0.00  0.00    +0.000 A 
ATOM     10  N   UNL     1       4.401   3.633  16.143  0.00  0.00    +0.000 NA
ATOM     11  C   UNL     1       3.906   3.930  17.329  0.00  0.00    +0.000 A 
ATOM     12  N   UNL     1       4.642   4.924  17.974  0.00  0.00    +0.000 N 
ATOM     13  H   UNL     1       8.355   6.746  15.983  0.00  0.00    +0.000 HD
ENDROOT
BRANCH  11  14
ATOM     14  S   UNL     1       2.526   3.171  18.071  0.00  0.00    +0.000 S 
BRANCH  14  15
ATOM     15  C   UNL     1       3.200   1.698  18.902  0.00  0.00    +0.000 C 
BRANCH  15  16
ATOM     16  C   UNL     1       3.808   2.055  20.248  0.00  0.00    +0.000 C 
ATOM     17  O   UNL     1       3.113   2.668  21.122  0.00  0.00    +0.000 OA
ATOM     18  O   UNL     1       5.060   1.921  20.358  0.00  0.00    +0.000 OA
ENDBRANCH  15  16
ENDBRANCH  14  15
ENDBRANCH  11  14
BRANCH  12  19
ATOM     19  C   UNL     1       4.294   5.471  19.292  0.00  0.00    +0.000 C 
BRANCH  19  20
ATOM     20  C   UNL     1       2.976   6.223  19.377  0.00  0.00    +0.000 C 
BRANCH  20  21
ATOM     21  O   UNL     1       2.861   7.351  18.504  0.00  0.00    +0.000 OA
BRANCH  21  22
ATOM     22  C   UNL     1       1.948   8.279  18.975  0.00  0.00    +0.000 A 
ATOM     23  C   UNL     1       1.470   9.206  18.050  0.00  0.00    +0.000 A 
ATOM     24  C   UNL     1       0.577  10.207  18.449  0.00  0.00    +0.000 A 
ATOM     25  C   UNL     1       0.144  10.282  19.774  0.00  0.00    +0.000 A 
ATOM     26  C   UNL     1       0.591   9.344  20.696  0.00  0.00    +0.000 A 
ATOM     27  C   UNL     1       1.479   8.345  20.296  0.00  0.00    +0.000 A 
ENDBRANCH  21  22
ENDBRANCH  20  21
ENDBRANCH  19  20
ENDBRANCH  12  19
TORSDOF 7
ENDMDL
MODEL 4
REMARK VINA RESULT:      -7.5      0.492      1.198
REMARK  Name = 
REMARK  8 active torsions:
REMARK  status: ('A' for Active; 'I' for Inactive)
REMARK    1  A    between atoms: C_1  and  N_2
REMARK    2  A    between atoms: C_11  and  S_12
REMARK    3  A    between atoms: S_12  and  C_13
REMARK    4  A    between atoms: C_13  and  C_14
REMARK    5  A    between atoms: N_17  and  C_18
REMARK    6  A    between atoms: C_18  and  C_19
REMARK    7  A    between atoms: C_19  and  O_20
REMARK    8  A    between atoms: O_20  and  C_21
REMARK                            x       y       z     vdW  Elec       q    Type
REMARK                         _______ _______ _______ _____ _____    ______ ____
ROOT
ATOM      1  C   UNL     1       6.031   3.686  13.306  0.00  0.00    +0.000 C 
ATOM      2  N   UNL     1       6.378   4.350  14.547  0.00  0.00    +0.000 N 
ATOM      3  C   UNL     1       7.393   5.298  14.548  0.00  0.00    +0.000 A 
ATOM      4  O   UNL     1       8.118   5.534  13.586  0.00  0.00    +0.000 OA
ATOM      5  N   UNL     1       7.597   5.982  15.722  0.00  0.00    +0.000 N 
ATOM      6  C   UNL     1       6.990   5.770  16.940  0.00  0.00    +0.000 A 
ATOM      7  O   UNL     1       7.425   6.350  17.918  0.00  0.00    +0.000 OA
ATOM      8  C   UNL     1       5.925   4.798  16.881  0.00  0.00    +0.000 A 
ATOM      9  C   UNL     1       5.674   4.120  15.717  0.00  0.00    +0.000 A 
ATOM     10  N   UNL     1       4.727   3.160  15.863  0.00  0.00    +0.000 NA
ATOM     11  C   UNL     1       4.295   3.309  17.100  0.00  0.00    +0.000 A 
ATOM     12  N   UNL     1       4.984   4.312  17.782  0.00  0.00    +0.000 N 
ATOM     13  H   UNL     1       8.365   6.636  15.725  0.00  0.00    +0.000 HD
ENDROOT
BRANCH  11  14
ATOM     14  S   UNL     1       3.045   2.363  17.860  0.00  0.00    +0.000 S 
BRANCH  14  15
ATOM     15  C   UNL     1       1.670   3.529  18.110  0.00  0.00    +0.000 C 
BRANCH  15  16
ATOM     16  C   UNL     1       0.737   3.051  19.211  0.00  0.00    +0.000 C 
ATOM     17  O   UNL     1       0.741   3.627  20.348  0.00  0.00    +0.000 OA
ATOM     18  O   UNL     1       0.150   1.950  19.017  0.00  0.00    +0.000 OA
ENDBRANCH  15  16
ENDBRANCH  14  15
ENDBRANCH  11  14
BRANCH  12  19
ATOM     19  C   UNL     1       4.685   4.712  19.164  0.00  0.00    +0.000 C 
BRANCH  19  20
ATOM     20  C   UNL     1       4.177   6.131  19.353  0.00  0.00    +0.000 C 
BRANCH  20  21
ATOM     21  O   UNL     1       2.867   6.239  19.921  0.00  0.00    +0.000 OA
BRANCH  21  22
ATOM     22  C   UNL     1       2.240   7.418  19.557  0.00  0.00    +0.000 A 
ATOM     23  C   UNL     1       1.511   8.068  20.552  0.00  0.00    +0.000 A 
ATOM     24  C   UNL     1       0.810   9.244  20.260  0.00  0.00    +0.000 A 
ATOM     25  C   UNL     1       0.841   9.786  18.974  0.00  0.00    +0.000 A 
ATOM     26  C   UNL     1       1.588   9.161  17.984  0.00  0.00    +0.000 A 
ATOM     27  C   UNL     1       2.290   7.991  18.277  0.00  0.00    +0.000 A 
ENDBRANCH  21  22
ENDBRANCH  20  21
ENDBRANCH  19  20
ENDBRANCH  12  19
TORSDOF 7
ENDMDL
MODEL 5
REMARK VINA RESULT:      -7.4      1.273      1.791
REMARK  Name = 
REMARK  8 active torsions:
REMARK  status: ('A' for Active; 'I' for Inactive)
REMARK    1  A    between atoms: C_1  and  N_2
REMARK    2  A    between atoms: C_11  and  S_12
REMARK    3  A    between atoms: S_12  and  C_13
REMARK    4  A    between atoms: C_13  and  C_14
REMARK    5  A    between atoms: N_17  and  C_18
REMARK    6  A    between atoms: C_18  and  C_19
REMARK    7  A    between atoms: C_19  and  O_20
REMARK    8  A    between atoms: O_20  and  C_21
REMARK                            x       y       z     vdW  Elec       q    Type
REMARK                         _______ _______ _______ _____ _____    ______ ____
ROOT
ATOM      1  C   UNL     1       5.849   3.657  13.825  0.00  0.00    +0.000 C 
ATOM      2  N   UNL     1       6.115   4.479  14.991  0.00  0.00    +0.000 N 
ATOM      3  C   UNL     1       7.211   5.331  14.983  0.00  0.00    +0.000 A 
ATOM      4  O   UNL     1       8.061   5.355  14.098  0.00  0.00    +0.000 OA
ATOM      5  N   UNL     1       7.345   6.172  16.061  0.00  0.00    +0.000 N 
ATOM      6  C   UNL     1       6.586   6.203  17.209  0.00  0.00    +0.000 A 
ATOM      7  O   UNL     1       6.960   6.893  18.139  0.00  0.00    +0.000 OA
ATOM      8  C   UNL     1       5.444   5.322  17.157  0.00  0.00    +0.000 A 
ATOM      9  C   UNL     1       5.263   4.491  16.081  0.00  0.00    +0.000 A 
ATOM     10  N   UNL     1       4.215   3.644  16.244  0.00  0.00    +0.000 NA
ATOM     11  C   UNL     1       3.661   4.020  17.380  0.00  0.00    +0.000 A 
ATOM     12  N   UNL     1       4.363   5.059  17.991  0.00  0.00    +0.000 N 
ATOM     13  H   UNL     1       8.169   6.756  16.067  0.00  0.00    +0.000 HD
ENDROOT
BRANCH  11  14
ATOM     14  S   UNL     1       2.247   3.307  18.103  0.00  0.00    +0.000 S 
BRANCH  14  15
ATOM     15  C   UNL     1       2.875   2.391  19.545  0.00  0.00    +0.000 C 
BRANCH  15  16
ATOM     16  C   UNL     1       2.221   2.871  20.830  0.00  0.00    +0.000 C 
ATOM     17  O   UNL     1       2.720   2.556  21.959  0.00  0.00    +0.000 OA
ATOM     18  O   UNL     1       1.071   3.383  20.723  0.00  0.00    +0.000 OA
ENDBRANCH  15  16
ENDBRANCH  14  15
ENDBRANCH  11  14
BRANCH  12  19
ATOM     19  C   UNL     1       3.949   5.693  19.250  0.00  0.00    +0.000 C 
BRANCH  19  20
ATOM     20  C   UNL     1       2.895   6.782  19.134  0.00  0.00    +0.000 C 
BRANCH  20  21
ATOM     21  O   UNL     1       2.090   6.977  20.301  0.00  0.00    +0.000 OA
BRANCH  21  22
ATOM     22  C   UNL     1       1.426   8.192  20.275  0.00  0.00    +0.000 A 
ATOM     23  C   UNL     1       0.723   8.542  21.427  0.00  0.00    +0.000 A 
ATOM     24  C   UNL     1      -0.012   9.732  21.473  0.00  0.00    +0.000 A 
ATOM     25  C   UNL     1      -0.041  10.588  20.371  0.00  0.00    +0.000 A 
ATOM     26  C   UNL     1       0.680  10.263  19.229  0.00  0.00    +0.000 A 
ATOM     27  C   UNL     1       1.416   9.078  19.186  0.00  0.00    +0.000 A 
ENDBRANCH  21  22
ENDBRANCH  20  21
ENDBRANCH  19  20
ENDBRANCH  12  19
TORSDOF 7
ENDMDL
MODEL 6
REMARK VINA RESULT:      -7.3      1.213      1.413
REMARK  Name = 
REMARK  8 active torsions:
REMARK  status: ('A' for Active; 'I' for Inactive)
REMARK    1  A    between atoms: C_1  and  N_2
REMARK    2  A    between atoms: C_11  and  S_12
REMARK    3  A    between atoms: S_12  and  C_13
REMARK    4  A    between atoms: C_13  and  C_14
REMARK    5  A    between atoms: N_17  and  C_18
REMARK    6  A    between atoms: C_18  and  C_19
REMARK    7  A    between atoms: C_19  and  O_20
REMARK    8  A    between atoms: O_20  and  C_21
REMARK                            x       y       z     vdW  Elec       q    Type
REMARK                         _______ _______ _______ _____ _____    ______ ____
ROOT
ATOM      1  C   UNL     1       5.925   3.590  13.877  0.00  0.00    +0.000 C 
ATOM      2  N   UNL     1       6.146   4.436  15.034  0.00  0.00    +0.000 N 
ATOM      3  C   UNL     1       7.197   5.344  15.018  0.00  0.00    +0.000 A 
ATOM      4  O   UNL     1       8.044   5.403  14.133  0.00  0.00    +0.000 OA
ATOM      5  N   UNL     1       7.285   6.202  16.087  0.00  0.00    +0.000 N 
ATOM      6  C   UNL     1       6.524   6.205  17.235  0.00  0.00    +0.000 A 
ATOM      7  O   UNL     1       6.861   6.922  18.158  0.00  0.00    +0.000 OA
ATOM      8  C   UNL     1       5.430   5.264  17.191  0.00  0.00    +0.000 A 
ATOM      9  C   UNL     1       5.294   4.415  16.124  0.00  0.00    +0.000 A 
ATOM     10  N   UNL     1       4.292   3.515  16.295  0.00  0.00    +0.000 NA
ATOM     11  C   UNL     1       3.718   3.873  17.427  0.00  0.00    +0.000 A 
ATOM     12  N   UNL     1       4.364   4.953  18.028  0.00  0.00    +0.000 N 
ATOM     13  H   UNL     1       8.077   6.828  16.088  0.00  0.00    +0.000 HD
ENDROOT
BRANCH  11  14
ATOM     14  S   UNL     1       2.342   3.094  18.157  0.00  0.00    +0.000 S 
BRANCH  14  15
ATOM     15  C   UNL     1       2.991   2.343  19.683  0.00  0.00    +0.000 C 
BRANCH  15  16
ATOM     16  C   UNL     1       2.167   2.753  20.892  0.00  0.00    +0.000 C 
ATOM     17  O   UNL     1       1.132   3.482  20.744  0.00  0.00    +0.000 OA
ATOM     18  O   UNL     1       2.677   2.532  22.027  0.00  0.00    +0.000 OA
ENDBRANCH  15  16
ENDBRANCH  14  15
ENDBRANCH  11  14
BRANCH  12  19
ATOM     19  C   UNL     1       3.916   5.577  19.280  0.00  0.00    +0.000 C 
BRANCH  19  20
ATOM     20  C   UNL     1       2.580   6.299  19.226  0.00  0.00    +0.000 C 
BRANCH  20  21
ATOM     21  O   UNL     1       2.352   7.240  20.281  0.00  0.00    +0.000 OA
BRANCH  21  22
ATOM     22  C   UNL     1       1.649   8.348  19.843  0.00  0.00    +0.000 A 
ATOM     23  C   UNL     1       1.828   8.712  18.509  0.00  0.00    +0.000 A 
ATOM     24  C   UNL     1       1.190   9.845  17.992  0.00  0.00    +0.000 A 
ATOM     25  C   UNL     1       0.356  10.618  18.802  0.00  0.00    +0.000 A 
ATOM     26  C   UNL     1       0.147  10.247  20.124  0.00  0.00    +0.000 A 
ATOM     27  C   UNL     1       0.782   9.115  20.637  0.00  0.00    +0.000 A 
ENDBRANCH  21  22
ENDBRANCH  20  21
ENDBRANCH  19  20
ENDBRANCH  12  19
TORSDOF 7
ENDMDL
MODEL 7
REMARK VINA RESULT:      -7.3      2.723      6.662
REMARK  Name = 
REMARK  8 active torsions:
REMARK  status: ('A' for Active; 'I' for Inactive)
REMARK    1  A    between atoms: C_1  and  N_2
REMARK    2  A    between atoms: C_11  and  S_12
REMARK    3  A    between atoms: S_12  and  C_13
REMARK    4  A    between atoms: C_13  and  C_14
REMARK    5  A    between atoms: N_17  and  C_18
REMARK    6  A    between atoms: C_18  and  C_19
REMARK    7  A    between atoms: C_19  and  O_20
REMARK    8  A    between atoms: O_20  and  C_21
REMARK                            x       y       z     vdW  Elec       q    Type
REMARK                         _______ _______ _______ _____ _____    ______ ____
ROOT
ATOM      1  C   UNL     1       1.465   3.574  20.816  0.00  0.00    +0.000 C 
ATOM      2  N   UNL     1       2.774   3.794  20.230  0.00  0.00    +0.000 N 
ATOM      3  C   UNL     1       3.757   2.826  20.386  0.00  0.00    +0.000 A 
ATOM      4  O   UNL     1       3.643   1.834  21.099  0.00  0.00    +0.000 OA
ATOM      5  N   UNL     1       4.935   3.030  19.708  0.00  0.00    +0.000 N 
ATOM      6  C   UNL     1       5.309   4.135  18.975  0.00  0.00    +0.000 A 
ATOM      7  O   UNL     1       6.462   4.221  18.595  0.00  0.00    +0.000 OA
ATOM      8  C   UNL     1       4.245   5.097  18.818  0.00  0.00    +0.000 A 
ATOM      9  C   UNL     1       3.045   4.908  19.455  0.00  0.00    +0.000 A 
ATOM     10  N   UNL     1       2.201   5.960  19.304  0.00  0.00    +0.000 NA
ATOM     11  C   UNL     1       2.827   6.768  18.471  0.00  0.00    +0.000 A 
ATOM     12  N   UNL     1       4.090   6.291  18.122  0.00  0.00    +0.000 N 
ATOM     13  H   UNL     1       5.659   2.344  19.864  0.00  0.00    +0.000 HD
ENDROOT
BRANCH  11  14
ATOM     14  S   UNL     1       2.216   8.288  17.881  0.00  0.00    +0.000 S 
BRANCH  14  15
ATOM     15  C   UNL     1       1.478   9.089  19.339  0.00  0.00    +0.000 C 
BRANCH  15  16
ATOM     16  C   UNL     1       0.270   9.927  18.955  0.00  0.00    +0.000 C 
ATOM     17  O   UNL     1      -0.240   9.820  17.792  0.00  0.00    +0.000 OA
ATOM     18  O   UNL     1      -0.042  10.865  19.742  0.00  0.00    +0.000 OA
ENDBRANCH  15  16
ENDBRANCH  14  15
ENDBRANCH  11  14
BRANCH  12  19
ATOM     19  C   UNL     1       4.990   6.975  17.184  0.00  0.00    +0.000 C 
BRANCH  19  20
ATOM     20  C   UNL     1       5.172   6.311  15.829  0.00  0.00    +0.000 C 
BRANCH  20  21
ATOM     21  O   UNL     1       6.472   5.759  15.591  0.00  0.00    +0.000 OA
BRANCH  21  22
ATOM     22  C   UNL     1       6.517   5.031  14.414  0.00  0.00    +0.000 A 
ATOM     23  C   UNL     1       7.589   5.293  13.562  0.00  0.00    +0.000 A 
ATOM     24  C   UNL     1       7.691   4.634  12.331  0.00  0.00    +0.000 A 
ATOM     25  C   UNL     1       6.727   3.699  11.947  0.00  0.00    +0.000 A 
ATOM     26  C   UNL     1       5.672   3.410  12.802  0.00  0.00    +0.000 A 
ATOM     27  C   UNL     1       5.574   4.065  14.030  0.00  0.00    +0.000 A 
ENDBRANCH  21  22
ENDBRANCH  20  21
ENDBRANCH  19  20
ENDBRANCH  12  19
TORSDOF 7
ENDMDL
MODEL 8
REMARK VINA RESULT:      -7.3      2.491      5.512
REMARK  Name = 
REMARK  8 active torsions:
REMARK  status: ('A' for Active; 'I' for Inactive)
REMARK    1  A    between atoms: C_1  and  N_2
REMARK    2  A    between atoms: C_11  and  S_12
REMARK    3  A    between atoms: S_12  and  C_13
REMARK    4  A    between atoms: C_13  and  C_14
REMARK    5  A    between atoms: N_17  and  C_18
REMARK    6  A    between atoms: C_18  and  C_19
REMARK    7  A    between atoms: C_19  and  O_20
REMARK    8  A    between atoms: O_20  and  C_21
REMARK                            x       y       z     vdW  Elec       q    Type
REMARK                         _______ _______ _______ _____ _____    ______ ____
ROOT
ATOM      1  C   UNL     1       4.087   1.854  19.883  0.00  0.00    +0.000 C 
ATOM      2  N   UNL     1       3.418   3.132  20.041  0.00  0.00    +0.000 N 
ATOM      3  C   UNL     1       2.576   3.326  21.128  0.00  0.00    +0.000 A 
ATOM      4  O   UNL     1       2.251   2.443  21.915  0.00  0.00    +0.000 OA
ATOM      5  N   UNL     1       2.067   4.591  21.294  0.00  0.00    +0.000 N 
ATOM      6  C   UNL     1       2.198   5.673  20.452  0.00  0.00    +0.000 A 
ATOM      7  O   UNL     1       1.527   6.665  20.667  0.00  0.00    +0.000 OA
ATOM      8  C   UNL     1       3.104   5.430  19.355  0.00  0.00    +0.000 A 
ATOM      9  C   UNL     1       3.655   4.188  19.178  0.00  0.00    +0.000 A 
ATOM     10  N   UNL     1       4.383   4.095  18.037  0.00  0.00    +0.000 NA
ATOM     11  C   UNL     1       4.386   5.320  17.547  0.00  0.00    +0.000 A 
ATOM     12  N   UNL     1       3.624   6.198  18.318  0.00  0.00    +0.000 N 
ATOM     13  H   UNL     1       1.421   4.710  22.060  0.00  0.00    +0.000 HD
ENDROOT
BRANCH  11  14
ATOM     14  S   UNL     1       5.190   5.828  16.089  0.00  0.00    +0.000 S 
BRANCH  14  15
ATOM     15  C   UNL     1       6.913   5.277  16.294  0.00  0.00    +0.000 C 
BRANCH  15  16
ATOM     16  C   UNL     1       7.390   5.484  17.722  0.00  0.00    +0.000 C 
ATOM     17  O   UNL     1       7.603   6.660  18.162  0.00  0.00    +0.000 OA
ATOM     18  O   UNL     1       7.770   4.453  18.346  0.00  0.00    +0.000 OA
ENDBRANCH  15  16
ENDBRANCH  14  15
ENDBRANCH  11  14
BRANCH  12  19
ATOM     19  C   UNL     1       3.481   7.629  18.023  0.00  0.00    +0.000 C 
BRANCH  19  20
ATOM     20  C   UNL     1       2.082   8.102  17.665  0.00  0.00    +0.000 C 
BRANCH  20  21
ATOM     21  O   UNL     1       1.943   9.515  17.486  0.00  0.00    +0.000 OA
BRANCH  21  22
ATOM     22  C   UNL     1       0.895  10.030  18.230  0.00  0.00    +0.000 A 
ATOM     23  C   UNL     1       1.232  10.646  19.435  0.00  0.00    +0.000 A 
ATOM     24  C   UNL     1       0.232  11.157  20.272  0.00  0.00    +0.000 A 
ATOM     25  C   UNL     1      -1.112  11.066  19.905  0.00  0.00    +0.000 A 
ATOM     26  C   UNL     1      -1.455  10.481  18.693  0.00  0.00    +0.000 A 
ATOM     27  C   UNL     1      -0.457   9.976  17.859  0.00  0.00    +0.000 A 
ENDBRANCH  21  22
ENDBRANCH  20  21
ENDBRANCH  19  20
ENDBRANCH  12  19
TORSDOF 7
ENDMDL
MODEL 9
REMARK VINA RESULT:      -7.2      2.378      5.653
REMARK  Name = 
REMARK  8 active torsions:
REMARK  status: ('A' for Active; 'I' for Inactive)
REMARK    1  A    between atoms: C_1  and  N_2
REMARK    2  A    between atoms: C_11  and  S_12
REMARK    3  A    between atoms: S_12  and  C_13
REMARK    4  A    between atoms: C_13  and  C_14
REMARK    5  A    between atoms: N_17  and  C_18
REMARK    6  A    between atoms: C_18  and  C_19
REMARK    7  A    between atoms: C_19  and  O_20
REMARK    8  A    between atoms: O_20  and  C_21
REMARK                            x       y       z     vdW  Elec       q    Type
REMARK                         _______ _______ _______ _____ _____    ______ ____
ROOT
ATOM      1  C   UNL     1       4.079   1.980  19.625  0.00  0.00    +0.000 C 
ATOM      2  N   UNL     1       3.381   3.223  19.894  0.00  0.00    +0.000 N 
ATOM      3  C   UNL     1       2.592   3.325  21.032  0.00  0.00    +0.000 A 
ATOM      4  O   UNL     1       2.335   2.387  21.780  0.00  0.00    +0.000 OA
ATOM      5  N   UNL     1       2.054   4.560  21.301  0.00  0.00    +0.000 N 
ATOM      6  C   UNL     1       2.109   5.694  20.521  0.00  0.00    +0.000 A 
ATOM      7  O   UNL     1       1.421   6.649  20.830  0.00  0.00    +0.000 OA
ATOM      8  C   UNL     1       2.962   5.547  19.366  0.00  0.00    +0.000 A 
ATOM      9  C   UNL     1       3.541   4.336  19.087  0.00  0.00    +0.000 A 
ATOM     10  N   UNL     1       4.209   4.335  17.906  0.00  0.00    +0.000 NA
ATOM     11  C   UNL     1       4.150   5.586  17.493  0.00  0.00    +0.000 A 
ATOM     12  N   UNL     1       3.404   6.391  18.354  0.00  0.00    +0.000 N 
ATOM     13  H   UNL     1       1.447   4.613  22.105  0.00  0.00    +0.000 HD
ENDROOT
BRANCH  11  14
ATOM     14  S   UNL     1       4.861   6.206  16.029  0.00  0.00    +0.000 S 
BRANCH  14  15
ATOM     15  C   UNL     1       5.708   4.777  15.284  0.00  0.00    +0.000 C 
BRANCH  15  16
ATOM     16  C   UNL     1       7.218   4.948  15.329  0.00  0.00    +0.000 C 
ATOM     17  O   UNL     1       7.836   5.441  14.331  0.00  0.00    +0.000 OA
ATOM     18  O   UNL     1       7.823   4.382  16.283  0.00  0.00    +0.000 OA
ENDBRANCH  15  16
ENDBRANCH  14  15
ENDBRANCH  11  14
BRANCH  12  19
ATOM     19  C   UNL     1       3.203   7.832  18.153  0.00  0.00    +0.000 C 
BRANCH  19  20
ATOM     20  C   UNL     1       1.790   8.268  17.805  0.00  0.00    +0.000 C 
BRANCH  20  21
ATOM     21  O   UNL     1       1.609   9.679  17.645  0.00  0.00    +0.000 OA
BRANCH  21  22
ATOM     22  C   UNL     1       0.671  10.184  18.529  0.00  0.00    +0.000 A 
ATOM     23  C   UNL     1       1.082  10.336  19.853  0.00  0.00    +0.000 A 
ATOM     24  C   UNL     1       0.185  10.799  20.823  0.00  0.00    +0.000 A 
ATOM     25  C   UNL     1      -1.127  11.125  20.475  0.00  0.00    +0.000 A 
ATOM     26  C   UNL     1      -1.537  11.005  19.153  0.00  0.00    +0.000 A 
ATOM     27  C   UNL     1      -0.641  10.547  18.187  0.00  0.00    +0.000 A 
ENDBRANCH  21  22
ENDBRANCH  20  21
ENDBRANCH  19  20
ENDBRANCH  12  19
TORSDOF 7
ENDMDL
