MODEL 1
REMARK VINA RESULT:      -7.5      0.000      0.000
REMARK  Name = 
REMARK  12 active torsions:
REMARK  status: ('A' for Active; 'I' for Inactive)
REMARK    1  A    between atoms: C_1  and  O_2
REMARK    2  A    between atoms: O_2  and  C_3
REMARK    3  A    between atoms: C_5  and  C_6
REMARK    4  A    between atoms: C_7  and  C_8
REMARK    5  A    between atoms: C_8  and  O_10
REMARK    6  A    between atoms: O_10  and  C_11
REMARK    7  A    between atoms: C_11  and  C_12
REMARK    8  A    between atoms: C_12  and  C_13
REMARK    9  A    between atoms: C_16  and  O_17
REMARK   10  A    between atoms: C_18  and  O_19
REMARK   11  A    between atoms: O_19  and  C_20
REMARK   12  A    between atoms: C_24  and  N_25
REMARK                            x       y       z     vdW  Elec       q    Type
REMARK                         _______ _______ _______ _____ _____    ______ ____
ROOT
ATOM      1  C   UNL     1       7.512   7.371  17.702  0.00  0.00    +0.000 C 
ATOM      2  O   UNL     1       7.696   6.437  18.463  0.00  0.00    +0.000 OA
ENDROOT
BRANCH   1   4
ATOM      3  C   UNL     1       8.897   9.047  18.842  0.00  0.00    +0.000 C 
ATOM      4  C   UNL     1       8.032   8.740  17.866  0.00  0.00    +0.000 C 
BRANCH   3   7
ATOM      5  C   UNL     1       9.934  12.676  18.368  0.00  0.00    +0.000 A 
ATOM      6  C   UNL     1       9.623  11.332  18.094  0.00  0.00    +0.000 A 
ATOM      7  C   UNL     1       9.318  10.436  19.118  0.00  0.00    +0.000 A 
ATOM      8  C   UNL     1       9.351  10.888  20.438  0.00  0.00    +0.000 A 
ATOM      9  C   UNL     1       9.719  12.205  20.724  0.00  0.00    +0.000 A 
ATOM     10  C   UNL     1       9.963  13.126  19.701  0.00  0.00    +0.000 A 
BRANCH  10  11
ATOM     11  N   UNL     1      10.424  14.412  20.035  0.00  0.00    +0.000 N 
ATOM     12  H   UNL     1      10.154  15.137  19.382  0.00  0.00    +0.000 HD
ATOM     13  H   UNL     1      11.424  14.409  20.245  0.00  0.00    +0.000 HD
ENDBRANCH  10  11
BRANCH   5  15
ATOM     14  C   UNL     1      11.410  13.344  16.651  0.00  0.00    +0.000 C 
ATOM     15  O   UNL     1      10.207  13.598  17.381  0.00  0.00    +0.000 OA
ENDBRANCH   5  15
ENDBRANCH   3   7
ENDBRANCH   1   4
BRANCH   1  16
ATOM     16  O   UNL     1       6.661   7.411  16.652  0.00  0.00    +0.000 OA
BRANCH  16  17
ATOM     17  C   UNL     1       5.656   6.388  16.640  0.00  0.00    +0.000 C 
BRANCH  17  18
ATOM     18  C   UNL     1       4.359   6.987  17.208  0.00  0.00    +0.000 C 
BRANCH  18  19
ATOM     19  C   UNL     1       3.735   6.143  18.303  0.00  0.00    +0.000 A 
ATOM     20  C   UNL     1       2.736   6.665  19.128  0.00  0.00    +0.000 A 
ATOM     21  C   UNL     1       2.186   5.888  20.150  0.00  0.00    +0.000 A 
ATOM     22  C   UNL     1       2.623   4.574  20.358  0.00  0.00    +0.000 A 
ATOM     23  C   UNL     1       3.613   4.024  19.540  0.00  0.00    +0.000 A 
ATOM     24  C   UNL     1       4.155   4.819  18.517  0.00  0.00    +0.000 A 
BRANCH  22  25
ATOM     25  O   UNL     1       2.051   3.860  21.374  0.00  0.00    +0.000 OA
ATOM     26  H   UNL     1       2.725   3.298  21.788  0.00  0.00    +0.000 HD
ENDBRANCH  22  25
BRANCH  23  27
ATOM     27  O   UNL     1       4.162   2.770  19.593  0.00  0.00    +0.000 OA
ATOM     28  C   UNL     1       3.634   1.766  18.737  0.00  0.00    +0.000 C 
ENDBRANCH  23  27
ENDBRANCH  18  19
ENDBRANCH  17  18
ENDBRANCH  16  17
ENDBRANCH   1  16
TORSDOF 10
ENDMDL
MODEL 2
REMARK VINA RESULT:      -7.5      4.764      7.472
REMARK  Name = 
REMARK  12 active torsions:
REMARK  status: ('A' for Active; 'I' for Inactive)
REMARK    1  A    between atoms: C_1  and  O_2
REMARK    2  A    between atoms: O_2  and  C_3
REMARK    3  A    between atoms: C_5  and  C_6
REMARK    4  A    between atoms: C_7  and  C_8
REMARK    5  A    between atoms: C_8  and  O_10
REMARK    6  A    between atoms: O_10  and  C_11
REMARK    7  A    between atoms: C_11  and  C_12
REMARK    8  A    between atoms: C_12  and  C_13
REMARK    9  A    between atoms: C_16  and  O_17
REMARK   10  A    between atoms: C_18  and  O_19
REMARK   11  A    between atoms: O_19  and  C_20
REMARK   12  A    between atoms: C_24  and  N_25
REMARK                            x       y       z     vdW  Elec       q    Type
REMARK                         _______ _______ _______ _____ _____    ______ ____
ROOT
ATOM      1  C   UNL     1       2.615   3.262  21.026  0.00  0.00    +0.000 C 
ATOM      2  O   UNL     1       2.220   3.048  22.158  0.00  0.00    +0.000 OA
ENDROOT
BRANCH   1   4
ATOM      3  C   UNL     1       1.864   5.578  20.704  0.00  0.00    +0.000 C 
ATOM      4  C   UNL     1       2.690   4.579  20.367  0.00  0.00    +0.000 C 
BRANCH   3   7
ATOM      5  C   UNL     1       1.358   9.248  19.842  0.00  0.00    +0.000 A 
ATOM      6  C   UNL     1       1.307   8.020  20.527  0.00  0.00    +0.000 A 
ATOM      7  C   UNL     1       1.822   6.854  19.962  0.00  0.00    +0.000 A 
ATOM      8  C   UNL     1       2.374   6.915  18.680  0.00  0.00    +0.000 A 
ATOM      9  C   UNL     1       2.371   8.117  17.968  0.00  0.00    +0.000 A 
ATOM     10  C   UNL     1       1.916   9.303  18.552  0.00  0.00    +0.000 A 
BRANCH  10  11
ATOM     11  N   UNL     1       1.843  10.467  17.766  0.00  0.00    +0.000 N 
ATOM     12  H   UNL     1       2.701  10.702  17.283  0.00  0.00    +0.000 HD
ATOM     13  H   UNL     1       1.446  11.248  18.290  0.00  0.00    +0.000 HD
ENDBRANCH  10  11
BRANCH   5  15
ATOM     14  C   UNL     1      -0.533  10.496  20.504  0.00  0.00    +0.000 C 
ATOM     15  O   UNL     1       0.890  10.426  20.382  0.00  0.00    +0.000 OA
ENDBRANCH   5  15
ENDBRANCH   3   7
ENDBRANCH   1   4
BRANCH   1  16
ATOM     16  O   UNL     1       2.896   2.344  20.074  0.00  0.00    +0.000 OA
BRANCH  16  17
ATOM     17  C   UNL     1       4.205   2.445  19.496  0.00  0.00    +0.000 C 
BRANCH  17  18
ATOM     18  C   UNL     1       4.047   2.887  18.032  0.00  0.00    +0.000 C 
BRANCH  18  19
ATOM     19  C   UNL     1       5.053   3.942  17.611  0.00  0.00    +0.000 A 
ATOM     20  C   UNL     1       5.478   4.925  18.509  0.00  0.00    +0.000 A 
ATOM     21  C   UNL     1       6.384   5.907  18.104  0.00  0.00    +0.000 A 
ATOM     22  C   UNL     1       6.885   5.918  16.797  0.00  0.00    +0.000 A 
ATOM     23  C   UNL     1       6.485   4.939  15.883  0.00  0.00    +0.000 A 
ATOM     24  C   UNL     1       5.574   3.959  16.305  0.00  0.00    +0.000 A 
BRANCH  22  25
ATOM     25  O   UNL     1       7.769   6.903  16.454  0.00  0.00    +0.000 OA
ATOM     26  H   UNL     1       7.441   7.367  15.668  0.00  0.00    +0.000 HD
ENDBRANCH  22  25
BRANCH  23  27
ATOM     27  O   UNL     1       6.864   4.790  14.575  0.00  0.00    +0.000 OA
ATOM     28  C   UNL     1       6.097   3.928  13.745  0.00  0.00    +0.000 C 
ENDBRANCH  23  27
ENDBRANCH  18  19
ENDBRANCH  17  18
ENDBRANCH  16  17
ENDBRANCH   1  16
TORSDOF 10
ENDMDL
MODEL 3
REMARK VINA RESULT:      -7.4      4.900      7.584
REMARK  Name = 
REMARK  12 active torsions:
REMARK  status: ('A' for Active; 'I' for Inactive)
REMARK    1  A    between atoms: C_1  and  O_2
REMARK    2  A    between atoms: O_2  and  C_3
REMARK    3  A    between atoms: C_5  and  C_6
REMARK    4  A    between atoms: C_7  and  C_8
REMARK    5  A    between atoms: C_8  and  O_10
REMARK    6  A    between atoms: O_10  and  C_11
REMARK    7  A    between atoms: C_11  and  C_12
REMARK    8  A    between atoms: C_12  and  C_13
REMARK    9  A    between atoms: C_16  and  O_17
REMARK   10  A    between atoms: C_18  and  O_19
REMARK   11  A    between atoms: O_19  and  C_20
REMARK   12  A    between atoms: C_24  and  N_25
REMARK                            x       y       z     vdW  Elec       q    Type
REMARK                         _______ _______ _______ _____ _____    ______ ____
ROOT
ATOM      1  C   UNL     1       2.265   3.220  20.928  0.00  0.00    +0.000 C 
ATOM      2  O   UNL     1       2.125   2.992  22.117  0.00  0.00    +0.000 OA
ENDROOT
BRANCH   1   4
ATOM      3  C   UNL     1       2.633   5.564  20.299  0.00  0.00    +0.000 C 
ATOM      4  C   UNL     1       1.880   4.459  20.230  0.00  0.00    +0.000 C 
BRANCH   3   7
ATOM      5  C   UNL     1       1.345   9.129  19.986  0.00  0.00    +0.000 A 
ATOM      6  C   UNL     1       1.670   7.872  20.527  0.00  0.00    +0.000 A 
ATOM      7  C   UNL     1       2.197   6.856  19.731  0.00  0.00    +0.000 A 
ATOM      8  C   UNL     1       2.378   7.096  18.367  0.00  0.00    +0.000 A 
ATOM      9  C   UNL     1       1.999   8.320  17.810  0.00  0.00    +0.000 A 
ATOM     10  C   UNL     1       1.531   9.365  18.611  0.00  0.00    +0.000 A 
BRANCH  10  11
ATOM     11  N   UNL     1       1.071  10.544  17.997  0.00  0.00    +0.000 N 
ATOM     12  H   UNL     1       1.713  10.943  17.323  0.00  0.00    +0.000 HD
ATOM     13  H   UNL     1       0.735  11.219  18.686  0.00  0.00    +0.000 HD
ENDBRANCH  10  11
BRANCH   5  15
ATOM     14  C   UNL     1      -0.442   9.931  21.304  0.00  0.00    +0.000 C 
ATOM     15  O   UNL     1       0.854  10.167  20.748  0.00  0.00    +0.000 OA
ENDBRANCH   5  15
ENDBRANCH   3   7
ENDBRANCH   1   4
BRANCH   1  16
ATOM     16  O   UNL     1       2.630   2.340  19.968  0.00  0.00    +0.000 OA
BRANCH  16  17
ATOM     17  C   UNL     1       3.870   2.635  19.308  0.00  0.00    +0.000 C 
BRANCH  17  18
ATOM     18  C   UNL     1       3.566   2.924  17.830  0.00  0.00    +0.000 C 
BRANCH  18  19
ATOM     19  C   UNL     1       4.664   3.705  17.132  0.00  0.00    +0.000 A 
ATOM     20  C   UNL     1       4.806   3.655  15.743  0.00  0.00    +0.000 A 
ATOM     21  C   UNL     1       5.836   4.357  15.113  0.00  0.00    +0.000 A 
ATOM     22  C   UNL     1       6.735   5.125  15.861  0.00  0.00    +0.000 A 
ATOM     23  C   UNL     1       6.607   5.202  17.251  0.00  0.00    +0.000 A 
ATOM     24  C   UNL     1       5.567   4.491  17.869  0.00  0.00    +0.000 A 
BRANCH  22  25
ATOM     25  O   UNL     1       7.724   5.791  15.193  0.00  0.00    +0.000 OA
ATOM     26  H   UNL     1       8.082   5.217  14.497  0.00  0.00    +0.000 HD
ENDBRANCH  22  25
BRANCH  23  27
ATOM     27  O   UNL     1       7.385   5.895  18.141  0.00  0.00    +0.000 OA
ATOM     28  C   UNL     1       7.319   5.538  19.514  0.00  0.00    +0.000 C 
ENDBRANCH  23  27
ENDBRANCH  18  19
ENDBRANCH  17  18
ENDBRANCH  16  17
ENDBRANCH   1  16
TORSDOF 10
ENDMDL
MODEL 4
REMARK VINA RESULT:      -7.4      4.291      7.412
REMARK  Name = 
REMARK  12 active torsions:
REMARK  status: ('A' for Active; 'I' for Inactive)
REMARK    1  A    between atoms: C_1  and  O_2
REMARK    2  A    between atoms: O_2  and  C_3
REMARK    3  A    between atoms: C_5  and  C_6
REMARK    4  A    between atoms: C_7  and  C_8
REMARK    5  A    between atoms: C_8  and  O_10
REMARK    6  A    between atoms: O_10  and  C_11
REMARK    7  A    between atoms: C_11  and  C_12
REMARK    8  A    between atoms: C_12  and  C_13
REMARK    9  A    between atoms: C_16  and  O_17
REMARK   10  A    between atoms: C_18  and  O_19
REMARK   11  A    between atoms: O_19  and  C_20
REMARK   12  A    between atoms: C_24  and  N_25
REMARK                            x       y       z     vdW  Elec       q    Type
REMARK                         _______ _______ _______ _____ _____    ______ ____
ROOT
ATOM      1  C   UNL     1       2.359   2.889  18.865  0.00  0.00    +0.000 C 
ATOM      2  O   UNL     1       1.919   1.783  18.604  0.00  0.00    +0.000 OA
ENDROOT
BRANCH   1   4
ATOM      3  C   UNL     1       3.545   3.643  16.853  0.00  0.00    +0.000 C 
ATOM      4  C   UNL     1       3.483   3.559  18.188  0.00  0.00    +0.000 C 
BRANCH   3   7
ATOM      5  C   UNL     1       6.769   5.516  16.099  0.00  0.00    +0.000 A 
ATOM      6  C   UNL     1       5.598   5.086  16.749  0.00  0.00    +0.000 A 
ATOM      7  C   UNL     1       4.728   4.178  16.148  0.00  0.00    +0.000 A 
ATOM      8  C   UNL     1       5.023   3.713  14.864  0.00  0.00    +0.000 A 
ATOM      9  C   UNL     1       6.151   4.182  14.187  0.00  0.00    +0.000 A 
ATOM     10  C   UNL     1       7.062   5.042  14.807  0.00  0.00    +0.000 A 
BRANCH  10  11
ATOM     11  N   UNL     1       8.130   5.564  14.055  0.00  0.00    +0.000 N 
ATOM     12  H   UNL     1       7.848   6.107  13.248  0.00  0.00    +0.000 HD
ATOM     13  H   UNL     1       8.822   4.846  13.838  0.00  0.00    +0.000 HD
ENDBRANCH  10  11
BRANCH   5  15
ATOM     14  C   UNL     1       7.070   7.439  17.434  0.00  0.00    +0.000 C 
ATOM     15  O   UNL     1       7.669   6.385  16.676  0.00  0.00    +0.000 OA
ENDBRANCH   5  15
ENDBRANCH   3   7
ENDBRANCH   1   4
BRANCH   1  16
ATOM     16  O   UNL     1       2.042   3.661  19.930  0.00  0.00    +0.000 OA
BRANCH  16  17
ATOM     17  C   UNL     1       2.983   4.700  20.232  0.00  0.00    +0.000 C 
BRANCH  17  18
ATOM     18  C   UNL     1       2.210   5.881  20.842  0.00  0.00    +0.000 C 
BRANCH  18  19
ATOM     19  C   UNL     1       2.101   7.073  19.910  0.00  0.00    +0.000 A 
ATOM     20  C   UNL     1       2.688   7.046  18.642  0.00  0.00    +0.000 A 
ATOM     21  C   UNL     1       2.604   8.159  17.801  0.00  0.00    +0.000 A 
ATOM     22  C   UNL     1       1.926   9.312  18.213  0.00  0.00    +0.000 A 
ATOM     23  C   UNL     1       1.320   9.360  19.472  0.00  0.00    +0.000 A 
ATOM     24  C   UNL     1       1.414   8.233  20.304  0.00  0.00    +0.000 A 
BRANCH  22  25
ATOM     25  O   UNL     1       1.875  10.371  17.351  0.00  0.00    +0.000 OA
ATOM     26  H   UNL     1       0.966  10.708  17.311  0.00  0.00    +0.000 HD
ENDBRANCH  22  25
BRANCH  23  27
ATOM     27  O   UNL     1       0.621  10.391  20.042  0.00  0.00    +0.000 OA
ATOM     28  C   UNL     1      -0.679  10.679  19.547  0.00  0.00    +0.000 C 
ENDBRANCH  23  27
ENDBRANCH  18  19
ENDBRANCH  17  18
ENDBRANCH  16  17
ENDBRANCH   1  16
TORSDOF 10
ENDMDL
MODEL 5
REMARK VINA RESULT:      -7.3      1.492      2.217
REMARK  Name = 
REMARK  12 active torsions:
REMARK  status: ('A' for Active; 'I' for Inactive)
REMARK    1  A    between atoms: C_1  and  O_2
REMARK    2  A    between atoms: O_2  and  C_3
REMARK    3  A    between atoms: C_5  and  C_6
REMARK    4  A    between atoms: C_7  and  C_8
REMARK    5  A    between atoms: C_8  and  O_10
REMARK    6  A    between atoms: O_10  and  C_11
REMARK    7  A    between atoms: C_11  and  C_12
REMARK    8  A    between atoms: C_12  and  C_13
REMARK    9  A    between atoms: C_16  and  O_17
REMARK   10  A    between atoms: C_18  and  O_19
REMARK   11  A    between atoms: O_19  and  C_20
REMARK   12  A    between atoms: C_24  and  N_25
REMARK                            x       y       z     vdW  Elec       q    Type
REMARK                         _______ _______ _______ _____ _____    ______ ____
ROOT
ATOM      1  C   UNL     1       7.486   6.871  17.354  0.00  0.00    +0.000 C 
ATOM      2  O   UNL     1       7.557   6.235  16.317  0.00  0.00    +0.000 OA
ENDROOT
BRANCH   1   4
ATOM      3  C   UNL     1       8.646   8.691  18.523  0.00  0.00    +0.000 C 
ATOM      4  C   UNL     1       7.845   8.290  17.528  0.00  0.00    +0.000 C 
BRANCH   3   7
ATOM      5  C   UNL     1       9.607  11.911  20.306  0.00  0.00    +0.000 A 
ATOM      6  C   UNL     1       9.277  10.563  20.073  0.00  0.00    +0.000 A 
ATOM      7  C   UNL     1       8.903  10.118  18.806  0.00  0.00    +0.000 A 
ATOM      8  C   UNL     1       8.833  11.043  17.762  0.00  0.00    +0.000 A 
ATOM      9  C   UNL     1       9.098  12.394  17.999  0.00  0.00    +0.000 A 
ATOM     10  C   UNL     1       9.536  12.837  19.249  0.00  0.00    +0.000 A 
BRANCH  10  11
ATOM     11  N   UNL     1       9.697  14.217  19.467  0.00  0.00    +0.000 N 
ATOM     12  H   UNL     1      10.396  14.454  20.161  0.00  0.00    +0.000 HD
ATOM     13  H   UNL     1       8.800  14.680  19.622  0.00  0.00    +0.000 HD
ENDBRANCH  10  11
BRANCH   5  15
ATOM     14  C   UNL     1       8.980  12.426  22.523  0.00  0.00    +0.000 C 
ATOM     15  O   UNL     1      10.014  12.380  21.536  0.00  0.00    +0.000 OA
ENDBRANCH   5  15
ENDBRANCH   3   7
ENDBRANCH   1   4
BRANCH   1  16
ATOM     16  O   UNL     1       7.240   6.386  18.592  0.00  0.00    +0.000 OA
BRANCH  16  17
ATOM     17  C   UNL     1       6.203   5.397  18.666  0.00  0.00    +0.000 C 
BRANCH  17  18
ATOM     18  C   UNL     1       4.859   6.096  18.412  0.00  0.00    +0.000 C 
BRANCH  18  19
ATOM     19  C   UNL     1       3.668   5.319  18.939  0.00  0.00    +0.000 A 
ATOM     20  C   UNL     1       2.769   5.906  19.833  0.00  0.00    +0.000 A 
ATOM     21  C   UNL     1       1.689   5.174  20.333  0.00  0.00    +0.000 A 
ATOM     22  C   UNL     1       1.489   3.845  19.942  0.00  0.00    +0.000 A 
ATOM     23  C   UNL     1       2.368   3.237  19.041  0.00  0.00    +0.000 A 
ATOM     24  C   UNL     1       3.447   3.987  18.547  0.00  0.00    +0.000 A 
BRANCH  22  25
ATOM     25  O   UNL     1       0.418   3.175  20.464  0.00  0.00    +0.000 OA
ATOM     26  H   UNL     1       0.407   3.290  21.427  0.00  0.00    +0.000 HD
ENDBRANCH  22  25
BRANCH  23  27
ATOM     27  O   UNL     1       2.334   1.959  18.548  0.00  0.00    +0.000 OA
ATOM     28  C   UNL     1       3.565   1.277  18.357  0.00  0.00    +0.000 C 
ENDBRANCH  23  27
ENDBRANCH  18  19
ENDBRANCH  17  18
ENDBRANCH  16  17
ENDBRANCH   1  16
TORSDOF 10
ENDMDL
MODEL 6
REMARK VINA RESULT:      -7.3      4.825      7.742
REMARK  Name = 
REMARK  12 active torsions:
REMARK  status: ('A' for Active; 'I' for Inactive)
REMARK    1  A    between atoms: C_1  and  O_2
REMARK    2  A    between atoms: O_2  and  C_3
REMARK    3  A    between atoms: C_5  and  C_6
REMARK    4  A    between atoms: C_7  and  C_8
REMARK    5  A    between atoms: C_8  and  O_10
REMARK    6  A    between atoms: O_10  and  C_11
REMARK    7  A    between atoms: C_11  and  C_12
REMARK    8  A    between atoms: C_12  and  C_13
REMARK    9  A    between atoms: C_16  and  O_17
REMARK   10  A    between atoms: C_18  and  O_19
REMARK   11  A    between atoms: O_19  and  C_20
REMARK   12  A    between atoms: C_24  and  N_25
REMARK                            x       y       z     vdW  Elec       q    Type
REMARK                         _______ _______ _______ _____ _____    ______ ____
ROOT
ATOM      1  C   UNL     1       0.943   3.321  19.146  0.00  0.00    +0.000 C 
ATOM      2  O   UNL     1       0.334   2.283  18.957  0.00  0.00    +0.000 OA
ENDROOT
BRANCH   1   4
ATOM      3  C   UNL     1       3.217   3.254  18.224  0.00  0.00    +0.000 C 
ATOM      4  C   UNL     1       2.026   3.860  18.303  0.00  0.00    +0.000 C 
BRANCH   3   7
ATOM      5  C   UNL     1       6.660   4.671  17.442  0.00  0.00    +0.000 A 
ATOM      6  C   UNL     1       5.546   4.190  18.156  0.00  0.00    +0.000 A 
ATOM      7  C   UNL     1       4.361   3.850  17.505  0.00  0.00    +0.000 A 
ATOM      8  C   UNL     1       4.282   4.019  16.121  0.00  0.00    +0.000 A 
ATOM      9  C   UNL     1       5.361   4.555  15.413  0.00  0.00    +0.000 A 
ATOM     10  C   UNL     1       6.574   4.837  16.048  0.00  0.00    +0.000 A 
BRANCH  10  11
ATOM     11  N   UNL     1       7.598   5.464  15.316  0.00  0.00    +0.000 N 
ATOM     12  H   UNL     1       8.140   4.839  14.732  0.00  0.00    +0.000 HD
ATOM     13  H   UNL     1       8.173   6.062  15.912  0.00  0.00    +0.000 HD
ENDBRANCH  10  11
BRANCH   5  15
ATOM     14  C   UNL     1       7.739   5.845  19.183  0.00  0.00    +0.000 C 
ATOM     15  O   UNL     1       7.858   4.985  18.047  0.00  0.00    +0.000 OA
ENDBRANCH   5  15
ENDBRANCH   3   7
ENDBRANCH   1   4
BRANCH   1  16
ATOM     16  O   UNL     1       0.891   4.107  20.246  0.00  0.00    +0.000 OA
BRANCH  16  17
ATOM     17  C   UNL     1       2.072   4.882  20.500  0.00  0.00    +0.000 C 
BRANCH  17  18
ATOM     18  C   UNL     1       1.636   6.242  21.066  0.00  0.00    +0.000 C 
BRANCH  18  19
ATOM     19  C   UNL     1       1.737   7.373  20.059  0.00  0.00    +0.000 A 
ATOM     20  C   UNL     1       2.466   7.216  18.879  0.00  0.00    +0.000 A 
ATOM     21  C   UNL     1       2.575   8.272  17.970  0.00  0.00    +0.000 A 
ATOM     22  C   UNL     1       1.949   9.497  18.226  0.00  0.00    +0.000 A 
ATOM     23  C   UNL     1       1.203   9.676  19.394  0.00  0.00    +0.000 A 
ATOM     24  C   UNL     1       1.104   8.605  20.297  0.00  0.00    +0.000 A 
BRANCH  22  25
ATOM     25  O   UNL     1       2.089  10.496  17.303  0.00  0.00    +0.000 OA
ATOM     26  H   UNL     1       1.535  10.298  16.531  0.00  0.00    +0.000 HD
ENDBRANCH  22  25
BRANCH  23  27
ATOM     27  O   UNL     1       0.528  10.793  19.811  0.00  0.00    +0.000 OA
ATOM     28  C   UNL     1      -0.722  11.090  19.205  0.00  0.00    +0.000 C 
ENDBRANCH  23  27
ENDBRANCH  18  19
ENDBRANCH  17  18
ENDBRANCH  16  17
ENDBRANCH   1  16
TORSDOF 10
ENDMDL
MODEL 7
REMARK VINA RESULT:      -7.3      5.585      7.783
REMARK  Name = 
REMARK  12 active torsions:
REMARK  status: ('A' for Active; 'I' for Inactive)
REMARK    1  A    between atoms: C_1  and  O_2
REMARK    2  A    between atoms: O_2  and  C_3
REMARK    3  A    between atoms: C_5  and  C_6
REMARK    4  A    between atoms: C_7  and  C_8
REMARK    5  A    between atoms: C_8  and  O_10
REMARK    6  A    between atoms: O_10  and  C_11
REMARK    7  A    between atoms: C_11  and  C_12
REMARK    8  A    between atoms: C_12  and  C_13
REMARK    9  A    between atoms: C_16  and  O_17
REMARK   10  A    between atoms: C_18  and  O_19
REMARK   11  A    between atoms: O_19  and  C_20
REMARK   12  A    between atoms: C_24  and  N_25
REMARK                            x       y       z     vdW  Elec       q    Type
REMARK                         _______ _______ _______ _____ _____    ______ ____
ROOT
ATOM      1  C   UNL     1       1.703   3.001  18.214  0.00  0.00    +0.000 C 
ATOM      2  O   UNL     1       1.290   1.931  18.624  0.00  0.00    +0.000 OA
ENDROOT
BRANCH   1   4
ATOM      3  C   UNL     1       3.934   3.868  17.665  0.00  0.00    +0.000 C 
ATOM      4  C   UNL     1       2.835   3.199  17.291  0.00  0.00    +0.000 C 
BRANCH   3   7
ATOM      5  C   UNL     1       6.089   4.009  14.534  0.00  0.00    +0.000 A 
ATOM      6  C   UNL     1       5.107   3.611  15.460  0.00  0.00    +0.000 A 
ATOM      7  C   UNL     1       5.016   4.205  16.718  0.00  0.00    +0.000 A 
ATOM      8  C   UNL     1       5.938   5.195  17.063  0.00  0.00    +0.000 A 
ATOM      9  C   UNL     1       6.955   5.551  16.173  0.00  0.00    +0.000 A 
ATOM     10  C   UNL     1       7.014   5.008  14.887  0.00  0.00    +0.000 A 
BRANCH  10  11
ATOM     11  N   UNL     1       8.109   5.323  14.062  0.00  0.00    +0.000 N 
ATOM     12  H   UNL     1       8.645   6.127  14.365  0.00  0.00    +0.000 HD
ATOM     13  H   UNL     1       7.837   5.365  13.078  0.00  0.00    +0.000 HD
ENDBRANCH  10  11
BRANCH   5  15
ATOM     14  C   UNL     1       5.016   3.625  12.467  0.00  0.00    +0.000 C 
ATOM     15  O   UNL     1       6.189   3.469  13.270  0.00  0.00    +0.000 OA
ENDBRANCH   5  15
ENDBRANCH   3   7
ENDBRANCH   1   4
BRANCH   1  16
ATOM     16  O   UNL     1       1.343   4.232  18.644  0.00  0.00    +0.000 OA
BRANCH  16  17
ATOM     17  C   UNL     1       1.323   4.401  20.069  0.00  0.00    +0.000 C 
BRANCH  17  18
ATOM     18  C   UNL     1       2.382   5.451  20.439  0.00  0.00    +0.000 C 
BRANCH  18  19
ATOM     19  C   UNL     1       2.238   6.748  19.665  0.00  0.00    +0.000 A 
ATOM     20  C   UNL     1       2.782   6.882  18.385  0.00  0.00    +0.000 A 
ATOM     21  C   UNL     1       2.666   8.089  17.692  0.00  0.00    +0.000 A 
ATOM     22  C   UNL     1       2.000   9.178  18.265  0.00  0.00    +0.000 A 
ATOM     23  C   UNL     1       1.437   9.067  19.539  0.00  0.00    +0.000 A 
ATOM     24  C   UNL     1       1.562   7.847  20.223  0.00  0.00    +0.000 A 
BRANCH  22  25
ATOM     25  O   UNL     1       1.917  10.335  17.542  0.00  0.00    +0.000 OA
ATOM     26  H   UNL     1       1.772  11.080  18.146  0.00  0.00    +0.000 HD
ENDBRANCH  22  25
BRANCH  23  27
ATOM     27  O   UNL     1       0.755  10.015  20.255  0.00  0.00    +0.000 OA
ATOM     28  C   UNL     1      -0.633  10.182  20.003  0.00  0.00    +0.000 C 
ENDBRANCH  23  27
ENDBRANCH  18  19
ENDBRANCH  17  18
ENDBRANCH  16  17
ENDBRANCH   1  16
TORSDOF 10
ENDMDL
MODEL 8
REMARK VINA RESULT:      -7.2      1.653      2.190
REMARK  Name = 
REMARK  12 active torsions:
REMARK  status: ('A' for Active; 'I' for Inactive)
REMARK    1  A    between atoms: C_1  and  O_2
REMARK    2  A    between atoms: O_2  and  C_3
REMARK    3  A    between atoms: C_5  and  C_6
REMARK    4  A    between atoms: C_7  and  C_8
REMARK    5  A    between atoms: C_8  and  O_10
REMARK    6  A    between atoms: O_10  and  C_11
REMARK    7  A    between atoms: C_11  and  C_12
REMARK    8  A    between atoms: C_12  and  C_13
REMARK    9  A    between atoms: C_16  and  O_17
REMARK   10  A    between atoms: C_18  and  O_19
REMARK   11  A    between atoms: O_19  and  C_20
REMARK   12  A    between atoms: C_24  and  N_25
REMARK                            x       y       z     vdW  Elec       q    Type
REMARK                         _______ _______ _______ _____ _____    ______ ____
ROOT
ATOM      1  C   UNL     1       7.315   7.085  17.365  0.00  0.00    +0.000 C 
ATOM      2  O   UNL     1       7.607   6.035  16.820  0.00  0.00    +0.000 OA
ENDROOT
BRANCH   1   4
ATOM      3  C   UNL     1       8.019   9.345  18.014  0.00  0.00    +0.000 C 
ATOM      4  C   UNL     1       8.257   8.028  17.994  0.00  0.00    +0.000 C 
BRANCH   3   7
ATOM      5  C   UNL     1      10.048  11.597  20.312  0.00  0.00    +0.000 A 
ATOM      6  C   UNL     1       9.040  10.737  19.837  0.00  0.00    +0.000 A 
ATOM      7  C   UNL     1       9.011  10.322  18.506  0.00  0.00    +0.000 A 
ATOM      8  C   UNL     1       9.992  10.795  17.633  0.00  0.00    +0.000 A 
ATOM      9  C   UNL     1      10.959  11.698  18.081  0.00  0.00    +0.000 A 
ATOM     10  C   UNL     1      11.034  12.069  19.426  0.00  0.00    +0.000 A 
BRANCH  10  11
ATOM     11  N   UNL     1      11.962  13.053  19.813  0.00  0.00    +0.000 N 
ATOM     12  H   UNL     1      12.146  13.087  20.808  0.00  0.00    +0.000 HD
ATOM     13  H   UNL     1      11.731  13.964  19.413  0.00  0.00    +0.000 HD
ENDBRANCH  10  11
BRANCH   5  15
ATOM     14  C   UNL     1       9.126  12.943  22.018  0.00  0.00    +0.000 C 
ATOM     15  O   UNL     1      10.128  12.002  21.627  0.00  0.00    +0.000 OA
ENDBRANCH   5  15
ENDBRANCH   3   7
ENDBRANCH   1   4
BRANCH   1  16
ATOM     16  O   UNL     1       6.074   7.527  17.669  0.00  0.00    +0.000 OA
BRANCH  16  17
ATOM     17  C   UNL     1       5.000   6.831  17.019  0.00  0.00    +0.000 C 
BRANCH  17  18
ATOM     18  C   UNL     1       3.674   7.380  17.569  0.00  0.00    +0.000 C 
BRANCH  18  19
ATOM     19  C   UNL     1       2.893   6.363  18.380  0.00  0.00    +0.000 A 
ATOM     20  C   UNL     1       2.521   6.632  19.699  0.00  0.00    +0.000 A 
ATOM     21  C   UNL     1       1.824   5.679  20.445  0.00  0.00    +0.000 A 
ATOM     22  C   UNL     1       1.483   4.444  19.881  0.00  0.00    +0.000 A 
ATOM     23  C   UNL     1       1.834   4.154  18.560  0.00  0.00    +0.000 A 
ATOM     24  C   UNL     1       2.534   5.123  17.823  0.00  0.00    +0.000 A 
BRANCH  22  25
ATOM     25  O   UNL     1       0.803   3.548  20.657  0.00  0.00    +0.000 OA
ATOM     26  H   UNL     1       1.436   2.950  21.085  0.00  0.00    +0.000 HD
ENDBRANCH  22  25
BRANCH  23  27
ATOM     27  O   UNL     1       1.590   3.011  17.845  0.00  0.00    +0.000 OA
ATOM     28  C   UNL     1       2.603   2.016  17.798  0.00  0.00    +0.000 C 
ENDBRANCH  23  27
ENDBRANCH  18  19
ENDBRANCH  17  18
ENDBRANCH  16  17
ENDBRANCH   1  16
TORSDOF 10
ENDMDL
MODEL 9
REMARK VINA RESULT:      -7.2      5.121      6.526
REMARK  Name = 
REMARK  12 active torsions:
REMARK  status: ('A' for Active; 'I' for Inactive)
REMARK    1  A    between atoms: C_1  and  O_2
REMARK    2  A    between atoms: O_2  and  C_3
REMARK    3  A    between atoms: C_5  and  C_6
REMARK    4  A    between atoms: C_7  and  C_8
REMARK    5  A    between atoms: C_8  and  O_10
REMARK    6  A    between atoms: O_10  and  C_11
REMARK    7  A    between atoms: C_11  and  C_12
REMARK    8  A    between atoms: C_12  and  C_13
REMARK    9  A    between atoms: C_16  and  O_17
REMARK   10  A    between atoms: C_18  and  O_19
REMARK   11  A    between atoms: O_19  and  C_20
REMARK   12  A    between atoms: C_24  and  N_25
REMARK                            x       y       z     vdW  Elec       q    Type
REMARK                         _______ _______ _______ _____ _____    ______ ____
ROOT
ATOM      1  C   UNL     1       5.286   6.758  16.346  0.00  0.00    +0.000 C 
ATOM      2  O   UNL     1       5.072   6.920  15.157  0.00  0.00    +0.000 OA
ENDROOT
BRANCH   1   4
ATOM      3  C   UNL     1       3.151   7.290  17.435  0.00  0.00    +0.000 C 
ATOM      4  C   UNL     1       4.490   7.312  17.455  0.00  0.00    +0.000 C 
BRANCH   3   7
ATOM      5  C   UNL     1       0.744   9.691  19.139  0.00  0.00    +0.000 A 
ATOM      6  C   UNL     1       1.591   9.111  18.177  0.00  0.00    +0.000 A 
ATOM      7  C   UNL     1       2.333   7.966  18.461  0.00  0.00    +0.000 A 
ATOM      8  C   UNL     1       2.244   7.407  19.738  0.00  0.00    +0.000 A 
ATOM      9  C   UNL     1       1.454   8.013  20.719  0.00  0.00    +0.000 A 
ATOM     10  C   UNL     1       0.658   9.122  20.424  0.00  0.00    +0.000 A 
BRANCH  10  11
ATOM     11  N   UNL     1      -0.045   9.756  21.464  0.00  0.00    +0.000 N 
ATOM     12  H   UNL     1      -0.318  10.710  21.266  0.00  0.00    +0.000 HD
ATOM     13  H   UNL     1       0.435   9.650  22.360  0.00  0.00    +0.000 HD
ENDBRANCH  10  11
BRANCH   5  15
ATOM     14  C   UNL     1      -1.200  10.542  18.107  0.00  0.00    +0.000 C 
ATOM     15  O   UNL     1      -0.029  10.803  18.884  0.00  0.00    +0.000 OA
ENDBRANCH   5  15
ENDBRANCH   3   7
ENDBRANCH   1   4
BRANCH   1  16
ATOM     16  O   UNL     1       6.382   6.197  16.907  0.00  0.00    +0.000 OA
BRANCH  16  17
ATOM     17  C   UNL     1       6.194   5.686  18.234  0.00  0.00    +0.000 C 
BRANCH  17  18
ATOM     18  C   UNL     1       6.063   4.157  18.142  0.00  0.00    +0.000 C 
BRANCH  18  19
ATOM     19  C   UNL     1       4.628   3.671  18.228  0.00  0.00    +0.000 A 
ATOM     20  C   UNL     1       3.810   3.651  17.096  0.00  0.00    +0.000 A 
ATOM     21  C   UNL     1       2.483   3.226  17.190  0.00  0.00    +0.000 A 
ATOM     22  C   UNL     1       1.956   2.808  18.417  0.00  0.00    +0.000 A 
ATOM     23  C   UNL     1       2.756   2.808  19.563  0.00  0.00    +0.000 A 
ATOM     24  C   UNL     1       4.088   3.238  19.451  0.00  0.00    +0.000 A 
BRANCH  22  25
ATOM     25  O   UNL     1       0.651   2.404  18.453  0.00  0.00    +0.000 OA
ATOM     26  H   UNL     1       0.359   2.346  19.376  0.00  0.00    +0.000 HD
ENDBRANCH  22  25
BRANCH  23  27
ATOM     27  O   UNL     1       2.418   2.438  20.838  0.00  0.00    +0.000 OA
ATOM     28  C   UNL     1       1.942   3.439  21.726  0.00  0.00    +0.000 C 
ENDBRANCH  23  27
ENDBRANCH  18  19
ENDBRANCH  17  18
ENDBRANCH  16  17
ENDBRANCH   1  16
TORSDOF 10
ENDMDL
