MODEL 1
REMARK VINA RESULT:      -7.5      0.000      0.000
REMARK  Name = 
REMARK  6 active torsions:
REMARK  status: ('A' for Active; 'I' for Inactive)
REMARK    1  A    between atoms: C_1  and  C_2
REMARK    2  A    between atoms: C_2  and  O_3
REMARK    3  A    between atoms: O_3  and  C_4
REMARK    4  A    between atoms: C_4  and  C_6
REMARK    5  A    between atoms: C_9  and  N_10
REMARK    6  A    between atoms: N_10  and  C_11
REMARK                            x       y       z     vdW  Elec       q    Type
REMARK                         _______ _______ _______ _____ _____    ______ ____
ROOT
ATOM      1  N   UNL     1       2.126   8.169  20.505  0.00  0.00    +0.000 N 
ATOM      2  H   UNL     1       2.987   8.555  20.091  0.00  0.00    +0.000 HD
ENDROOT
BRANCH   1   3
ATOM      3  C   UNL     1       1.123   9.143  20.432  0.00  0.00    +0.000 C 
ATOM      4  C   UNL     1       0.723   9.814  19.331  0.00  0.00    +0.000 C 
ATOM      5 CL   UNL     1       1.387   9.470  17.766  0.00  0.00    +0.000 Cl
ATOM      6  C   UNL     1      -0.303  10.890  19.371  0.00  0.00    +0.000 C 
ATOM      7  O   UNL     1      -0.661  11.505  18.372  0.00  0.00    +0.000 OA
ATOM      8  C   UNL     1      -0.886  11.234  20.675  0.00  0.00    +0.000 A 
ATOM      9  C   UNL     1      -1.803  12.283  20.771  0.00  0.00    +0.000 A 
ATOM     10  C   UNL     1      -2.324  12.575  22.017  0.00  0.00    +0.000 A 
ATOM     11  N   UNL     1      -1.993  11.898  23.137  0.00  0.00    +0.000 NA
ATOM     12  C   UNL     1      -1.100  10.885  23.013  0.00  0.00    +0.000 A 
ATOM     13  C   UNL     1      -0.524  10.524  21.807  0.00  0.00    +0.000 A 
ATOM     14  C   UNL     1       0.451   9.434  21.739  0.00  0.00    +0.000 C 
ATOM     15  O   UNL     1       0.742   8.787  22.742  0.00  0.00    +0.000 OA
ENDBRANCH   1   3
BRANCH   1  19
ATOM     16  C   UNL     1       1.750   4.240  18.967  0.00  0.00    +0.000 A 
ATOM     17  C   UNL     1       2.297   5.248  18.168  0.00  0.00    +0.000 A 
ATOM     18  C   UNL     1       2.403   6.551  18.654  0.00  0.00    +0.000 A 
ATOM     19  C   UNL     1       1.945   6.875  19.938  0.00  0.00    +0.000 A 
ATOM     20  C   UNL     1       1.409   5.860  20.739  0.00  0.00    +0.000 A 
ATOM     21  C   UNL     1       1.297   4.552  20.254  0.00  0.00    +0.000 A 
BRANCH  16  22
ATOM     22  C   UNL     1       1.646   2.881  18.376  0.00  0.00    +0.000 C 
ATOM     23  O   UNL     1       0.635   2.199  18.438  0.00  0.00    +0.000 OA
BRANCH  22  24
ATOM     24  O   UNL     1       2.840   2.497  17.862  0.00  0.00    +0.000 OA
BRANCH  24  26
ATOM     25  C   UNL     1       4.357   2.213  19.683  0.00  0.00    +0.000 C 
ATOM     26  C   UNL     1       3.531   1.501  18.627  0.00  0.00    +0.000 C 
ENDBRANCH  24  26
ENDBRANCH  22  24
ENDBRANCH  16  22
ENDBRANCH   1  19
TORSDOF 5
ENDMDL
MODEL 2
REMARK VINA RESULT:      -7.3      6.160      8.512
REMARK  Name = 
REMARK  6 active torsions:
REMARK  status: ('A' for Active; 'I' for Inactive)
REMARK    1  A    between atoms: C_1  and  C_2
REMARK    2  A    between atoms: C_2  and  O_3
REMARK    3  A    between atoms: O_3  and  C_4
REMARK    4  A    between atoms: C_4  and  C_6
REMARK    5  A    between atoms: C_9  and  N_10
REMARK    6  A    between atoms: N_10  and  C_11
REMARK                            x       y       z     vdW  Elec       q    Type
REMARK                         _______ _______ _______ _____ _____    ______ ____
ROOT
ATOM      1  N   UNL     1       6.626   4.293  17.903  0.00  0.00    +0.000 N 
ATOM      2  H   UNL     1       7.149   3.729  18.589  0.00  0.00    +0.000 HD
ENDROOT
BRANCH   1   3
ATOM      3  C   UNL     1       5.270   3.952  17.991  0.00  0.00    +0.000 C 
ATOM      4  C   UNL     1       4.394   3.843  16.971  0.00  0.00    +0.000 C 
ATOM      5 CL   UNL     1       4.889   4.042  15.321  0.00  0.00    +0.000 Cl
ATOM      6  C   UNL     1       2.950   3.549  17.176  0.00  0.00    +0.000 C 
ATOM      7  O   UNL     1       2.152   3.458  16.250  0.00  0.00    +0.000 OA
ATOM      8  C   UNL     1       2.473   3.388  18.556  0.00  0.00    +0.000 A 
ATOM      9  C   UNL     1       1.113   3.179  18.802  0.00  0.00    +0.000 A 
ATOM     10  C   UNL     1       0.707   3.036  20.114  0.00  0.00    +0.000 A 
ATOM     11  N   UNL     1       1.555   3.086  21.163  0.00  0.00    +0.000 NA
ATOM     12  C   UNL     1       2.868   3.291  20.895  0.00  0.00    +0.000 A 
ATOM     13  C   UNL     1       3.366   3.448  19.613  0.00  0.00    +0.000 A 
ATOM     14  C   UNL     1       4.792   3.689  19.386  0.00  0.00    +0.000 C 
ATOM     15  O   UNL     1       5.583   3.708  20.326  0.00  0.00    +0.000 OA
ENDBRANCH   1   3
BRANCH   1  19
ATOM     16  C   UNL     1       8.053   8.272  18.180  0.00  0.00    +0.000 A 
ATOM     17  C   UNL     1       8.453   7.324  19.126  0.00  0.00    +0.000 A 
ATOM     18  C   UNL     1       7.970   6.017  19.060  0.00  0.00    +0.000 A 
ATOM     19  C   UNL     1       7.063   5.639  18.062  0.00  0.00    +0.000 A 
ATOM     20  C   UNL     1       6.674   6.588  17.109  0.00  0.00    +0.000 A 
ATOM     21  C   UNL     1       7.153   7.901  17.173  0.00  0.00    +0.000 A 
BRANCH  16  22
ATOM     22  C   UNL     1       8.588   9.649  18.325  0.00  0.00    +0.000 C 
ATOM     23  O   UNL     1       8.365  10.542  17.523  0.00  0.00    +0.000 OA
BRANCH  22  24
ATOM     24  O   UNL     1       9.411   9.726  19.399  0.00  0.00    +0.000 OA
BRANCH  24  26
ATOM     25  C   UNL     1      10.894  11.570  19.710  0.00  0.00    +0.000 C 
ATOM     26  C   UNL     1       9.505  11.026  19.993  0.00  0.00    +0.000 C 
ENDBRANCH  24  26
ENDBRANCH  22  24
ENDBRANCH  16  22
ENDBRANCH   1  19
TORSDOF 5
ENDMDL
MODEL 3
REMARK VINA RESULT:      -7.2      2.717      3.807
REMARK  Name = 
REMARK  6 active torsions:
REMARK  status: ('A' for Active; 'I' for Inactive)
REMARK    1  A    between atoms: C_1  and  C_2
REMARK    2  A    between atoms: C_2  and  O_3
REMARK    3  A    between atoms: O_3  and  C_4
REMARK    4  A    between atoms: C_4  and  C_6
REMARK    5  A    between atoms: C_9  and  N_10
REMARK    6  A    between atoms: N_10  and  C_11
REMARK                            x       y       z     vdW  Elec       q    Type
REMARK                         _______ _______ _______ _____ _____    ______ ____
ROOT
ATOM      1  N   UNL     1       0.839  10.719  18.209  0.00  0.00    +0.000 N 
ATOM      2  H   UNL     1       0.740  10.671  17.184  0.00  0.00    +0.000 HD
ENDROOT
BRANCH   1   3
ATOM      3  C   UNL     1      -0.309  11.323  18.737  0.00  0.00    +0.000 C 
ATOM      4  C   UNL     1      -0.369  12.174  19.782  0.00  0.00    +0.000 C 
ATOM      5 CL   UNL     1       1.063  12.722  20.593  0.00  0.00    +0.000 Cl
ATOM      6  C   UNL     1      -1.652  12.703  20.318  0.00  0.00    +0.000 C 
ATOM      7  O   UNL     1      -1.708  13.471  21.273  0.00  0.00    +0.000 OA
ATOM      8  C   UNL     1      -2.898  12.258  19.679  0.00  0.00    +0.000 A 
ATOM      9  C   UNL     1      -4.129  12.674  20.191  0.00  0.00    +0.000 A 
ATOM     10  C   UNL     1      -5.276  12.230  19.561  0.00  0.00    +0.000 A 
ATOM     11  N   UNL     1      -5.263  11.419  18.482  0.00  0.00    +0.000 NA
ATOM     12  C   UNL     1      -4.054  11.030  18.008  0.00  0.00    +0.000 A 
ATOM     13  C   UNL     1      -2.854  11.423  18.575  0.00  0.00    +0.000 A 
ATOM     14  C   UNL     1      -1.578  10.953  18.032  0.00  0.00    +0.000 C 
ATOM     15  O   UNL     1      -1.546  10.239  17.032  0.00  0.00    +0.000 OA
ENDBRANCH   1   3
BRANCH   1  19
ATOM     16  C   UNL     1       2.257   6.987  19.627  0.00  0.00    +0.000 A 
ATOM     17  C   UNL     1       2.477   7.353  18.295  0.00  0.00    +0.000 A 
ATOM     18  C   UNL     1       1.994   8.568  17.810  0.00  0.00    +0.000 A 
ATOM     19  C   UNL     1       1.263   9.429  18.639  0.00  0.00    +0.000 A 
ATOM     20  C   UNL     1       1.054   9.065  19.974  0.00  0.00    +0.000 A 
ATOM     21  C   UNL     1       1.535   7.845  20.465  0.00  0.00    +0.000 A 
BRANCH  16  22
ATOM     22  C   UNL     1       2.779   5.669  20.068  0.00  0.00    +0.000 C 
ATOM     23  O   UNL     1       3.788   5.160  19.606  0.00  0.00    +0.000 OA
BRANCH  22  24
ATOM     24  O   UNL     1       1.934   5.101  20.962  0.00  0.00    +0.000 OA
BRANCH  24  26
ATOM     25  C   UNL     1       1.452   2.799  21.367  0.00  0.00    +0.000 C 
ATOM     26  C   UNL     1       1.187   3.986  20.459  0.00  0.00    +0.000 C 
ENDBRANCH  24  26
ENDBRANCH  22  24
ENDBRANCH  16  22
ENDBRANCH   1  19
TORSDOF 5
ENDMDL
MODEL 4
REMARK VINA RESULT:      -7.2      5.042      7.548
REMARK  Name = 
REMARK  6 active torsions:
REMARK  status: ('A' for Active; 'I' for Inactive)
REMARK    1  A    between atoms: C_1  and  C_2
REMARK    2  A    between atoms: C_2  and  O_3
REMARK    3  A    between atoms: O_3  and  C_4
REMARK    4  A    between atoms: C_4  and  C_6
REMARK    5  A    between atoms: C_9  and  N_10
REMARK    6  A    between atoms: N_10  and  C_11
REMARK                            x       y       z     vdW  Elec       q    Type
REMARK                         _______ _______ _______ _____ _____    ______ ____
ROOT
ATOM      1  N   UNL     1       6.183   5.008  17.796  0.00  0.00    +0.000 N 
ATOM      2  H   UNL     1       6.570   5.954  17.921  0.00  0.00    +0.000 HD
ENDROOT
BRANCH   1   3
ATOM      3  C   UNL     1       4.918   4.963  18.396  0.00  0.00    +0.000 C 
ATOM      4  C   UNL     1       3.943   5.890  18.301  0.00  0.00    +0.000 C 
ATOM      5 CL   UNL     1       4.118   7.295  17.299  0.00  0.00    +0.000 Cl
ATOM      6  C   UNL     1       2.657   5.787  19.041  0.00  0.00    +0.000 C 
ATOM      7  O   UNL     1       1.774   6.634  18.962  0.00  0.00    +0.000 OA
ATOM      8  C   UNL     1       2.463   4.625  19.920  0.00  0.00    +0.000 A 
ATOM      9  C   UNL     1       1.300   4.520  20.686  0.00  0.00    +0.000 A 
ATOM     10  C   UNL     1       1.159   3.413  21.500  0.00  0.00    +0.000 A 
ATOM     11  N   UNL     1       2.085   2.435  21.589  0.00  0.00    +0.000 NA
ATOM     12  C   UNL     1       3.203   2.564  20.834  0.00  0.00    +0.000 A 
ATOM     13  C   UNL     1       3.432   3.639  19.992  0.00  0.00    +0.000 A 
ATOM     14  C   UNL     1       4.670   3.735  19.217  0.00  0.00    +0.000 C 
ATOM     15  O   UNL     1       5.510   2.839  19.261  0.00  0.00    +0.000 OA
ENDBRANCH   1   3
BRANCH   1  19
ATOM     16  C   UNL     1       6.654   4.220  13.661  0.00  0.00    +0.000 A 
ATOM     17  C   UNL     1       5.649   3.568  14.381  0.00  0.00    +0.000 A 
ATOM     18  C   UNL     1       5.500   3.800  15.748  0.00  0.00    +0.000 A 
ATOM     19  C   UNL     1       6.365   4.670  16.424  0.00  0.00    +0.000 A 
ATOM     20  C   UNL     1       7.362   5.329  15.697  0.00  0.00    +0.000 A 
ATOM     21  C   UNL     1       7.518   5.097  14.326  0.00  0.00    +0.000 A 
BRANCH  16  22
ATOM     22  C   UNL     1       6.770   3.907  12.214  0.00  0.00    +0.000 C 
ATOM     23  O   UNL     1       7.290   4.659  11.405  0.00  0.00    +0.000 OA
BRANCH  22  24
ATOM     24  O   UNL     1       6.141   2.740  11.931  0.00  0.00    +0.000 OA
BRANCH  24  26
ATOM     25  C   UNL     1       6.164   0.476  11.174  0.00  0.00    +0.000 C 
ATOM     26  C   UNL     1       6.945   1.777  11.238  0.00  0.00    +0.000 C 
ENDBRANCH  24  26
ENDBRANCH  22  24
ENDBRANCH  16  22
ENDBRANCH   1  19
TORSDOF 5
ENDMDL
MODEL 5
REMARK VINA RESULT:      -7.2      2.476      3.340
REMARK  Name = 
REMARK  6 active torsions:
REMARK  status: ('A' for Active; 'I' for Inactive)
REMARK    1  A    between atoms: C_1  and  C_2
REMARK    2  A    between atoms: C_2  and  O_3
REMARK    3  A    between atoms: O_3  and  C_4
REMARK    4  A    between atoms: C_4  and  C_6
REMARK    5  A    between atoms: C_9  and  N_10
REMARK    6  A    between atoms: N_10  and  C_11
REMARK                            x       y       z     vdW  Elec       q    Type
REMARK                         _______ _______ _______ _____ _____    ______ ____
ROOT
ATOM      1  N   UNL     1       0.925  10.912  18.402  0.00  0.00    +0.000 N 
ATOM      2  H   UNL     1       0.935  10.940  17.372  0.00  0.00    +0.000 HD
ENDROOT
BRANCH   1   3
ATOM      3  C   UNL     1      -0.329  11.350  18.846  0.00  0.00    +0.000 C 
ATOM      4  C   UNL     1      -1.532  11.002  18.345  0.00  0.00    +0.000 C 
ATOM      5 CL   UNL     1      -1.685   9.838  17.068  0.00  0.00    +0.000 Cl
ATOM      6  C   UNL     1      -2.809  11.583  18.839  0.00  0.00    +0.000 C 
ATOM      7  O   UNL     1      -3.903  11.274  18.378  0.00  0.00    +0.000 OA
ATOM      8  C   UNL     1      -2.737  12.588  19.908  0.00  0.00    +0.000 A 
ATOM      9  C   UNL     1      -3.904  13.211  20.356  0.00  0.00    +0.000 A 
ATOM     10  C   UNL     1      -3.791  14.152  21.362  0.00  0.00    +0.000 A 
ATOM     11  N   UNL     1      -2.614  14.494  21.928  0.00  0.00    +0.000 NA
ATOM     12  C   UNL     1      -1.499  13.874  21.473  0.00  0.00    +0.000 A 
ATOM     13  C   UNL     1      -1.515  12.922  20.468  0.00  0.00    +0.000 A 
ATOM     14  C   UNL     1      -0.274  12.301  20.002  0.00  0.00    +0.000 C 
ATOM     15  O   UNL     1       0.802  12.577  20.527  0.00  0.00    +0.000 OA
ENDBRANCH   1   3
BRANCH   1  19
ATOM     16  C   UNL     1       2.303   7.029  19.387  0.00  0.00    +0.000 A 
ATOM     17  C   UNL     1       1.673   7.809  20.361  0.00  0.00    +0.000 A 
ATOM     18  C   UNL     1       1.238   9.099  20.056  0.00  0.00    +0.000 A 
ATOM     19  C   UNL     1       1.443   9.639  18.780  0.00  0.00    +0.000 A 
ATOM     20  C   UNL     1       2.063   8.850  17.804  0.00  0.00    +0.000 A 
ATOM     21  C   UNL     1       2.505   7.557  18.107  0.00  0.00    +0.000 A 
BRANCH  16  22
ATOM     22  C   UNL     1       2.761   5.675  19.789  0.00  0.00    +0.000 C 
ATOM     23  O   UNL     1       3.623   5.054  19.187  0.00  0.00    +0.000 OA
BRANCH  22  24
ATOM     24  O   UNL     1       2.028   5.218  20.834  0.00  0.00    +0.000 OA
BRANCH  24  26
ATOM     25  C   UNL     1       1.611   2.966  21.504  0.00  0.00    +0.000 C 
ATOM     26  C   UNL     1       1.217   4.074  20.543  0.00  0.00    +0.000 C 
ENDBRANCH  24  26
ENDBRANCH  22  24
ENDBRANCH  16  22
ENDBRANCH   1  19
TORSDOF 5
ENDMDL
MODEL 6
REMARK VINA RESULT:      -7.1      2.652      3.774
REMARK  Name = 
REMARK  6 active torsions:
REMARK  status: ('A' for Active; 'I' for Inactive)
REMARK    1  A    between atoms: C_1  and  C_2
REMARK    2  A    between atoms: C_2  and  O_3
REMARK    3  A    between atoms: O_3  and  C_4
REMARK    4  A    between atoms: C_4  and  C_6
REMARK    5  A    between atoms: C_9  and  N_10
REMARK    6  A    between atoms: N_10  and  C_11
REMARK                            x       y       z     vdW  Elec       q    Type
REMARK                         _______ _______ _______ _____ _____    ______ ____
ROOT
ATOM      1  N   UNL     1       0.948  10.473  17.997  0.00  0.00    +0.000 N 
ATOM      2  H   UNL     1       0.697  10.248  17.023  0.00  0.00    +0.000 HD
ENDROOT
BRANCH   1   3
ATOM      3  C   UNL     1      -0.125  11.154  18.586  0.00  0.00    +0.000 C 
ATOM      4  C   UNL     1      -0.063  12.036  19.605  0.00  0.00    +0.000 C 
ATOM      5 CL   UNL     1       1.451  12.526  20.295  0.00  0.00    +0.000 Cl
ATOM      6  C   UNL     1      -1.273  12.651  20.214  0.00  0.00    +0.000 C 
ATOM      7  O   UNL     1      -1.219  13.447  21.145  0.00  0.00    +0.000 OA
ATOM      8  C   UNL     1      -2.584  12.258  19.680  0.00  0.00    +0.000 A 
ATOM      9  C   UNL     1      -3.751  12.756  20.264  0.00  0.00    +0.000 A 
ATOM     10  C   UNL     1      -4.962  12.359  19.732  0.00  0.00    +0.000 A 
ATOM     11  N   UNL     1      -5.071  11.519  18.681  0.00  0.00    +0.000 NA
ATOM     12  C   UNL     1      -3.923  11.051  18.135  0.00  0.00    +0.000 A 
ATOM     13  C   UNL     1      -2.665  11.391  18.603  0.00  0.00    +0.000 A 
ATOM     14  C   UNL     1      -1.460  10.836  17.985  0.00  0.00    +0.000 C 
ATOM     15  O   UNL     1      -1.538  10.094  17.009  0.00  0.00    +0.000 OA
ENDBRANCH   1   3
BRANCH   1  19
ATOM     16  C   UNL     1       2.348   6.800  19.575  0.00  0.00    +0.000 A 
ATOM     17  C   UNL     1       1.692   7.708  20.411  0.00  0.00    +0.000 A 
ATOM     18  C   UNL     1       1.249   8.932  19.909  0.00  0.00    +0.000 A 
ATOM     19  C   UNL     1       1.472   9.278  18.570  0.00  0.00    +0.000 A 
ATOM     20  C   UNL     1       2.118   8.360  17.734  0.00  0.00    +0.000 A 
ATOM     21  C   UNL     1       2.568   7.133  18.234  0.00  0.00    +0.000 A 
BRANCH  16  22
ATOM     22  C   UNL     1       2.814   5.527  20.183  0.00  0.00    +0.000 C 
ATOM     23  O   UNL     1       3.893   5.018  19.926  0.00  0.00    +0.000 OA
BRANCH  22  24
ATOM     24  O   UNL     1       1.843   4.993  20.963  0.00  0.00    +0.000 OA
BRANCH  24  26
ATOM     25  C   UNL     1       1.399   2.674  20.615  0.00  0.00    +0.000 C 
ATOM     26  C   UNL     1       0.959   4.089  20.288  0.00  0.00    +0.000 C 
ENDBRANCH  24  26
ENDBRANCH  22  24
ENDBRANCH  16  22
ENDBRANCH   1  19
TORSDOF 5
ENDMDL
MODEL 7
REMARK VINA RESULT:      -7.1      2.437      3.168
REMARK  Name = 
REMARK  6 active torsions:
REMARK  status: ('A' for Active; 'I' for Inactive)
REMARK    1  A    between atoms: C_1  and  C_2
REMARK    2  A    between atoms: C_2  and  O_3
REMARK    3  A    between atoms: O_3  and  C_4
REMARK    4  A    between atoms: C_4  and  C_6
REMARK    5  A    between atoms: C_9  and  N_10
REMARK    6  A    between atoms: N_10  and  C_11
REMARK                            x       y       z     vdW  Elec       q    Type
REMARK                         _______ _______ _______ _____ _____    ______ ____
ROOT
ATOM      1  N   UNL     1       0.899  10.821  18.392  0.00  0.00    +0.000 N 
ATOM      2  H   UNL     1       0.925  10.907  17.365  0.00  0.00    +0.000 HD
ENDROOT
BRANCH   1   3
ATOM      3  C   UNL     1      -0.338  11.295  18.846  0.00  0.00    +0.000 C 
ATOM      4  C   UNL     1      -1.554  10.997  18.344  0.00  0.00    +0.000 C 
ATOM      5 CL   UNL     1      -1.751   9.859  17.051  0.00  0.00    +0.000 Cl
ATOM      6  C   UNL     1      -2.809  11.616  18.850  0.00  0.00    +0.000 C 
ATOM      7  O   UNL     1      -3.914  11.352  18.389  0.00  0.00    +0.000 OA
ATOM      8  C   UNL     1      -2.698  12.602  19.934  0.00  0.00    +0.000 A 
ATOM      9  C   UNL     1      -3.842  13.259  20.395  0.00  0.00    +0.000 A 
ATOM     10  C   UNL     1      -3.692  14.180  21.414  0.00  0.00    +0.000 A 
ATOM     11  N   UNL     1      -2.503  14.472  21.982  0.00  0.00    +0.000 NA
ATOM     12  C   UNL     1      -1.411  13.819  21.513  0.00  0.00    +0.000 A 
ATOM     13  C   UNL     1      -1.464  12.884  20.495  0.00  0.00    +0.000 A 
ATOM     14  C   UNL     1      -0.247  12.227  20.016  0.00  0.00    +0.000 C 
ATOM     15  O   UNL     1       0.840  12.457  20.541  0.00  0.00    +0.000 OA
ENDBRANCH   1   3
BRANCH   1  19
ATOM     16  C   UNL     1       2.390   7.000  19.453  0.00  0.00    +0.000 A 
ATOM     17  C   UNL     1       2.567   7.476  18.151  0.00  0.00    +0.000 A 
ATOM     18  C   UNL     1       2.058   8.721  17.783  0.00  0.00    +0.000 A 
ATOM     19  C   UNL     1       1.346   9.504  18.701  0.00  0.00    +0.000 A 
ATOM     20  C   UNL     1       1.182   9.028  20.007  0.00  0.00    +0.000 A 
ATOM     21  C   UNL     1       1.687   7.778  20.381  0.00  0.00    +0.000 A 
BRANCH  16  22
ATOM     22  C   UNL     1       2.936   5.655  19.768  0.00  0.00    +0.000 C 
ATOM     23  O   UNL     1       3.723   5.066  19.045  0.00  0.00    +0.000 OA
BRANCH  22  24
ATOM     24  O   UNL     1       2.366   5.166  20.897  0.00  0.00    +0.000 OA
BRANCH  24  26
ATOM     25  C   UNL     1       0.949   3.350  20.274  0.00  0.00    +0.000 C 
ATOM     26  C   UNL     1       2.255   3.738  20.943  0.00  0.00    +0.000 C 
ENDBRANCH  24  26
ENDBRANCH  22  24
ENDBRANCH  16  22
ENDBRANCH   1  19
TORSDOF 5
ENDMDL
MODEL 8
REMARK VINA RESULT:      -7.1      3.267      8.509
REMARK  Name = 
REMARK  6 active torsions:
REMARK  status: ('A' for Active; 'I' for Inactive)
REMARK    1  A    between atoms: C_1  and  C_2
REMARK    2  A    between atoms: C_2  and  O_3
REMARK    3  A    between atoms: O_3  and  C_4
REMARK    4  A    between atoms: C_4  and  C_6
REMARK    5  A    between atoms: C_9  and  N_10
REMARK    6  A    between atoms: N_10  and  C_11
REMARK                            x       y       z     vdW  Elec       q    Type
REMARK                         _______ _______ _______ _____ _____    ______ ____
ROOT
ATOM      1  N   UNL     1       3.128   6.679  19.614  0.00  0.00    +0.000 N 
ATOM      2  H   UNL     1       2.748   6.073  20.356  0.00  0.00    +0.000 HD
ENDROOT
BRANCH   1   3
ATOM      3  C   UNL     1       3.546   5.869  18.551  0.00  0.00    +0.000 C 
ATOM      4  C   UNL     1       2.966   4.728  18.125  0.00  0.00    +0.000 C 
ATOM      5 CL   UNL     1       1.498   4.133  18.833  0.00  0.00    +0.000 Cl
ATOM      6  C   UNL     1       3.533   3.895  17.031  0.00  0.00    +0.000 C 
ATOM      7  O   UNL     1       3.011   2.853  16.649  0.00  0.00    +0.000 OA
ATOM      8  C   UNL     1       4.786   4.343  16.407  0.00  0.00    +0.000 A 
ATOM      9  C   UNL     1       5.391   3.558  15.423  0.00  0.00    +0.000 A 
ATOM     10  C   UNL     1       6.569   4.015  14.864  0.00  0.00    +0.000 A 
ATOM     11  N   UNL     1       7.158   5.176  15.222  0.00  0.00    +0.000 NA
ATOM     12  C   UNL     1       6.549   5.916  16.180  0.00  0.00    +0.000 A 
ATOM     13  C   UNL     1       5.369   5.536  16.797  0.00  0.00    +0.000 A 
ATOM     14  C   UNL     1       4.768   6.367  17.842  0.00  0.00    +0.000 C 
ATOM     15  O   UNL     1       5.274   7.441  18.160  0.00  0.00    +0.000 OA
ENDBRANCH   1   3
BRANCH   1  19
ATOM     16  C   UNL     1       0.498   9.941  18.993  0.00  0.00    +0.000 A 
ATOM     17  C   UNL     1       0.637   9.397  20.273  0.00  0.00    +0.000 A 
ATOM     18  C   UNL     1       1.480   8.307  20.485  0.00  0.00    +0.000 A 
ATOM     19  C   UNL     1       2.183   7.728  19.420  0.00  0.00    +0.000 A 
ATOM     20  C   UNL     1       2.050   8.283  18.143  0.00  0.00    +0.000 A 
ATOM     21  C   UNL     1       1.202   9.375  17.924  0.00  0.00    +0.000 A 
BRANCH  16  22
ATOM     22  C   UNL     1      -0.436  11.085  18.835  0.00  0.00    +0.000 C 
ATOM     23  O   UNL     1      -0.107  12.247  19.018  0.00  0.00    +0.000 OA
BRANCH  22  24
ATOM     24  O   UNL     1      -1.687  10.641  18.563  0.00  0.00    +0.000 OA
BRANCH  24  26
ATOM     25  C   UNL     1      -2.467   9.897  16.434  0.00  0.00    +0.000 C 
ATOM     26  C   UNL     1      -2.233  11.105  17.323  0.00  0.00    +0.000 C 
ENDBRANCH  24  26
ENDBRANCH  22  24
ENDBRANCH  16  22
ENDBRANCH   1  19
TORSDOF 5
ENDMDL
MODEL 9
REMARK VINA RESULT:      -7.1      3.295      4.416
REMARK  Name = 
REMARK  6 active torsions:
REMARK  status: ('A' for Active; 'I' for Inactive)
REMARK    1  A    between atoms: C_1  and  C_2
REMARK    2  A    between atoms: C_2  and  O_3
REMARK    3  A    between atoms: O_3  and  C_4
REMARK    4  A    between atoms: C_4  and  C_6
REMARK    5  A    between atoms: C_9  and  N_10
REMARK    6  A    between atoms: N_10  and  C_11
REMARK                            x       y       z     vdW  Elec       q    Type
REMARK                         _______ _______ _______ _____ _____    ______ ____
ROOT
ATOM      1  N   UNL     1       2.203   7.080  17.984  0.00  0.00    +0.000 N 
ATOM      2  H   UNL     1       1.552   6.284  18.049  0.00  0.00    +0.000 HD
ENDROOT
BRANCH   1   3
ATOM      3  C   UNL     1       1.829   8.038  18.935  0.00  0.00    +0.000 C 
ATOM      4  C   UNL     1       1.549   7.821  20.236  0.00  0.00    +0.000 C 
ATOM      5 CL   UNL     1       1.707   6.249  20.952  0.00  0.00    +0.000 Cl
ATOM      6  C   UNL     1       1.084   8.898  21.151  0.00  0.00    +0.000 C 
ATOM      7  O   UNL     1       0.821   8.701  22.332  0.00  0.00    +0.000 OA
ATOM      8  C   UNL     1       0.915  10.247  20.592  0.00  0.00    +0.000 A 
ATOM      9  C   UNL     1       0.416  11.275  21.396  0.00  0.00    +0.000 A 
ATOM     10  C   UNL     1       0.271  12.526  20.830  0.00  0.00    +0.000 A 
ATOM     11  N   UNL     1       0.586  12.801  19.547  0.00  0.00    +0.000 NA
ATOM     12  C   UNL     1       1.068  11.784  18.791  0.00  0.00    +0.000 A 
ATOM     13  C   UNL     1       1.244  10.498  19.271  0.00  0.00    +0.000 A 
ATOM     14  C   UNL     1       1.748   9.435  18.400  0.00  0.00    +0.000 C 
ATOM     15  O   UNL     1       2.069   9.673  17.238  0.00  0.00    +0.000 OA
ENDBRANCH   1   3
BRANCH   1  19
ATOM     16  C   UNL     1       6.085   5.407  17.695  0.00  0.00    +0.000 A 
ATOM     17  C   UNL     1       5.088   4.728  18.403  0.00  0.00    +0.000 A 
ATOM     18  C   UNL     1       3.813   5.281  18.526  0.00  0.00    +0.000 A 
ATOM     19  C   UNL     1       3.518   6.529  17.964  0.00  0.00    +0.000 A 
ATOM     20  C   UNL     1       4.515   7.200  17.247  0.00  0.00    +0.000 A 
ATOM     21  C   UNL     1       5.796   6.652  17.123  0.00  0.00    +0.000 A 
BRANCH  16  22
ATOM     22  C   UNL     1       7.425   4.771  17.624  0.00  0.00    +0.000 C 
ATOM     23  O   UNL     1       8.117   4.557  18.607  0.00  0.00    +0.000 OA
BRANCH  22  24
ATOM     24  O   UNL     1       7.782   4.563  16.334  0.00  0.00    +0.000 OA
BRANCH  24  26
ATOM     25  C   UNL     1       6.827   4.696  14.150  0.00  0.00    +0.000 C 
ATOM     26  C   UNL     1       6.748   4.016  15.505  0.00  0.00    +0.000 C 
ENDBRANCH  24  26
ENDBRANCH  22  24
ENDBRANCH  16  22
ENDBRANCH   1  19
TORSDOF 5
ENDMDL
