MODEL 1
REMARK VINA RESULT:      -8.3      0.000      0.000
REMARK  Name = 
REMARK  14 active torsions:
REMARK  status: ('A' for Active; 'I' for Inactive)
REMARK    1  A    between atoms: C_1  and  C_2
REMARK    2  A    between atoms: C_2  and  C_3
REMARK    3  A    between atoms: C_4  and  C_5
REMARK    4  A    between atoms: C_5  and  C_6
REMARK    5  A    between atoms: C_6  and  C_7
REMARK    6  A    between atoms: C_7  and  C_8
REMARK    7  A    between atoms: C_9  and  C_10
REMARK    8  A    between atoms: C_10  and  C_11
REMARK    9  A    between atoms: C_11  and  C_12
REMARK   10  A    between atoms: C_12  and  C_13
REMARK   11  A    between atoms: C_19  and  C_20
REMARK   12  A    between atoms: C_21  and  C_22
REMARK   13  A    between atoms: C_22  and  O_24
REMARK   14  A    between atoms: C_25  and  O_26
REMARK                            x       y       z     vdW  Elec       q    Type
REMARK                         _______ _______ _______ _____ _____    ______ ____
ROOT
ATOM      1  C   UNL     1       2.884   5.887  18.887  0.00  0.00    +0.000 C 
ATOM      2  C   UNL     1       2.183   4.605  18.400  0.00  0.00    +0.000 C 
ATOM      3  C   UNL     1       2.919   6.863  17.736  0.00  0.00    +0.000 C 
ATOM      4  C   UNL     1       2.399   8.091  17.804  0.00  0.00    +0.000 C 
ATOM      5  C   UNL     1       1.786   8.518  19.057  0.00  0.00    +0.000 A 
ATOM      6  C   UNL     1       1.695   7.609  20.106  0.00  0.00    +0.000 A 
ATOM      7  C   UNL     1       1.119   7.984  21.322  0.00  0.00    +0.000 A 
ATOM      8  C   UNL     1       0.630   9.285  21.538  0.00  0.00    +0.000 A 
ATOM      9  C   UNL     1       0.089   9.594  22.908  0.00  0.00    +0.000 C 
ATOM     10  C   UNL     1       0.704  10.213  20.473  0.00  0.00    +0.000 A 
ATOM     11  C   UNL     1       1.289   9.819  19.245  0.00  0.00    +0.000 A 
ATOM     12  O   UNL     1       2.136   6.319  20.045  0.00  0.00    +0.000 OA
ENDROOT
BRANCH  10  13
ATOM     13  C   UNL     1       0.274  11.636  20.579  0.00  0.00    +0.000 C 
ATOM     14  O   UNL     1      -0.783  12.011  20.091  0.00  0.00    +0.000 OA
BRANCH  13  15
ATOM     15  O   UNL     1       1.046  12.444  21.325  0.00  0.00    +0.000 OA
ATOM     16  H   UNL     1       0.565  13.005  21.958  0.00  0.00    +0.000 HD
ENDBRANCH  13  15
ENDBRANCH  10  13
BRANCH  11  17
ATOM     17  O   UNL     1       1.399  10.689  18.180  0.00  0.00    +0.000 OA
ATOM     18  H   UNL     1       1.420  10.175  17.342  0.00  0.00    +0.000 HD
ENDBRANCH  11  17
BRANCH   1  19
ATOM     19  C   UNL     1       4.338   5.608  19.344  0.00  0.00    +0.000 C 
BRANCH  19  20
ATOM     20  C   UNL     1       4.857   4.229  18.925  0.00  0.00    +0.000 C 
BRANCH  20  23
ATOM     21  C   UNL     1       6.673   4.623  17.194  0.00  0.00    +0.000 C 
ATOM     22  C   UNL     1       7.648   5.067  18.255  0.00  0.00    +0.000 C 
ATOM     23  C   UNL     1       5.422   4.235  17.526  0.00  0.00    +0.000 C 
BRANCH  21  24
ATOM     24  C   UNL     1       7.073   4.627  15.726  0.00  0.00    +0.000 C 
BRANCH  24  25
ATOM     25  C   UNL     1       5.982   5.045  14.736  0.00  0.00    +0.000 C 
BRANCH  25  29
ATOM     26  C   UNL     1       5.738   2.479  11.817  0.00  0.00    +0.000 C 
ATOM     27  C   UNL     1       6.173   3.673  12.619  0.00  0.00    +0.000 C 
ATOM     28  C   UNL     1       7.284   4.517  12.055  0.00  0.00    +0.000 C 
ATOM     29  C   UNL     1       5.574   3.949  13.793  0.00  0.00    +0.000 C 
ENDBRANCH  25  29
ENDBRANCH  24  25
ENDBRANCH  21  24
ENDBRANCH  20  23
ENDBRANCH  19  20
ENDBRANCH   1  19
TORSDOF 9
ENDMDL
MODEL 2
REMARK VINA RESULT:      -8.2      2.669      4.262
REMARK  Name = 
REMARK  14 active torsions:
REMARK  status: ('A' for Active; 'I' for Inactive)
REMARK    1  A    between atoms: C_1  and  C_2
REMARK    2  A    between atoms: C_2  and  C_3
REMARK    3  A    between atoms: C_4  and  C_5
REMARK    4  A    between atoms: C_5  and  C_6
REMARK    5  A    between atoms: C_6  and  C_7
REMARK    6  A    between atoms: C_7  and  C_8
REMARK    7  A    between atoms: C_9  and  C_10
REMARK    8  A    between atoms: C_10  and  C_11
REMARK    9  A    between atoms: C_11  and  C_12
REMARK   10  A    between atoms: C_12  and  C_13
REMARK   11  A    between atoms: C_19  and  C_20
REMARK   12  A    between atoms: C_21  and  C_22
REMARK   13  A    between atoms: C_22  and  O_24
REMARK   14  A    between atoms: C_25  and  O_26
REMARK                            x       y       z     vdW  Elec       q    Type
REMARK                         _______ _______ _______ _____ _____    ______ ____
ROOT
ATOM      1  C   UNL     1       2.785   6.089  18.861  0.00  0.00    +0.000 C 
ATOM      2  C   UNL     1       2.092   4.818  18.337  0.00  0.00    +0.000 C 
ATOM      3  C   UNL     1       2.782   7.111  17.750  0.00  0.00    +0.000 C 
ATOM      4  C   UNL     1       2.247   8.327  17.878  0.00  0.00    +0.000 C 
ATOM      5  C   UNL     1       1.654   8.694  19.159  0.00  0.00    +0.000 A 
ATOM      6  C   UNL     1       1.599   7.743  20.172  0.00  0.00    +0.000 A 
ATOM      7  C   UNL     1       1.043   8.060  21.414  0.00  0.00    +0.000 A 
ATOM      8  C   UNL     1       0.541   9.344  21.692  0.00  0.00    +0.000 A 
ATOM      9  C   UNL     1       0.025   9.590  23.085  0.00  0.00    +0.000 C 
ATOM     10  C   UNL     1       0.580  10.315  20.665  0.00  0.00    +0.000 A 
ATOM     11  C   UNL     1       1.144   9.980  19.410  0.00  0.00    +0.000 A 
ATOM     12  O   UNL     1       2.056   6.463  20.050  0.00  0.00    +0.000 OA
ENDROOT
BRANCH  10  13
ATOM     13  C   UNL     1       0.133  11.726  20.838  0.00  0.00    +0.000 C 
ATOM     14  O   UNL     1       0.807  12.526  21.472  0.00  0.00    +0.000 OA
BRANCH  13  15
ATOM     15  O   UNL     1      -0.977  12.092  20.174  0.00  0.00    +0.000 OA
ATOM     16  H   UNL     1      -1.448  11.367  19.727  0.00  0.00    +0.000 HD
ENDBRANCH  13  15
ENDBRANCH  10  13
BRANCH  11  17
ATOM     17  O   UNL     1       1.219  10.893  18.379  0.00  0.00    +0.000 OA
ATOM     18  H   UNL     1       1.653  10.472  17.604  0.00  0.00    +0.000 HD
ENDBRANCH  11  17
BRANCH   1  19
ATOM     19  C   UNL     1       4.252   5.813  19.276  0.00  0.00    +0.000 C 
BRANCH  19  20
ATOM     20  C   UNL     1       5.116   5.258  18.140  0.00  0.00    +0.000 C 
BRANCH  20  23
ATOM     21  C   UNL     1       7.267   6.600  18.000  0.00  0.00    +0.000 C 
ATOM     22  C   UNL     1       7.869   5.837  19.153  0.00  0.00    +0.000 C 
ATOM     23  C   UNL     1       6.026   6.308  17.552  0.00  0.00    +0.000 C 
BRANCH  21  24
ATOM     24  C   UNL     1       8.038   7.730  17.334  0.00  0.00    +0.000 C 
BRANCH  24  25
ATOM     25  C   UNL     1       7.811   9.129  17.917  0.00  0.00    +0.000 C 
BRANCH  25  29
ATOM     26  C   UNL     1      10.487  11.264  19.773  0.00  0.00    +0.000 C 
ATOM     27  C   UNL     1       9.416  10.877  18.792  0.00  0.00    +0.000 C 
ATOM     28  C   UNL     1       8.914  11.947  17.860  0.00  0.00    +0.000 C 
ATOM     29  C   UNL     1       8.946   9.615  18.772  0.00  0.00    +0.000 C 
ENDBRANCH  25  29
ENDBRANCH  24  25
ENDBRANCH  21  24
ENDBRANCH  20  23
ENDBRANCH  19  20
ENDBRANCH   1  19
TORSDOF 9
ENDMDL
MODEL 3
REMARK VINA RESULT:      -7.9      0.713      1.183
REMARK  Name = 
REMARK  14 active torsions:
REMARK  status: ('A' for Active; 'I' for Inactive)
REMARK    1  A    between atoms: C_1  and  C_2
REMARK    2  A    between atoms: C_2  and  C_3
REMARK    3  A    between atoms: C_4  and  C_5
REMARK    4  A    between atoms: C_5  and  C_6
REMARK    5  A    between atoms: C_6  and  C_7
REMARK    6  A    between atoms: C_7  and  C_8
REMARK    7  A    between atoms: C_9  and  C_10
REMARK    8  A    between atoms: C_10  and  C_11
REMARK    9  A    between atoms: C_11  and  C_12
REMARK   10  A    between atoms: C_12  and  C_13
REMARK   11  A    between atoms: C_19  and  C_20
REMARK   12  A    between atoms: C_21  and  C_22
REMARK   13  A    between atoms: C_22  and  O_24
REMARK   14  A    between atoms: C_25  and  O_26
REMARK                            x       y       z     vdW  Elec       q    Type
REMARK                         _______ _______ _______ _____ _____    ______ ____
ROOT
ATOM      1  C   UNL     1       2.867   6.219  18.944  0.00  0.00    +0.000 C 
ATOM      2  C   UNL     1       2.229   4.908  18.448  0.00  0.00    +0.000 C 
ATOM      3  C   UNL     1       2.850   7.205  17.801  0.00  0.00    +0.000 C 
ATOM      4  C   UNL     1       2.271   8.405  17.880  0.00  0.00    +0.000 C 
ATOM      5  C   UNL     1       1.641   8.791  19.138  0.00  0.00    +0.000 A 
ATOM      6  C   UNL     1       1.599   7.871  20.180  0.00  0.00    +0.000 A 
ATOM      7  C   UNL     1       1.009   8.207  21.401  0.00  0.00    +0.000 A 
ATOM      8  C   UNL     1       0.458   9.481  21.629  0.00  0.00    +0.000 A 
ATOM      9  C   UNL     1      -0.092   9.752  23.003  0.00  0.00    +0.000 C 
ATOM     10  C   UNL     1       0.483  10.420  20.572  0.00  0.00    +0.000 A 
ATOM     11  C   UNL     1       1.082  10.065  19.339  0.00  0.00    +0.000 A 
ATOM     12  O   UNL     1       2.103   6.605  20.107  0.00  0.00    +0.000 OA
ENDROOT
BRANCH  10  13
ATOM     13  C   UNL     1      -0.016  11.819  20.691  0.00  0.00    +0.000 C 
ATOM     14  O   UNL     1      -0.900  12.236  19.955  0.00  0.00    +0.000 OA
BRANCH  13  15
ATOM     15  O   UNL     1       0.472  12.548  21.708  0.00  0.00    +0.000 OA
ATOM     16  H   UNL     1       1.069  13.272  21.448  0.00  0.00    +0.000 HD
ENDBRANCH  13  15
ENDBRANCH  10  13
BRANCH  11  17
ATOM     17  O   UNL     1       1.145  10.947  18.281  0.00  0.00    +0.000 OA
ATOM     18  H   UNL     1       1.889  11.574  18.425  0.00  0.00    +0.000 HD
ENDBRANCH  11  17
BRANCH   1  19
ATOM     19  C   UNL     1       4.334   6.008  19.394  0.00  0.00    +0.000 C 
BRANCH  19  20
ATOM     20  C   UNL     1       4.947   4.697  18.892  0.00  0.00    +0.000 C 
BRANCH  20  23
ATOM     21  C   UNL     1       5.575   4.230  16.476  0.00  0.00    +0.000 C 
ATOM     22  C   UNL     1       4.463   3.221  16.336  0.00  0.00    +0.000 C 
ATOM     23  C   UNL     1       5.762   4.894  17.638  0.00  0.00    +0.000 C 
BRANCH  21  24
ATOM     24  C   UNL     1       6.523   4.501  15.316  0.00  0.00    +0.000 C 
BRANCH  24  25
ATOM     25  C   UNL     1       5.890   4.497  13.921  0.00  0.00    +0.000 C 
BRANCH  25  29
ATOM     26  C   UNL     1       6.247   1.774  11.161  0.00  0.00    +0.000 C 
ATOM     27  C   UNL     1       5.653   2.872  11.998  0.00  0.00    +0.000 C 
ATOM     28  C   UNL     1       4.307   3.404  11.585  0.00  0.00    +0.000 C 
ATOM     29  C   UNL     1       6.323   3.340  13.068  0.00  0.00    +0.000 C 
ENDBRANCH  25  29
ENDBRANCH  24  25
ENDBRANCH  21  24
ENDBRANCH  20  23
ENDBRANCH  19  20
ENDBRANCH   1  19
TORSDOF 9
ENDMDL
MODEL 4
REMARK VINA RESULT:      -7.8      0.894      1.351
REMARK  Name = 
REMARK  14 active torsions:
REMARK  status: ('A' for Active; 'I' for Inactive)
REMARK    1  A    between atoms: C_1  and  C_2
REMARK    2  A    between atoms: C_2  and  C_3
REMARK    3  A    between atoms: C_4  and  C_5
REMARK    4  A    between atoms: C_5  and  C_6
REMARK    5  A    between atoms: C_6  and  C_7
REMARK    6  A    between atoms: C_7  and  C_8
REMARK    7  A    between atoms: C_9  and  C_10
REMARK    8  A    between atoms: C_10  and  C_11
REMARK    9  A    between atoms: C_11  and  C_12
REMARK   10  A    between atoms: C_12  and  C_13
REMARK   11  A    between atoms: C_19  and  C_20
REMARK   12  A    between atoms: C_21  and  C_22
REMARK   13  A    between atoms: C_22  and  O_24
REMARK   14  A    between atoms: C_25  and  O_26
REMARK                            x       y       z     vdW  Elec       q    Type
REMARK                         _______ _______ _______ _____ _____    ______ ____
ROOT
ATOM      1  C   UNL     1       2.739   6.421  18.602  0.00  0.00    +0.000 C 
ATOM      2  C   UNL     1       2.080   5.129  18.085  0.00  0.00    +0.000 C 
ATOM      3  C   UNL     1       2.565   7.486  17.547  0.00  0.00    +0.000 C 
ATOM      4  C   UNL     1       1.969   8.657  17.783  0.00  0.00    +0.000 C 
ATOM      5  C   UNL     1       1.481   8.930  19.130  0.00  0.00    +0.000 A 
ATOM      6  C   UNL     1       1.584   7.935  20.097  0.00  0.00    +0.000 A 
ATOM      7  C   UNL     1       1.132   8.162  21.399  0.00  0.00    +0.000 A 
ATOM      8  C   UNL     1       0.580   9.397  21.785  0.00  0.00    +0.000 A 
ATOM      9  C   UNL     1       0.186   9.549  23.230  0.00  0.00    +0.000 C 
ATOM     10  C   UNL     1       0.458  10.411  20.806  0.00  0.00    +0.000 A 
ATOM     11  C   UNL     1       0.918  10.166  19.489  0.00  0.00    +0.000 A 
ATOM     12  O   UNL     1       2.107   6.695  19.871  0.00  0.00    +0.000 OA
ENDROOT
BRANCH  10  13
ATOM     13  C   UNL     1      -0.058  11.780  21.087  0.00  0.00    +0.000 C 
ATOM     14  O   UNL     1       0.625  12.598  21.688  0.00  0.00    +0.000 OA
BRANCH  13  15
ATOM     15  O   UNL     1      -1.251  12.095  20.555  0.00  0.00    +0.000 OA
ATOM     16  H   UNL     1      -1.293  12.968  20.125  0.00  0.00    +0.000 HD
ENDBRANCH  13  15
ENDBRANCH  10  13
BRANCH  11  17
ATOM     17  O   UNL     1       0.836  11.125  18.501  0.00  0.00    +0.000 OA
ATOM     18  H   UNL     1       0.351  11.907  18.848  0.00  0.00    +0.000 HD
ENDBRANCH  11  17
BRANCH   1  19
ATOM     19  C   UNL     1       4.254   6.227  18.865  0.00  0.00    +0.000 C 
BRANCH  19  20
ATOM     20  C   UNL     1       5.135   6.600  17.669  0.00  0.00    +0.000 C 
BRANCH  20  23
ATOM     21  C   UNL     1       6.073   4.683  16.293  0.00  0.00    +0.000 C 
ATOM     22  C   UNL     1       7.344   4.664  17.105  0.00  0.00    +0.000 C 
ATOM     23  C   UNL     1       5.085   5.559  16.578  0.00  0.00    +0.000 C 
BRANCH  21  24
ATOM     24  C   UNL     1       5.892   3.730  15.120  0.00  0.00    +0.000 C 
BRANCH  24  25
ATOM     25  C   UNL     1       6.274   4.284  13.743  0.00  0.00    +0.000 C 
BRANCH  25  29
ATOM     26  C   UNL     1       6.529   1.753  10.795  0.00  0.00    +0.000 C 
ATOM     27  C   UNL     1       5.944   2.733  11.772  0.00  0.00    +0.000 C 
ATOM     28  C   UNL     1       4.502   3.121  11.582  0.00  0.00    +0.000 C 
ATOM     29  C   UNL     1       6.705   3.226  12.768  0.00  0.00    +0.000 C 
ENDBRANCH  25  29
ENDBRANCH  24  25
ENDBRANCH  21  24
ENDBRANCH  20  23
ENDBRANCH  19  20
ENDBRANCH   1  19
TORSDOF 9
ENDMDL
MODEL 5
REMARK VINA RESULT:      -7.7      0.715      1.220
REMARK  Name = 
REMARK  14 active torsions:
REMARK  status: ('A' for Active; 'I' for Inactive)
REMARK    1  A    between atoms: C_1  and  C_2
REMARK    2  A    between atoms: C_2  and  C_3
REMARK    3  A    between atoms: C_4  and  C_5
REMARK    4  A    between atoms: C_5  and  C_6
REMARK    5  A    between atoms: C_6  and  C_7
REMARK    6  A    between atoms: C_7  and  C_8
REMARK    7  A    between atoms: C_9  and  C_10
REMARK    8  A    between atoms: C_10  and  C_11
REMARK    9  A    between atoms: C_11  and  C_12
REMARK   10  A    between atoms: C_12  and  C_13
REMARK   11  A    between atoms: C_19  and  C_20
REMARK   12  A    between atoms: C_21  and  C_22
REMARK   13  A    between atoms: C_22  and  O_24
REMARK   14  A    between atoms: C_25  and  O_26
REMARK                            x       y       z     vdW  Elec       q    Type
REMARK                         _______ _______ _______ _____ _____    ______ ____
ROOT
ATOM      1  C   UNL     1       2.884   5.954  19.004  0.00  0.00    +0.000 C 
ATOM      2  C   UNL     1       2.230   4.673  18.453  0.00  0.00    +0.000 C 
ATOM      3  C   UNL     1       2.938   6.965  17.884  0.00  0.00    +0.000 C 
ATOM      4  C   UNL     1       2.389   8.179  17.968  0.00  0.00    +0.000 C 
ATOM      5  C   UNL     1       1.721   8.554  19.209  0.00  0.00    +0.000 A 
ATOM      6  C   UNL     1       1.613   7.613  20.227  0.00  0.00    +0.000 A 
ATOM      7  C   UNL     1       0.984   7.938  21.431  0.00  0.00    +0.000 A 
ATOM      8  C   UNL     1       0.459   9.222  21.667  0.00  0.00    +0.000 A 
ATOM      9  C   UNL     1      -0.138   9.478  23.024  0.00  0.00    +0.000 C 
ATOM     10  C   UNL     1       0.551  10.183  20.634  0.00  0.00    +0.000 A 
ATOM     11  C   UNL     1       1.189   9.839  19.417  0.00  0.00    +0.000 A 
ATOM     12  O   UNL     1       2.085   6.335  20.145  0.00  0.00    +0.000 OA
ENDROOT
BRANCH  10  13
ATOM     13  C   UNL     1       0.086  11.592  20.765  0.00  0.00    +0.000 C 
ATOM     14  O   UNL     1       0.707  12.398  21.444  0.00  0.00    +0.000 OA
BRANCH  13  15
ATOM     15  O   UNL     1      -0.973  11.949  20.019  0.00  0.00    +0.000 OA
ATOM     16  H   UNL     1      -0.795  12.041  19.067  0.00  0.00    +0.000 HD
ENDBRANCH  13  15
ENDBRANCH  10  13
BRANCH  11  17
ATOM     17  O   UNL     1       1.318  10.742  18.383  0.00  0.00    +0.000 OA
ATOM     18  H   UNL     1       1.886  10.353  17.681  0.00  0.00    +0.000 HD
ENDBRANCH  11  17
BRANCH   1  19
ATOM     19  C   UNL     1       4.326   5.692  19.506  0.00  0.00    +0.000 C 
BRANCH  19  20
ATOM     20  C   UNL     1       5.020   4.527  18.794  0.00  0.00    +0.000 C 
BRANCH  20  23
ATOM     21  C   UNL     1       5.781   4.601  16.373  0.00  0.00    +0.000 C 
ATOM     22  C   UNL     1       4.692   3.643  15.956  0.00  0.00    +0.000 C 
ATOM     23  C   UNL     1       5.897   4.996  17.660  0.00  0.00    +0.000 C 
BRANCH  21  24
ATOM     24  C   UNL     1       6.783   5.121  15.353  0.00  0.00    +0.000 C 
BRANCH  24  25
ATOM     25  C   UNL     1       6.960   4.268  14.093  0.00  0.00    +0.000 C 
BRANCH  25  29
ATOM     26  C   UNL     1       4.218   3.203  11.543  0.00  0.00    +0.000 C 
ATOM     27  C   UNL     1       5.557   3.324  12.212  0.00  0.00    +0.000 C 
ATOM     28  C   UNL     1       6.689   2.509  11.644  0.00  0.00    +0.000 C 
ATOM     29  C   UNL     1       5.708   4.137  13.275  0.00  0.00    +0.000 C 
ENDBRANCH  25  29
ENDBRANCH  24  25
ENDBRANCH  21  24
ENDBRANCH  20  23
ENDBRANCH  19  20
ENDBRANCH   1  19
TORSDOF 9
ENDMDL
MODEL 6
REMARK VINA RESULT:      -7.4      5.178      8.094
REMARK  Name = 
REMARK  14 active torsions:
REMARK  status: ('A' for Active; 'I' for Inactive)
REMARK    1  A    between atoms: C_1  and  C_2
REMARK    2  A    between atoms: C_2  and  C_3
REMARK    3  A    between atoms: C_4  and  C_5
REMARK    4  A    between atoms: C_5  and  C_6
REMARK    5  A    between atoms: C_6  and  C_7
REMARK    6  A    between atoms: C_7  and  C_8
REMARK    7  A    between atoms: C_9  and  C_10
REMARK    8  A    between atoms: C_10  and  C_11
REMARK    9  A    between atoms: C_11  and  C_12
REMARK   10  A    between atoms: C_12  and  C_13
REMARK   11  A    between atoms: C_19  and  C_20
REMARK   12  A    between atoms: C_21  and  C_22
REMARK   13  A    between atoms: C_22  and  O_24
REMARK   14  A    between atoms: C_25  and  O_26
REMARK                            x       y       z     vdW  Elec       q    Type
REMARK                         _______ _______ _______ _____ _____    ______ ____
ROOT
ATOM      1  C   UNL     1       7.271   5.811  18.368  0.00  0.00    +0.000 C 
ATOM      2  C   UNL     1       8.495   5.484  19.243  0.00  0.00    +0.000 C 
ATOM      3  C   UNL     1       7.172   4.753  17.295  0.00  0.00    +0.000 C 
ATOM      4  C   UNL     1       6.087   3.998  17.111  0.00  0.00    +0.000 C 
ATOM      5  C   UNL     1       4.933   4.218  17.976  0.00  0.00    +0.000 A 
ATOM      6  C   UNL     1       5.031   5.147  19.005  0.00  0.00    +0.000 A 
ATOM      7  C   UNL     1       3.945   5.388  19.850  0.00  0.00    +0.000 A 
ATOM      8  C   UNL     1       2.717   4.721  19.683  0.00  0.00    +0.000 A 
ATOM      9  C   UNL     1       1.597   5.107  20.612  0.00  0.00    +0.000 C 
ATOM     10  C   UNL     1       2.611   3.763  18.649  0.00  0.00    +0.000 A 
ATOM     11  C   UNL     1       3.721   3.528  17.800  0.00  0.00    +0.000 A 
ATOM     12  O   UNL     1       6.152   5.876  19.279  0.00  0.00    +0.000 OA
ENDROOT
BRANCH  10  13
ATOM     13  C   UNL     1       1.359   3.023  18.326  0.00  0.00    +0.000 C 
ATOM     14  O   UNL     1       0.455   3.560  17.699  0.00  0.00    +0.000 OA
BRANCH  13  15
ATOM     15  O   UNL     1       1.325   1.723  18.658  0.00  0.00    +0.000 OA
ATOM     16  H   UNL     1       0.506   1.255  18.415  0.00  0.00    +0.000 HD
ENDBRANCH  13  15
ENDBRANCH  10  13
BRANCH  11  17
ATOM     17  O   UNL     1       3.666   2.615  16.768  0.00  0.00    +0.000 OA
ATOM     18  H   UNL     1       4.504   2.655  16.255  0.00  0.00    +0.000 HD
ENDBRANCH  11  17
BRANCH   1  19
ATOM     19  C   UNL     1       7.405   7.196  17.688  0.00  0.00    +0.000 C 
BRANCH  19  20
ATOM     20  C   UNL     1       8.337   8.156  18.434  0.00  0.00    +0.000 C 
BRANCH  20  23
ATOM     21  C   UNL     1       8.897  10.632  18.399  0.00  0.00    +0.000 C 
ATOM     22  C   UNL     1       9.710  10.511  19.663  0.00  0.00    +0.000 C 
ATOM     23  C   UNL     1       8.299   9.549  17.856  0.00  0.00    +0.000 C 
BRANCH  21  24
ATOM     24  C   UNL     1       8.716  11.985  17.724  0.00  0.00    +0.000 C 
BRANCH  24  25
ATOM     25  C   UNL     1       9.971  12.858  17.629  0.00  0.00    +0.000 C 
BRANCH  25  29
ATOM     26  C   UNL     1       9.978  16.255  19.531  0.00  0.00    +0.000 C 
ATOM     27  C   UNL     1      10.164  14.791  19.248  0.00  0.00    +0.000 C 
ATOM     28  C   UNL     1      10.817  13.959  20.318  0.00  0.00    +0.000 C 
ATOM     29  C   UNL     1       9.752  14.275  18.075  0.00  0.00    +0.000 C 
ENDBRANCH  25  29
ENDBRANCH  24  25
ENDBRANCH  21  24
ENDBRANCH  20  23
ENDBRANCH  19  20
ENDBRANCH   1  19
TORSDOF 9
ENDMDL
MODEL 7
REMARK VINA RESULT:      -7.4      2.829      4.563
REMARK  Name = 
REMARK  14 active torsions:
REMARK  status: ('A' for Active; 'I' for Inactive)
REMARK    1  A    between atoms: C_1  and  C_2
REMARK    2  A    between atoms: C_2  and  C_3
REMARK    3  A    between atoms: C_4  and  C_5
REMARK    4  A    between atoms: C_5  and  C_6
REMARK    5  A    between atoms: C_6  and  C_7
REMARK    6  A    between atoms: C_7  and  C_8
REMARK    7  A    between atoms: C_9  and  C_10
REMARK    8  A    between atoms: C_10  and  C_11
REMARK    9  A    between atoms: C_11  and  C_12
REMARK   10  A    between atoms: C_12  and  C_13
REMARK   11  A    between atoms: C_19  and  C_20
REMARK   12  A    between atoms: C_21  and  C_22
REMARK   13  A    between atoms: C_22  and  O_24
REMARK   14  A    between atoms: C_25  and  O_26
REMARK                            x       y       z     vdW  Elec       q    Type
REMARK                         _______ _______ _______ _____ _____    ______ ____
ROOT
ATOM      1  C   UNL     1       3.635   5.246  19.002  0.00  0.00    +0.000 C 
ATOM      2  C   UNL     1       3.108   3.863  18.578  0.00  0.00    +0.000 C 
ATOM      3  C   UNL     1       3.791   6.085  17.757  0.00  0.00    +0.000 C 
ATOM      4  C   UNL     1       3.188   7.264  17.589  0.00  0.00    +0.000 C 
ATOM      5  C   UNL     1       2.353   7.777  18.669  0.00  0.00    +0.000 A 
ATOM      6  C   UNL     1       2.154   6.989  19.798  0.00  0.00    +0.000 A 
ATOM      7  C   UNL     1       1.364   7.450  20.855  0.00  0.00    +0.000 A 
ATOM      8  C   UNL     1       0.763   8.721  20.828  0.00  0.00    +0.000 A 
ATOM      9  C   UNL     1      -0.012   9.137  22.049  0.00  0.00    +0.000 C 
ATOM     10  C   UNL     1       0.948   9.525  19.679  0.00  0.00    +0.000 A 
ATOM     11  C   UNL     1       1.749   9.044  18.614  0.00  0.00    +0.000 A 
ATOM     12  O   UNL     1       2.682   5.743  19.968  0.00  0.00    +0.000 OA
ENDROOT
BRANCH  10  13
ATOM     13  C   UNL     1       0.414  10.909  19.538  0.00  0.00    +0.000 C 
ATOM     14  O   UNL     1       1.157  11.879  19.607  0.00  0.00    +0.000 OA
BRANCH  13  15
ATOM     15  O   UNL     1      -0.887  11.024  19.225  0.00  0.00    +0.000 OA
ATOM     16  H   UNL     1      -1.474  11.237  19.971  0.00  0.00    +0.000 HD
ENDBRANCH  13  15
ENDBRANCH  10  13
BRANCH  11  17
ATOM     17  O   UNL     1       1.972   9.794  17.478  0.00  0.00    +0.000 OA
ATOM     18  H   UNL     1       1.253   9.623  16.830  0.00  0.00    +0.000 HD
ENDBRANCH  11  17
BRANCH   1  19
ATOM     19  C   UNL     1       5.010   5.145  19.708  0.00  0.00    +0.000 C 
BRANCH  19  20
ATOM     20  C   UNL     1       6.190   5.042  18.737  0.00  0.00    +0.000 C 
BRANCH  20  23
ATOM     21  C   UNL     1       7.225   6.829  17.260  0.00  0.00    +0.000 C 
ATOM     22  C   UNL     1       7.017   5.990  16.024  0.00  0.00    +0.000 C 
ATOM     23  C   UNL     1       6.828   6.383  18.472  0.00  0.00    +0.000 C 
BRANCH  21  24
ATOM     24  C   UNL     1       7.907   8.186  17.167  0.00  0.00    +0.000 C 
BRANCH  24  25
ATOM     25  C   UNL     1       8.391   8.785  18.491  0.00  0.00    +0.000 C 
BRANCH  25  29
ATOM     26  C   UNL     1      10.552  11.977  19.037  0.00  0.00    +0.000 C 
ATOM     27  C   UNL     1       9.621  10.833  19.322  0.00  0.00    +0.000 C 
ATOM     28  C   UNL     1       9.162  10.653  20.744  0.00  0.00    +0.000 C 
ATOM     29  C   UNL     1       9.231  10.018  18.323  0.00  0.00    +0.000 C 
ENDBRANCH  25  29
ENDBRANCH  24  25
ENDBRANCH  21  24
ENDBRANCH  20  23
ENDBRANCH  19  20
ENDBRANCH   1  19
TORSDOF 9
ENDMDL
MODEL 8
REMARK VINA RESULT:      -7.4      0.921      1.067
REMARK  Name = 
REMARK  14 active torsions:
REMARK  status: ('A' for Active; 'I' for Inactive)
REMARK    1  A    between atoms: C_1  and  C_2
REMARK    2  A    between atoms: C_2  and  C_3
REMARK    3  A    between atoms: C_4  and  C_5
REMARK    4  A    between atoms: C_5  and  C_6
REMARK    5  A    between atoms: C_6  and  C_7
REMARK    6  A    between atoms: C_7  and  C_8
REMARK    7  A    between atoms: C_9  and  C_10
REMARK    8  A    between atoms: C_10  and  C_11
REMARK    9  A    between atoms: C_11  and  C_12
REMARK   10  A    between atoms: C_12  and  C_13
REMARK   11  A    between atoms: C_19  and  C_20
REMARK   12  A    between atoms: C_21  and  C_22
REMARK   13  A    between atoms: C_22  and  O_24
REMARK   14  A    between atoms: C_25  and  O_26
REMARK                            x       y       z     vdW  Elec       q    Type
REMARK                         _______ _______ _______ _____ _____    ______ ____
ROOT
ATOM      1  C   UNL     1       2.772   5.230  18.953  0.00  0.00    +0.000 C 
ATOM      2  C   UNL     1       1.944   4.003  18.531  0.00  0.00    +0.000 C 
ATOM      3  C   UNL     1       2.921   6.126  17.746  0.00  0.00    +0.000 C 
ATOM      4  C   UNL     1       2.535   7.403  17.733  0.00  0.00    +0.000 C 
ATOM      5  C   UNL     1       1.958   7.968  18.948  0.00  0.00    +0.000 A 
ATOM      6  C   UNL     1       1.761   7.139  20.047  0.00  0.00    +0.000 A 
ATOM      7  C   UNL     1       1.216   7.646  21.229  0.00  0.00    +0.000 A 
ATOM      8  C   UNL     1       0.866   9.002  21.360  0.00  0.00    +0.000 A 
ATOM      9  C   UNL     1       0.348   9.449  22.700  0.00  0.00    +0.000 C 
ATOM     10  C   UNL     1       1.049   9.850  20.244  0.00  0.00    +0.000 A 
ATOM     11  C   UNL     1       1.601   9.323  19.050  0.00  0.00    +0.000 A 
ATOM     12  O   UNL     1       2.063   5.808  20.070  0.00  0.00    +0.000 OA
ENDROOT
BRANCH  10  13
ATOM     13  C   UNL     1       0.772  11.314  20.258  0.00  0.00    +0.000 C 
ATOM     14  O   UNL     1      -0.148  11.787  19.603  0.00  0.00    +0.000 OA
BRANCH  13  15
ATOM     15  O   UNL     1       1.505  12.058  21.103  0.00  0.00    +0.000 OA
ATOM     16  H   UNL     1       1.792  12.920  20.752  0.00  0.00    +0.000 HD
ENDBRANCH  13  15
ENDBRANCH  10  13
BRANCH  11  17
ATOM     17  O   UNL     1       1.813  10.110  17.938  0.00  0.00    +0.000 OA
ATOM     18  H   UNL     1       0.977  10.180  17.426  0.00  0.00    +0.000 HD
ENDBRANCH  11  17
BRANCH   1  19
ATOM     19  C   UNL     1       4.183   4.827  19.449  0.00  0.00    +0.000 C 
BRANCH  19  20
ATOM     20  C   UNL     1       5.308   5.682  18.856  0.00  0.00    +0.000 C 
BRANCH  20  23
ATOM     21  C   UNL     1       6.581   5.733  16.660  0.00  0.00    +0.000 C 
ATOM     22  C   UNL     1       6.840   7.213  16.795  0.00  0.00    +0.000 C 
ATOM     23  C   UNL     1       5.898   5.062  17.614  0.00  0.00    +0.000 C 
BRANCH  21  24
ATOM     24  C   UNL     1       7.064   4.973  15.433  0.00  0.00    +0.000 C 
BRANCH  24  25
ATOM     25  C   UNL     1       5.975   4.515  14.458  0.00  0.00    +0.000 C 
BRANCH  25  29
ATOM     26  C   UNL     1       6.413   2.158  11.390  0.00  0.00    +0.000 C 
ATOM     27  C   UNL     1       5.783   3.121  12.356  0.00  0.00    +0.000 C 
ATOM     28  C   UNL     1       4.411   3.640  12.018  0.00  0.00    +0.000 C 
ATOM     29  C   UNL     1       6.446   3.487  13.470  0.00  0.00    +0.000 C 
ENDBRANCH  25  29
ENDBRANCH  24  25
ENDBRANCH  21  24
ENDBRANCH  20  23
ENDBRANCH  19  20
ENDBRANCH   1  19
TORSDOF 9
ENDMDL
MODEL 9
REMARK VINA RESULT:      -7.3      4.087      9.680
REMARK  Name = 
REMARK  14 active torsions:
REMARK  status: ('A' for Active; 'I' for Inactive)
REMARK    1  A    between atoms: C_1  and  C_2
REMARK    2  A    between atoms: C_2  and  C_3
REMARK    3  A    between atoms: C_4  and  C_5
REMARK    4  A    between atoms: C_5  and  C_6
REMARK    5  A    between atoms: C_6  and  C_7
REMARK    6  A    between atoms: C_7  and  C_8
REMARK    7  A    between atoms: C_9  and  C_10
REMARK    8  A    between atoms: C_10  and  C_11
REMARK    9  A    between atoms: C_11  and  C_12
REMARK   10  A    between atoms: C_12  and  C_13
REMARK   11  A    between atoms: C_19  and  C_20
REMARK   12  A    between atoms: C_21  and  C_22
REMARK   13  A    between atoms: C_22  and  O_24
REMARK   14  A    between atoms: C_25  and  O_26
REMARK                            x       y       z     vdW  Elec       q    Type
REMARK                         _______ _______ _______ _____ _____    ______ ____
ROOT
ATOM      1  C   UNL     1       0.638  10.089  19.670  0.00  0.00    +0.000 C 
ATOM      2  C   UNL     1       1.065  11.272  20.558  0.00  0.00    +0.000 C 
ATOM      3  C   UNL     1       1.412  10.176  18.376  0.00  0.00    +0.000 C 
ATOM      4  C   UNL     1       2.187   9.190  17.920  0.00  0.00    +0.000 C 
ATOM      5  C   UNL     1       2.275   7.959  18.698  0.00  0.00    +0.000 A 
ATOM      6  C   UNL     1       1.614   7.886  19.920  0.00  0.00    +0.000 A 
ATOM      7  C   UNL     1       1.671   6.722  20.690  0.00  0.00    +0.000 A 
ATOM      8  C   UNL     1       2.375   5.584  20.256  0.00  0.00    +0.000 A 
ATOM      9  C   UNL     1       2.315   4.366  21.138  0.00  0.00    +0.000 C 
ATOM     10  C   UNL     1       3.063   5.652  19.023  0.00  0.00    +0.000 A 
ATOM     11  C   UNL     1       2.998   6.839  18.253  0.00  0.00    +0.000 A 
ATOM     12  O   UNL     1       0.884   8.905  20.460  0.00  0.00    +0.000 OA
ENDROOT
BRANCH  10  13
ATOM     13  C   UNL     1       3.803   4.508  18.420  0.00  0.00    +0.000 C 
ATOM     14  O   UNL     1       4.850   4.108  18.910  0.00  0.00    +0.000 OA
BRANCH  13  15
ATOM     15  O   UNL     1       3.208   3.881  17.392  0.00  0.00    +0.000 OA
ATOM     16  H   UNL     1       2.799   4.467  16.731  0.00  0.00    +0.000 HD
ENDBRANCH  13  15
ENDBRANCH  10  13
BRANCH  11  17
ATOM     17  O   UNL     1       3.638   6.953  17.037  0.00  0.00    +0.000 OA
ATOM     18  H   UNL     1       4.513   7.382  17.170  0.00  0.00    +0.000 HD
ENDBRANCH  11  17
BRANCH   1  19
ATOM     19  C   UNL     1      -0.876  10.131  19.345  0.00  0.00    +0.000 C 
BRANCH  19  20
ATOM     20  C   UNL     1      -1.193  10.762  17.986  0.00  0.00    +0.000 C 
BRANCH  20  23
ATOM     21  C   UNL     1      -3.372  11.077  16.721  0.00  0.00    +0.000 C 
ATOM     22  C   UNL     1      -2.754  10.568  15.442  0.00  0.00    +0.000 C 
ATOM     23  C   UNL     1      -2.648  11.140  17.860  0.00  0.00    +0.000 C 
BRANCH  21  24
ATOM     24  C   UNL     1      -4.818  11.551  16.745  0.00  0.00    +0.000 C 
BRANCH  24  25
ATOM     25  C   UNL     1      -5.343  12.031  18.102  0.00  0.00    +0.000 C 
BRANCH  25  29
ATOM     26  C   UNL     1      -7.664  10.032  20.505  0.00  0.00    +0.000 C 
ATOM     27  C   UNL     1      -6.939  11.186  19.873  0.00  0.00    +0.000 C 
ATOM     28  C   UNL     1      -7.248  12.564  20.392  0.00  0.00    +0.000 C 
ATOM     29  C   UNL     1      -6.053  10.963  18.883  0.00  0.00    +0.000 C 
ENDBRANCH  25  29
ENDBRANCH  24  25
ENDBRANCH  21  24
ENDBRANCH  20  23
ENDBRANCH  19  20
ENDBRANCH   1  19
TORSDOF 9
ENDMDL
