MODEL 1
REMARK VINA RESULT:      -7.6      0.000      0.000
REMARK  Name = 
REMARK  7 active torsions:
REMARK  status: ('A' for Active; 'I' for Inactive)
REMARK    1  A    between atoms: N_1  and  C_2
REMARK    2  A    between atoms: C_2  and  N_4
REMARK    3  A    between atoms: N_4  and  N_5
REMARK    4  A    between atoms: C_6  and  C_7
REMARK    5  A    between atoms: C_10  and  O_11
REMARK    6  A    between atoms: O_11  and  C_12
REMARK    7  A    between atoms: C_12  and  C_14
REMARK                            x       y       z     vdW  Elec       q    Type
REMARK                         _______ _______ _______ _____ _____    ______ ____
ROOT
ATOM      1  C   UNL     1       1.770   7.328  20.229  0.00  0.00    +0.000 A 
ATOM      2  C   UNL     1       2.297   7.459  18.944  0.00  0.00    +0.000 A 
ATOM      3  C   UNL     1       2.543   6.318  18.172  0.00  0.00    +0.000 A 
ATOM      4  C   UNL     1       2.247   5.040  18.678  0.00  0.00    +0.000 A 
ATOM      5  C   UNL     1       1.694   4.912  19.958  0.00  0.00    +0.000 A 
ATOM      6 CL   UNL     1       1.114   3.419  20.596  0.00  0.00    +0.000 Cl
ATOM      7  C   UNL     1       1.487   6.057  20.742  0.00  0.00    +0.000 A 
ENDROOT
BRANCH   1   9
ATOM      8  N   UNL     1       0.960   9.606  20.527  0.00  0.00    +0.000 NA
ATOM      9  C   UNL     1       1.427   8.513  21.049  0.00  0.00    +0.000 C 
BRANCH   8  10
ATOM     10  N   UNL     1       0.655  10.582  21.440  0.00  0.00    +0.000 N 
ATOM     11  H   UNL     1       1.342  10.889  22.123  0.00  0.00    +0.000 HD
BRANCH  10  12
ATOM     12  C   UNL     1      -0.592  11.140  21.503  0.00  0.00    +0.000 C 
ATOM     13  S   UNL     1      -1.364  11.432  22.940  0.00  0.00    +0.000 S 
BRANCH  12  14
ATOM     14  N   UNL     1      -1.157  11.444  20.310  0.00  0.00    +0.000 N 
ATOM     15  H   UNL     1      -0.793  11.080  19.443  0.00  0.00    +0.000 HD
ATOM     16  H   UNL     1      -1.913  12.116  20.321  0.00  0.00    +0.000 HD
ENDBRANCH  12  14
ENDBRANCH  10  12
ENDBRANCH   8  10
ENDBRANCH   1   9
BRANCH   4  17
ATOM     17  O   UNL     1       2.414   3.986  17.742  0.00  0.00    +0.000 OA
BRANCH  17  18
ATOM     18  C   UNL     1       3.370   3.001  17.904  0.00  0.00    +0.000 C 
ATOM     19  O   UNL     1       3.200   1.791  17.845  0.00  0.00    +0.000 OA
BRANCH  18  20
ATOM     20  C   UNL     1       4.714   3.554  18.181  0.00  0.00    +0.000 C 
ATOM     21  C   UNL     1       5.624   4.034  17.326  0.00  0.00    +0.000 C 
ATOM     22  S   UNL     1       5.600   4.108  15.608  0.00  0.00    +0.000 S 
ATOM     23  C   UNL     1       7.104   5.014  15.537  0.00  0.00    +0.000 C 
ATOM     24  O   UNL     1       7.617   5.410  14.511  0.00  0.00    +0.000 OA
ATOM     25  N   UNL     1       7.577   5.205  16.796  0.00  0.00    +0.000 N 
ATOM     26  C   UNL     1       6.844   4.724  17.838  0.00  0.00    +0.000 C 
ATOM     27  O   UNL     1       7.128   4.870  19.015  0.00  0.00    +0.000 OA
ATOM     28  H   UNL     1       8.421   5.728  16.949  0.00  0.00    +0.000 HD
ENDBRANCH  18  20
ENDBRANCH  17  18
ENDBRANCH   4  17
TORSDOF 7
ENDMDL
MODEL 2
REMARK VINA RESULT:      -7.5      1.318      1.861
REMARK  Name = 
REMARK  7 active torsions:
REMARK  status: ('A' for Active; 'I' for Inactive)
REMARK    1  A    between atoms: N_1  and  C_2
REMARK    2  A    between atoms: C_2  and  N_4
REMARK    3  A    between atoms: N_4  and  N_5
REMARK    4  A    between atoms: C_6  and  C_7
REMARK    5  A    between atoms: C_10  and  O_11
REMARK    6  A    between atoms: O_11  and  C_12
REMARK    7  A    between atoms: C_12  and  C_14
REMARK                            x       y       z     vdW  Elec       q    Type
REMARK                         _______ _______ _______ _____ _____    ______ ____
ROOT
ATOM      1  C   UNL     1       1.776   7.187  20.343  0.00  0.00    +0.000 A 
ATOM      2  C   UNL     1       2.261   7.447  19.061  0.00  0.00    +0.000 A 
ATOM      3  C   UNL     1       2.455   6.392  18.163  0.00  0.00    +0.000 A 
ATOM      4  C   UNL     1       2.148   5.073  18.539  0.00  0.00    +0.000 A 
ATOM      5  C   UNL     1       1.636   4.817  19.818  0.00  0.00    +0.000 A 
ATOM      6 CL   UNL     1       1.046   3.275  20.313  0.00  0.00    +0.000 Cl
ATOM      7  C   UNL     1       1.482   5.874  20.727  0.00  0.00    +0.000 A 
ENDROOT
BRANCH   1   9
ATOM      8  N   UNL     1       0.280   8.578  21.671  0.00  0.00    +0.000 NA
ATOM      9  C   UNL     1       1.488   8.284  21.298  0.00  0.00    +0.000 C 
BRANCH   8  10
ATOM     10  N   UNL     1       0.205   9.590  22.593  0.00  0.00    +0.000 N 
ATOM     11  H   UNL     1       0.604   9.479  23.522  0.00  0.00    +0.000 HD
BRANCH  10  12
ATOM     12  C   UNL     1      -0.451  10.759  22.323  0.00  0.00    +0.000 C 
ATOM     13  S   UNL     1      -0.064  11.718  21.028  0.00  0.00    +0.000 S 
BRANCH  12  14
ATOM     14  N   UNL     1      -1.445  11.083  23.184  0.00  0.00    +0.000 N 
ATOM     15  H   UNL     1      -1.829  12.014  23.225  0.00  0.00    +0.000 HD
ATOM     16  H   UNL     1      -1.732  10.368  23.840  0.00  0.00    +0.000 HD
ENDBRANCH  12  14
ENDBRANCH  10  12
ENDBRANCH   8  10
ENDBRANCH   1   9
BRANCH   4  17
ATOM     17  O   UNL     1       2.259   4.123  17.490  0.00  0.00    +0.000 OA
BRANCH  17  18
ATOM     18  C   UNL     1       3.264   3.175  17.457  0.00  0.00    +0.000 C 
ATOM     19  O   UNL     1       3.232   2.047  17.931  0.00  0.00    +0.000 OA
BRANCH  18  20
ATOM     20  C   UNL     1       4.479   3.658  16.763  0.00  0.00    +0.000 C 
ATOM     21  C   UNL     1       5.534   4.314  17.262  0.00  0.00    +0.000 C 
ATOM     22  S   UNL     1       5.823   4.900  18.853  0.00  0.00    +0.000 S 
ATOM     23  C   UNL     1       7.461   5.407  18.463  0.00  0.00    +0.000 C 
ATOM     24  O   UNL     1       8.230   5.904  19.258  0.00  0.00    +0.000 OA
ATOM     25  N   UNL     1       7.718   5.141  17.155  0.00  0.00    +0.000 N 
ATOM     26  C   UNL     1       6.744   4.538  16.418  0.00  0.00    +0.000 C 
ATOM     27  O   UNL     1       6.862   4.199  15.253  0.00  0.00    +0.000 OA
ATOM     28  H   UNL     1       8.620   5.343  16.763  0.00  0.00    +0.000 HD
ENDBRANCH  18  20
ENDBRANCH  17  18
ENDBRANCH   4  17
TORSDOF 7
ENDMDL
MODEL 3
REMARK VINA RESULT:      -7.5      1.304      1.460
REMARK  Name = 
REMARK  7 active torsions:
REMARK  status: ('A' for Active; 'I' for Inactive)
REMARK    1  A    between atoms: N_1  and  C_2
REMARK    2  A    between atoms: C_2  and  N_4
REMARK    3  A    between atoms: N_4  and  N_5
REMARK    4  A    between atoms: C_6  and  C_7
REMARK    5  A    between atoms: C_10  and  O_11
REMARK    6  A    between atoms: O_11  and  C_12
REMARK    7  A    between atoms: C_12  and  C_14
REMARK                            x       y       z     vdW  Elec       q    Type
REMARK                         _______ _______ _______ _____ _____    ______ ____
ROOT
ATOM      1  C   UNL     1       1.692   7.876  19.920  0.00  0.00    +0.000 A 
ATOM      2  C   UNL     1       2.296   7.788  18.665  0.00  0.00    +0.000 A 
ATOM      3  C   UNL     1       2.916   6.596  18.273  0.00  0.00    +0.000 A 
ATOM      4  C   UNL     1       2.921   5.482  19.130  0.00  0.00    +0.000 A 
ATOM      5  C   UNL     1       2.291   5.564  20.378  0.00  0.00    +0.000 A 
ATOM      6 CL   UNL     1       2.066   4.208  21.419  0.00  0.00    +0.000 Cl
ATOM      7  C   UNL     1       1.706   6.773  20.782  0.00  0.00    +0.000 A 
ENDROOT
BRANCH   1   9
ATOM      8  N   UNL     1       1.142   9.641  21.506  0.00  0.00    +0.000 NA
ATOM      9  C   UNL     1       0.962   9.095  20.343  0.00  0.00    +0.000 C 
BRANCH   8  10
ATOM     10  N   UNL     1       0.417  10.787  21.709  0.00  0.00    +0.000 N 
ATOM     11  H   UNL     1       0.697  11.663  21.277  0.00  0.00    +0.000 HD
BRANCH  10  12
ATOM     12  C   UNL     1      -0.671  10.810  22.538  0.00  0.00    +0.000 C 
ATOM     13  S   UNL     1      -1.815  12.007  22.471  0.00  0.00    +0.000 S 
BRANCH  12  14
ATOM     14  N   UNL     1      -0.756   9.784  23.418  0.00  0.00    +0.000 N 
ATOM     15  H   UNL     1      -0.892   9.941  24.404  0.00  0.00    +0.000 HD
ATOM     16  H   UNL     1      -0.597   8.854  23.052  0.00  0.00    +0.000 HD
ENDBRANCH  12  14
ENDBRANCH  10  12
ENDBRANCH   8  10
ENDBRANCH   1   9
BRANCH   4  17
ATOM     17  O   UNL     1       3.458   4.301  18.554  0.00  0.00    +0.000 OA
BRANCH  17  18
ATOM     18  C   UNL     1       4.695   3.802  18.916  0.00  0.00    +0.000 C 
ATOM     19  O   UNL     1       4.920   2.825  19.618  0.00  0.00    +0.000 OA
BRANCH  18  20
ATOM     20  C   UNL     1       5.814   4.596  18.360  0.00  0.00    +0.000 C 
ATOM     21  C   UNL     1       6.257   4.665  17.099  0.00  0.00    +0.000 C 
ATOM     22  S   UNL     1       5.751   3.806  15.698  0.00  0.00    +0.000 S 
ATOM     23  C   UNL     1       6.808   4.731  14.641  0.00  0.00    +0.000 C 
ATOM     24  O   UNL     1       6.872   4.584  13.439  0.00  0.00    +0.000 OA
ATOM     25  N   UNL     1       7.514   5.628  15.379  0.00  0.00    +0.000 N 
ATOM     26  C   UNL     1       7.282   5.681  16.720  0.00  0.00    +0.000 C 
ATOM     27  O   UNL     1       7.808   6.470  17.486  0.00  0.00    +0.000 OA
ATOM     28  H   UNL     1       8.154   6.262  14.935  0.00  0.00    +0.000 HD
ENDBRANCH  18  20
ENDBRANCH  17  18
ENDBRANCH   4  17
TORSDOF 7
ENDMDL
MODEL 4
REMARK VINA RESULT:      -7.4      2.033      2.292
REMARK  Name = 
REMARK  7 active torsions:
REMARK  status: ('A' for Active; 'I' for Inactive)
REMARK    1  A    between atoms: N_1  and  C_2
REMARK    2  A    between atoms: C_2  and  N_4
REMARK    3  A    between atoms: N_4  and  N_5
REMARK    4  A    between atoms: C_6  and  C_7
REMARK    5  A    between atoms: C_10  and  O_11
REMARK    6  A    between atoms: O_11  and  C_12
REMARK    7  A    between atoms: C_12  and  C_14
REMARK                            x       y       z     vdW  Elec       q    Type
REMARK                         _______ _______ _______ _____ _____    ______ ____
ROOT
ATOM      1  C   UNL     1       2.029   8.511  18.745  0.00  0.00    +0.000 A 
ATOM      2  C   UNL     1       2.742   8.079  17.626  0.00  0.00    +0.000 A 
ATOM      3  C   UNL     1       3.272   6.784  17.595  0.00  0.00    +0.000 A 
ATOM      4  C   UNL     1       3.078   5.910  18.679  0.00  0.00    +0.000 A 
ATOM      5  C   UNL     1       2.339   6.337  19.790  0.00  0.00    +0.000 A 
ATOM      6 CL   UNL     1       1.874   5.291  21.080  0.00  0.00    +0.000 Cl
ATOM      7  C   UNL     1       1.844   7.649  19.832  0.00  0.00    +0.000 A 
ENDROOT
BRANCH   1   9
ATOM      8  N   UNL     1       0.255  10.090  18.203  0.00  0.00    +0.000 NA
ATOM      9  C   UNL     1       1.388   9.847  18.786  0.00  0.00    +0.000 C 
BRANCH   8  10
ATOM     10  N   UNL     1      -0.210  11.368  18.383  0.00  0.00    +0.000 N 
ATOM     11  H   UNL     1       0.396  12.094  18.755  0.00  0.00    +0.000 HD
BRANCH  10  12
ATOM     12  C   UNL     1      -1.511  11.700  18.125  0.00  0.00    +0.000 C 
ATOM     13  S   UNL     1      -2.596  12.051  19.328  0.00  0.00    +0.000 S 
BRANCH  12  14
ATOM     14  N   UNL     1      -1.856  11.730  16.816  0.00  0.00    +0.000 N 
ATOM     15  H   UNL     1      -2.779  12.005  16.516  0.00  0.00    +0.000 HD
ATOM     16  H   UNL     1      -1.171  11.387  16.155  0.00  0.00    +0.000 HD
ENDBRANCH  12  14
ENDBRANCH  10  12
ENDBRANCH   8  10
ENDBRANCH   1   9
BRANCH   4  17
ATOM     17  O   UNL     1       3.546   4.589  18.458  0.00  0.00    +0.000 OA
BRANCH  17  18
ATOM     18  C   UNL     1       4.821   4.190  18.815  0.00  0.00    +0.000 C 
ATOM     19  O   UNL     1       5.124   3.345  19.646  0.00  0.00    +0.000 OA
BRANCH  18  20
ATOM     20  C   UNL     1       5.873   4.916  18.070  0.00  0.00    +0.000 C 
ATOM     21  C   UNL     1       6.248   4.786  16.792  0.00  0.00    +0.000 C 
ATOM     22  S   UNL     1       5.710   3.685  15.586  0.00  0.00    +0.000 S 
ATOM     23  C   UNL     1       6.669   4.453  14.330  0.00  0.00    +0.000 C 
ATOM     24  O   UNL     1       6.678   4.107  13.168  0.00  0.00    +0.000 OA
ATOM     25  N   UNL     1       7.372   5.486  14.865  0.00  0.00    +0.000 N 
ATOM     26  C   UNL     1       7.206   5.759  16.189  0.00  0.00    +0.000 C 
ATOM     27  O   UNL     1       7.735   6.684  16.781  0.00  0.00    +0.000 OA
ATOM     28  H   UNL     1       7.959   6.058  14.285  0.00  0.00    +0.000 HD
ENDBRANCH  18  20
ENDBRANCH  17  18
ENDBRANCH   4  17
TORSDOF 7
ENDMDL
MODEL 5
REMARK VINA RESULT:      -7.2      1.172      1.746
REMARK  Name = 
REMARK  7 active torsions:
REMARK  status: ('A' for Active; 'I' for Inactive)
REMARK    1  A    between atoms: N_1  and  C_2
REMARK    2  A    between atoms: C_2  and  N_4
REMARK    3  A    between atoms: N_4  and  N_5
REMARK    4  A    between atoms: C_6  and  C_7
REMARK    5  A    between atoms: C_10  and  O_11
REMARK    6  A    between atoms: O_11  and  C_12
REMARK    7  A    between atoms: C_12  and  C_14
REMARK                            x       y       z     vdW  Elec       q    Type
REMARK                         _______ _______ _______ _____ _____    ______ ____
ROOT
ATOM      1  C   UNL     1       1.782   7.220  20.199  0.00  0.00    +0.000 A 
ATOM      2  C   UNL     1       2.240   7.355  18.888  0.00  0.00    +0.000 A 
ATOM      3  C   UNL     1       2.454   6.216  18.104  0.00  0.00    +0.000 A 
ATOM      4  C   UNL     1       2.195   4.936  18.624  0.00  0.00    +0.000 A 
ATOM      5  C   UNL     1       1.711   4.804  19.932  0.00  0.00    +0.000 A 
ATOM      6 CL   UNL     1       1.177   3.307  20.600  0.00  0.00    +0.000 Cl
ATOM      7  C   UNL     1       1.536   5.947  20.726  0.00  0.00    +0.000 A 
ENDROOT
BRANCH   1   9
ATOM      8  N   UNL     1       1.001   9.503  20.534  0.00  0.00    +0.000 NA
ATOM      9  C   UNL     1       1.473   8.404  21.036  0.00  0.00    +0.000 C 
BRANCH   8  10
ATOM     10  N   UNL     1       0.731  10.476  21.462  0.00  0.00    +0.000 N 
ATOM     11  H   UNL     1       0.857  10.299  22.454  0.00  0.00    +0.000 HD
BRANCH  10  12
ATOM     12  C   UNL     1       0.234  11.697  21.096  0.00  0.00    +0.000 C 
ATOM     13  S   UNL     1      -1.392  12.008  21.018  0.00  0.00    +0.000 S 
BRANCH  12  14
ATOM     14  N   UNL     1       1.160  12.641  20.804  0.00  0.00    +0.000 N 
ATOM     15  H   UNL     1       1.266  13.472  21.365  0.00  0.00    +0.000 HD
ATOM     16  H   UNL     1       1.690  12.513  19.952  0.00  0.00    +0.000 HD
ENDBRANCH  12  14
ENDBRANCH  10  12
ENDBRANCH   8  10
ENDBRANCH   1   9
BRANCH   4  17
ATOM     17  O   UNL     1       2.321   3.883  17.681  0.00  0.00    +0.000 OA
BRANCH  17  18
ATOM     18  C   UNL     1       3.412   3.035  17.664  0.00  0.00    +0.000 C 
ATOM     19  O   UNL     1       3.508   1.945  18.214  0.00  0.00    +0.000 OA
BRANCH  18  20
ATOM     20  C   UNL     1       4.545   3.580  16.884  0.00  0.00    +0.000 C 
ATOM     21  C   UNL     1       5.561   4.349  17.294  0.00  0.00    +0.000 C 
ATOM     22  S   UNL     1       5.874   5.044  18.835  0.00  0.00    +0.000 S 
ATOM     23  C   UNL     1       7.440   5.665  18.336  0.00  0.00    +0.000 C 
ATOM     24  O   UNL     1       8.200   6.269  19.064  0.00  0.00    +0.000 OA
ATOM     25  N   UNL     1       7.657   5.351  17.032  0.00  0.00    +0.000 N 
ATOM     26  C   UNL     1       6.706   4.628  16.378  0.00  0.00    +0.000 C 
ATOM     27  O   UNL     1       6.797   4.237  15.227  0.00  0.00    +0.000 OA
ATOM     28  H   UNL     1       8.518   5.606  16.583  0.00  0.00    +0.000 HD
ENDBRANCH  18  20
ENDBRANCH  17  18
ENDBRANCH   4  17
TORSDOF 7
ENDMDL
MODEL 6
REMARK VINA RESULT:      -7.1      1.628      1.913
REMARK  Name = 
REMARK  7 active torsions:
REMARK  status: ('A' for Active; 'I' for Inactive)
REMARK    1  A    between atoms: N_1  and  C_2
REMARK    2  A    between atoms: C_2  and  N_4
REMARK    3  A    between atoms: N_4  and  N_5
REMARK    4  A    between atoms: C_6  and  C_7
REMARK    5  A    between atoms: C_10  and  O_11
REMARK    6  A    between atoms: O_11  and  C_12
REMARK    7  A    between atoms: C_12  and  C_14
REMARK                            x       y       z     vdW  Elec       q    Type
REMARK                         _______ _______ _______ _____ _____    ______ ____
ROOT
ATOM      1  C   UNL     1       1.605   7.482  20.617  0.00  0.00    +0.000 A 
ATOM      2  C   UNL     1       1.415   6.155  21.003  0.00  0.00    +0.000 A 
ATOM      3  C   UNL     1       1.853   5.118  20.171  0.00  0.00    +0.000 A 
ATOM      4  C   UNL     1       2.498   5.407  18.956  0.00  0.00    +0.000 A 
ATOM      5  C   UNL     1       2.712   6.740  18.583  0.00  0.00    +0.000 A 
ATOM      6 CL   UNL     1       3.661   7.204  17.220  0.00  0.00    +0.000 Cl
ATOM      7  C   UNL     1       2.235   7.774  19.402  0.00  0.00    +0.000 A 
ENDROOT
BRANCH   1   9
ATOM      8  N   UNL     1       0.018   9.090  21.529  0.00  0.00    +0.000 NA
ATOM      9  C   UNL     1       1.223   8.608  21.503  0.00  0.00    +0.000 C 
BRANCH   8  10
ATOM     10  N   UNL     1      -0.166  10.098  22.440  0.00  0.00    +0.000 N 
ATOM     11  H   UNL     1       0.250  10.045  23.366  0.00  0.00    +0.000 HD
BRANCH  10  12
ATOM     12  C   UNL     1      -0.955  11.180  22.162  0.00  0.00    +0.000 C 
ATOM     13  S   UNL     1      -0.812  12.048  20.758  0.00  0.00    +0.000 S 
BRANCH  12  14
ATOM     14  N   UNL     1      -1.868  11.496  23.111  0.00  0.00    +0.000 N 
ATOM     15  H   UNL     1      -2.839  11.647  22.884  0.00  0.00    +0.000 HD
ATOM     16  H   UNL     1      -1.518  11.651  24.048  0.00  0.00    +0.000 HD
ENDBRANCH  12  14
ENDBRANCH  10  12
ENDBRANCH   8  10
ENDBRANCH   1   9
BRANCH   4  17
ATOM     17  O   UNL     1       3.012   4.269  18.281  0.00  0.00    +0.000 OA
BRANCH  17  18
ATOM     18  C   UNL     1       4.119   3.578  18.739  0.00  0.00    +0.000 C 
ATOM     19  O   UNL     1       4.131   2.484  19.287  0.00  0.00    +0.000 OA
BRANCH  18  20
ATOM     20  C   UNL     1       5.383   4.313  18.510  0.00  0.00    +0.000 C 
ATOM     21  C   UNL     1       6.009   4.581  17.358  0.00  0.00    +0.000 C 
ATOM     22  S   UNL     1       5.624   4.105  15.751  0.00  0.00    +0.000 S 
ATOM     23  C   UNL     1       6.913   5.079  15.059  0.00  0.00    +0.000 C 
ATOM     24  O   UNL     1       7.135   5.176  13.870  0.00  0.00    +0.000 OA
ATOM     25  N   UNL     1       7.595   5.702  16.056  0.00  0.00    +0.000 N 
ATOM     26  C   UNL     1       7.178   5.508  17.338  0.00  0.00    +0.000 C 
ATOM     27  O   UNL     1       7.666   6.045  18.318  0.00  0.00    +0.000 OA
ATOM     28  H   UNL     1       8.355   6.323  15.843  0.00  0.00    +0.000 HD
ENDBRANCH  18  20
ENDBRANCH  17  18
ENDBRANCH   4  17
TORSDOF 7
ENDMDL
MODEL 7
REMARK VINA RESULT:      -7.0      5.096      9.282
REMARK  Name = 
REMARK  7 active torsions:
REMARK  status: ('A' for Active; 'I' for Inactive)
REMARK    1  A    between atoms: N_1  and  C_2
REMARK    2  A    between atoms: C_2  and  N_4
REMARK    3  A    between atoms: N_4  and  N_5
REMARK    4  A    between atoms: C_6  and  C_7
REMARK    5  A    between atoms: C_10  and  O_11
REMARK    6  A    between atoms: O_11  and  C_12
REMARK    7  A    between atoms: C_12  and  C_14
REMARK                            x       y       z     vdW  Elec       q    Type
REMARK                         _______ _______ _______ _____ _____    ______ ____
ROOT
ATOM      1  C   UNL     1       2.632   7.158  18.890  0.00  0.00    +0.000 A 
ATOM      2  C   UNL     1       2.525   8.014  17.793  0.00  0.00    +0.000 A 
ATOM      3  C   UNL     1       1.779   9.193  17.900  0.00  0.00    +0.000 A 
ATOM      4  C   UNL     1       1.150   9.528  19.112  0.00  0.00    +0.000 A 
ATOM      5  C   UNL     1       1.281   8.681  20.220  0.00  0.00    +0.000 A 
ATOM      6 CL   UNL     1       0.720   9.088  21.798  0.00  0.00    +0.000 Cl
ATOM      7  C   UNL     1       1.997   7.481  20.094  0.00  0.00    +0.000 A 
ENDROOT
BRANCH   1   9
ATOM      8  N   UNL     1       3.674   5.280  17.739  0.00  0.00    +0.000 NA
ATOM      9  C   UNL     1       3.473   5.938  18.840  0.00  0.00    +0.000 C 
BRANCH   8  10
ATOM     10  N   UNL     1       4.514   4.204  17.871  0.00  0.00    +0.000 N 
ATOM     11  H   UNL     1       5.451   4.224  17.477  0.00  0.00    +0.000 HD
BRANCH  10  12
ATOM     12  C   UNL     1       4.110   3.050  18.484  0.00  0.00    +0.000 C 
ATOM     13  S   UNL     1       2.743   2.232  18.028  0.00  0.00    +0.000 S 
BRANCH  12  14
ATOM     14  N   UNL     1       4.905   2.614  19.489  0.00  0.00    +0.000 N 
ATOM     15  H   UNL     1       5.911   2.639  19.420  0.00  0.00    +0.000 HD
ATOM     16  H   UNL     1       4.445   2.188  20.283  0.00  0.00    +0.000 HD
ENDBRANCH  12  14
ENDBRANCH  10  12
ENDBRANCH   8  10
ENDBRANCH   1   9
BRANCH   4  17
ATOM     17  O   UNL     1       0.546  10.813  19.123  0.00  0.00    +0.000 OA
BRANCH  17  18
ATOM     18  C   UNL     1      -0.819  10.985  19.247  0.00  0.00    +0.000 C 
ATOM     19  O   UNL     1      -1.429  11.360  20.240  0.00  0.00    +0.000 OA
BRANCH  18  20
ATOM     20  C   UNL     1      -1.550  10.649  18.005  0.00  0.00    +0.000 C 
ATOM     21  C   UNL     1      -2.806  10.952  17.655  0.00  0.00    +0.000 C 
ATOM     22  S   UNL     1      -4.040  11.757  18.541  0.00  0.00    +0.000 S 
ATOM     23  C   UNL     1      -5.141  11.767  17.171  0.00  0.00    +0.000 C 
ATOM     24  O   UNL     1      -6.246  12.266  17.185  0.00  0.00    +0.000 OA
ATOM     25  N   UNL     1      -4.553  11.147  16.114  0.00  0.00    +0.000 N 
ATOM     26  C   UNL     1      -3.284  10.680  16.267  0.00  0.00    +0.000 C 
ATOM     27  O   UNL     1      -2.625  10.152  15.387  0.00  0.00    +0.000 OA
ATOM     28  H   UNL     1      -5.031  11.081  15.233  0.00  0.00    +0.000 HD
ENDBRANCH  18  20
ENDBRANCH  17  18
ENDBRANCH   4  17
TORSDOF 7
ENDMDL
MODEL 8
REMARK VINA RESULT:      -7.0      1.596      1.714
REMARK  Name = 
REMARK  7 active torsions:
REMARK  status: ('A' for Active; 'I' for Inactive)
REMARK    1  A    between atoms: N_1  and  C_2
REMARK    2  A    between atoms: C_2  and  N_4
REMARK    3  A    between atoms: N_4  and  N_5
REMARK    4  A    between atoms: C_6  and  C_7
REMARK    5  A    between atoms: C_10  and  O_11
REMARK    6  A    between atoms: O_11  and  C_12
REMARK    7  A    between atoms: C_12  and  C_14
REMARK                            x       y       z     vdW  Elec       q    Type
REMARK                         _______ _______ _______ _____ _____    ______ ____
ROOT
ATOM      1  C   UNL     1       1.731   8.089  19.480  0.00  0.00    +0.000 A 
ATOM      2  C   UNL     1       2.296   7.805  18.236  0.00  0.00    +0.000 A 
ATOM      3  C   UNL     1       2.876   6.553  18.004  0.00  0.00    +0.000 A 
ATOM      4  C   UNL     1       2.880   5.574  19.012  0.00  0.00    +0.000 A 
ATOM      5  C   UNL     1       2.289   5.851  20.252  0.00  0.00    +0.000 A 
ATOM      6 CL   UNL     1       2.064   4.665  21.483  0.00  0.00    +0.000 Cl
ATOM      7  C   UNL     1       1.744   7.121  20.492  0.00  0.00    +0.000 A 
ENDROOT
BRANCH   1   9
ATOM      8  N   UNL     1       0.872   9.838  20.942  0.00  0.00    +0.000 NA
ATOM      9  C   UNL     1       1.042   9.375  19.742  0.00  0.00    +0.000 C 
BRANCH   8  10
ATOM     10  N   UNL     1       0.255  11.062  20.992  0.00  0.00    +0.000 N 
ATOM     11  H   UNL     1      -0.564  11.208  21.576  0.00  0.00    +0.000 HD
BRANCH  10  12
ATOM     12  C   UNL     1       0.681  12.110  20.225  0.00  0.00    +0.000 C 
ATOM     13  S   UNL     1      -0.164  12.646  18.903  0.00  0.00    +0.000 S 
BRANCH  12  14
ATOM     14  N   UNL     1       1.840  12.690  20.618  0.00  0.00    +0.000 N 
ATOM     15  H   UNL     1       2.488  13.084  19.954  0.00  0.00    +0.000 HD
ATOM     16  H   UNL     1       2.065  12.639  21.603  0.00  0.00    +0.000 HD
ENDBRANCH  12  14
ENDBRANCH  10  12
ENDBRANCH   8  10
ENDBRANCH   1   9
BRANCH   4  17
ATOM     17  O   UNL     1       3.374   4.309  18.599  0.00  0.00    +0.000 OA
BRANCH  17  18
ATOM     18  C   UNL     1       4.581   3.806  19.046  0.00  0.00    +0.000 C 
ATOM     19  O   UNL     1       4.758   2.797  19.715  0.00  0.00    +0.000 OA
BRANCH  18  20
ATOM     20  C   UNL     1       5.731   4.642  18.637  0.00  0.00    +0.000 C 
ATOM     21  C   UNL     1       6.248   4.831  17.417  0.00  0.00    +0.000 C 
ATOM     22  S   UNL     1       5.824   4.117  15.911  0.00  0.00    +0.000 S 
ATOM     23  C   UNL     1       6.942   5.133  15.013  0.00  0.00    +0.000 C 
ATOM     24  O   UNL     1       7.076   5.104  13.808  0.00  0.00    +0.000 OA
ATOM     25  N   UNL     1       7.606   5.948  15.876  0.00  0.00    +0.000 N 
ATOM     26  C   UNL     1       7.295   5.872  17.199  0.00  0.00    +0.000 C 
ATOM     27  O   UNL     1       7.776   6.579  18.069  0.00  0.00    +0.000 OA
ATOM     28  H   UNL     1       8.271   6.618  15.533  0.00  0.00    +0.000 HD
ENDBRANCH  18  20
ENDBRANCH  17  18
ENDBRANCH   4  17
TORSDOF 7
ENDMDL
MODEL 9
REMARK VINA RESULT:      -7.0      2.167      2.610
REMARK  Name = 
REMARK  7 active torsions:
REMARK  status: ('A' for Active; 'I' for Inactive)
REMARK    1  A    between atoms: N_1  and  C_2
REMARK    2  A    between atoms: C_2  and  N_4
REMARK    3  A    between atoms: N_4  and  N_5
REMARK    4  A    between atoms: C_6  and  C_7
REMARK    5  A    between atoms: C_10  and  O_11
REMARK    6  A    between atoms: O_11  and  C_12
REMARK    7  A    between atoms: C_12  and  C_14
REMARK                            x       y       z     vdW  Elec       q    Type
REMARK                         _______ _______ _______ _____ _____    ______ ____
ROOT
ATOM      1  C   UNL     1       1.097   8.878  19.788  0.00  0.00    +0.000 A 
ATOM      2  C   UNL     1       1.050   7.962  20.839  0.00  0.00    +0.000 A 
ATOM      3  C   UNL     1       1.832   6.802  20.788  0.00  0.00    +0.000 A 
ATOM      4  C   UNL     1       2.675   6.562  19.690  0.00  0.00    +0.000 A 
ATOM      5  C   UNL     1       2.741   7.496  18.647  0.00  0.00    +0.000 A 
ATOM      6 CL   UNL     1       3.879   7.400  17.357  0.00  0.00    +0.000 Cl
ATOM      7  C   UNL     1       1.925   8.637  18.686  0.00  0.00    +0.000 A 
ENDROOT
BRANCH   1   9
ATOM      8  N   UNL     1      -0.661  10.395  19.050  0.00  0.00    +0.000 NA
ATOM      9  C   UNL     1       0.341  10.152  19.838  0.00  0.00    +0.000 C 
BRANCH   8  10
ATOM     10  N   UNL     1      -1.270  11.604  19.268  0.00  0.00    +0.000 N 
ATOM     11  H   UNL     1      -1.940  11.722  20.023  0.00  0.00    +0.000 HD
BRANCH  10  12
ATOM     12  C   UNL     1      -1.043  12.677  18.451  0.00  0.00    +0.000 C 
ATOM     13  S   UNL     1      -0.304  14.062  18.985  0.00  0.00    +0.000 S 
BRANCH  12  14
ATOM     14  N   UNL     1      -1.459  12.534  17.170  0.00  0.00    +0.000 N 
ATOM     15  H   UNL     1      -0.948  11.973  16.505  0.00  0.00    +0.000 HD
ATOM     16  H   UNL     1      -2.263  13.079  16.887  0.00  0.00    +0.000 HD
ENDBRANCH  12  14
ENDBRANCH  10  12
ENDBRANCH   8  10
ENDBRANCH   1   9
BRANCH   4  17
ATOM     17  O   UNL     1       3.512   5.424  19.831  0.00  0.00    +0.000 OA
BRANCH  17  18
ATOM     18  C   UNL     1       3.751   4.551  18.787  0.00  0.00    +0.000 C 
ATOM     19  O   UNL     1       2.919   3.936  18.134  0.00  0.00    +0.000 OA
BRANCH  18  20
ATOM     20  C   UNL     1       5.193   4.393  18.497  0.00  0.00    +0.000 C 
ATOM     21  C   UNL     1       5.829   4.434  17.319  0.00  0.00    +0.000 C 
ATOM     22  S   UNL     1       5.201   4.599  15.727  0.00  0.00    +0.000 S 
ATOM     23  C   UNL     1       6.802   4.696  15.010  0.00  0.00    +0.000 C 
ATOM     24  O   UNL     1       7.014   4.857  13.826  0.00  0.00    +0.000 OA
ATOM     25  N   UNL     1       7.742   4.576  15.984  0.00  0.00    +0.000 N 
ATOM     26  C   UNL     1       7.320   4.442  17.272  0.00  0.00    +0.000 C 
ATOM     27  O   UNL     1       8.055   4.377  18.242  0.00  0.00    +0.000 OA
ATOM     28  H   UNL     1       8.719   4.634  15.759  0.00  0.00    +0.000 HD
ENDBRANCH  18  20
ENDBRANCH  17  18
ENDBRANCH   4  17
TORSDOF 7
ENDMDL
