MODEL 1
REMARK VINA RESULT:      -9.4      0.000      0.000
REMARK  Name = 
REMARK  1 active torsions:
REMARK  status: ('A' for Active; 'I' for Inactive)
REMARK    1  A    between atoms: C_11  and  C_12
REMARK                            x       y       z     vdW  Elec       q    Type
REMARK                         _______ _______ _______ _____ _____    ______ ____
ROOT
ATOM      1  O   UNL     1       4.275   6.743  16.904  0.00  0.00    +0.000 OA
ATOM      2  C   UNL     1       3.746   5.887  17.583  0.00  0.00    +0.000 C 
ATOM      3  N   UNL     1       2.747   6.103  18.518  0.00  0.00    +0.000 N 
ATOM      4  C   UNL     1       2.326   4.916  19.101  0.00  0.00    +0.000 A 
ATOM      5  C   UNL     1       1.349   4.784  20.066  0.00  0.00    +0.000 A 
ATOM      6  C   UNL     1       1.075   3.497  20.527  0.00  0.00    +0.000 A 
ATOM      7  C   UNL     1       1.782   2.390  20.023  0.00  0.00    +0.000 A 
ATOM      8  C   UNL     1       2.775   2.549  19.043  0.00  0.00    +0.000 A 
ATOM      9  C   UNL     1       3.037   3.826  18.582  0.00  0.00    +0.000 A 
ATOM     10  C   UNL     1       3.976   4.392  17.602  0.00  0.00    +0.000 C 
ATOM     11  C   UNL     1       4.889   3.738  16.865  0.00  0.00    +0.000 C 
ATOM     12  H   UNL     1       2.389   7.023  18.719  0.00  0.00    +0.000 HD
ENDROOT
BRANCH  11  13
ATOM     13  C   UNL     1       5.830   4.370  15.999  0.00  0.00    +0.000 A 
ATOM     14  C   UNL     1       6.840   5.208  16.411  0.00  0.00    +0.000 A 
ATOM     15  N   UNL     1       7.611   5.494  15.313  0.00  0.00    +0.000 N 
ATOM     16  C   UNL     1       7.094   4.886  14.189  0.00  0.00    +0.000 A 
ATOM     17  C   UNL     1       7.562   4.879  12.867  0.00  0.00    +0.000 A 
ATOM     18  C   UNL     1       6.835   4.141  11.929  0.00  0.00    +0.000 A 
ATOM     19  C   UNL     1       5.689   3.452  12.308  0.00  0.00    +0.000 A 
ATOM     20  F   UNL     1       5.014   2.752  11.386  0.00  0.00    +0.000 F 
ATOM     21  C   UNL     1       5.231   3.459  13.625  0.00  0.00    +0.000 A 
ATOM     22  C   UNL     1       5.951   4.187  14.591  0.00  0.00    +0.000 A 
ATOM     23  H   UNL     1       8.463   6.037  15.327  0.00  0.00    +0.000 HD
ENDBRANCH  11  13
TORSDOF 1
ENDMDL
MODEL 2
REMARK VINA RESULT:      -9.1      1.456      1.713
REMARK  Name = 
REMARK  1 active torsions:
REMARK  status: ('A' for Active; 'I' for Inactive)
REMARK    1  A    between atoms: C_11  and  C_12
REMARK                            x       y       z     vdW  Elec       q    Type
REMARK                         _______ _______ _______ _____ _____    ______ ____
ROOT
ATOM      1  O   UNL     1       6.546   4.011  18.493  0.00  0.00    +0.000 OA
ATOM      2  C   UNL     1       5.371   3.857  18.755  0.00  0.00    +0.000 C 
ATOM      3  N   UNL     1       4.872   3.234  19.886  0.00  0.00    +0.000 N 
ATOM      4  C   UNL     1       3.484   3.251  19.910  0.00  0.00    +0.000 A 
ATOM      5  C   UNL     1       2.679   2.717  20.896  0.00  0.00    +0.000 A 
ATOM      6  C   UNL     1       1.300   2.835  20.730  0.00  0.00    +0.000 A 
ATOM      7  C   UNL     1       0.768   3.470  19.593  0.00  0.00    +0.000 A 
ATOM      8  C   UNL     1       1.606   4.004  18.601  0.00  0.00    +0.000 A 
ATOM      9  C   UNL     1       2.974   3.892  18.774  0.00  0.00    +0.000 A 
ATOM     10  C   UNL     1       4.146   4.299  17.985  0.00  0.00    +0.000 C 
ATOM     11  C   UNL     1       4.160   4.924  16.796  0.00  0.00    +0.000 C 
ATOM     12  H   UNL     1       5.473   2.835  20.589  0.00  0.00    +0.000 HD
ENDROOT
BRANCH  11  13
ATOM     13  C   UNL     1       5.340   5.205  16.046  0.00  0.00    +0.000 A 
ATOM     14  C   UNL     1       6.403   5.952  16.501  0.00  0.00    +0.000 A 
ATOM     15  N   UNL     1       7.394   5.874  15.555  0.00  0.00    +0.000 N 
ATOM     16  C   UNL     1       6.976   5.121  14.478  0.00  0.00    +0.000 A 
ATOM     17  C   UNL     1       7.659   4.758  13.309  0.00  0.00    +0.000 A 
ATOM     18  C   UNL     1       6.981   3.952  12.391  0.00  0.00    +0.000 A 
ATOM     19  C   UNL     1       5.678   3.540  12.640  0.00  0.00    +0.000 A 
ATOM     20  F   UNL     1       5.055   2.765  11.742  0.00  0.00    +0.000 F 
ATOM     21  C   UNL     1       5.005   3.900  13.807  0.00  0.00    +0.000 A 
ATOM     22  C   UNL     1       5.670   4.704  14.753  0.00  0.00    +0.000 A 
ATOM     23  H   UNL     1       8.318   6.274  15.648  0.00  0.00    +0.000 HD
ENDBRANCH  11  13
TORSDOF 1
ENDMDL
MODEL 3
REMARK VINA RESULT:      -9.0      2.450      6.673
REMARK  Name = 
REMARK  1 active torsions:
REMARK  status: ('A' for Active; 'I' for Inactive)
REMARK    1  A    between atoms: C_11  and  C_12
REMARK                            x       y       z     vdW  Elec       q    Type
REMARK                         _______ _______ _______ _____ _____    ______ ____
ROOT
ATOM      1  O   UNL     1       6.405   5.384  17.770  0.00  0.00    +0.000 OA
ATOM      2  C   UNL     1       6.395   5.081  16.594  0.00  0.00    +0.000 C 
ATOM      3  N   UNL     1       7.350   5.443  15.660  0.00  0.00    +0.000 N 
ATOM      4  C   UNL     1       7.072   4.908  14.410  0.00  0.00    +0.000 A 
ATOM      5  C   UNL     1       7.824   5.077  13.265  0.00  0.00    +0.000 A 
ATOM      6  C   UNL     1       7.370   4.456  12.103  0.00  0.00    +0.000 A 
ATOM      7  C   UNL     1       6.185   3.697  12.113  0.00  0.00    +0.000 A 
ATOM      8  C   UNL     1       5.434   3.541  13.289  0.00  0.00    +0.000 A 
ATOM      9  C   UNL     1       5.893   4.151  14.442  0.00  0.00    +0.000 A 
ATOM     10  C   UNL     1       5.405   4.233  15.827  0.00  0.00    +0.000 C 
ATOM     11  C   UNL     1       4.288   3.689  16.338  0.00  0.00    +0.000 C 
ATOM     12  H   UNL     1       8.141   6.020  15.896  0.00  0.00    +0.000 HD
ENDROOT
BRANCH  11  13
ATOM     13  C   UNL     1       3.832   3.889  17.674  0.00  0.00    +0.000 A 
ATOM     14  C   UNL     1       3.968   2.978  18.697  0.00  0.00    +0.000 A 
ATOM     15  N   UNL     1       3.540   3.588  19.849  0.00  0.00    +0.000 N 
ATOM     16  C   UNL     1       3.093   4.865  19.583  0.00  0.00    +0.000 A 
ATOM     17  C   UNL     1       2.599   5.850  20.450  0.00  0.00    +0.000 A 
ATOM     18  C   UNL     1       2.243   7.080  19.891  0.00  0.00    +0.000 A 
ATOM     19  C   UNL     1       2.374   7.300  18.525  0.00  0.00    +0.000 A 
ATOM     20  F   UNL     1       2.026   8.491  18.019  0.00  0.00    +0.000 F 
ATOM     21  C   UNL     1       2.870   6.318  17.669  0.00  0.00    +0.000 A 
ATOM     22  C   UNL     1       3.245   5.073  18.208  0.00  0.00    +0.000 A 
ATOM     23  H   UNL     1       3.584   3.180  20.773  0.00  0.00    +0.000 HD
ENDBRANCH  11  13
TORSDOF 1
ENDMDL
MODEL 4
REMARK VINA RESULT:      -8.3      3.768      5.679
REMARK  Name = 
REMARK  1 active torsions:
REMARK  status: ('A' for Active; 'I' for Inactive)
REMARK    1  A    between atoms: C_11  and  C_12
REMARK                            x       y       z     vdW  Elec       q    Type
REMARK                         _______ _______ _______ _____ _____    ______ ____
ROOT
ATOM      1  O   UNL     1       2.895   5.912  20.557  0.00  0.00    +0.000 OA
ATOM      2  C   UNL     1       2.322   6.931  20.229  0.00  0.00    +0.000 C 
ATOM      3  N   UNL     1       1.599   7.756  21.074  0.00  0.00    +0.000 N 
ATOM      4  C   UNL     1       1.097   8.862  20.402  0.00  0.00    +0.000 A 
ATOM      5  C   UNL     1       0.336   9.874  20.953  0.00  0.00    +0.000 A 
ATOM      6  C   UNL     1      -0.076  10.899  20.103  0.00  0.00    +0.000 A 
ATOM      7  C   UNL     1       0.271  10.882  18.739  0.00  0.00    +0.000 A 
ATOM      8  C   UNL     1       1.043   9.840  18.201  0.00  0.00    +0.000 A 
ATOM      9  C   UNL     1       1.458   8.830  19.049  0.00  0.00    +0.000 A 
ATOM     10  C   UNL     1       2.245   7.600  18.875  0.00  0.00    +0.000 C 
ATOM     11  C   UNL     1       2.786   7.123  17.742  0.00  0.00    +0.000 C 
ATOM     12  H   UNL     1       1.480   7.551  22.053  0.00  0.00    +0.000 HD
ENDROOT
BRANCH  11  13
ATOM     13  C   UNL     1       3.460   5.872  17.634  0.00  0.00    +0.000 A 
ATOM     14  C   UNL     1       4.810   5.721  17.414  0.00  0.00    +0.000 A 
ATOM     15  N   UNL     1       5.097   4.383  17.517  0.00  0.00    +0.000 N 
ATOM     16  C   UNL     1       3.948   3.661  17.761  0.00  0.00    +0.000 A 
ATOM     17  C   UNL     1       3.771   2.285  17.964  0.00  0.00    +0.000 A 
ATOM     18  C   UNL     1       2.473   1.834  18.222  0.00  0.00    +0.000 A 
ATOM     19  C   UNL     1       1.411   2.728  18.267  0.00  0.00    +0.000 A 
ATOM     20  F   UNL     1       0.178   2.265  18.519  0.00  0.00    +0.000 F 
ATOM     21  C   UNL     1       1.594   4.096  18.069  0.00  0.00    +0.000 A 
ATOM     22  C   UNL     1       2.893   4.577  17.817  0.00  0.00    +0.000 A 
ATOM     23  H   UNL     1       6.023   3.982  17.465  0.00  0.00    +0.000 HD
ENDBRANCH  11  13
TORSDOF 1
ENDMDL
MODEL 5
REMARK VINA RESULT:      -8.3      2.238      6.802
REMARK  Name = 
REMARK  1 active torsions:
REMARK  status: ('A' for Active; 'I' for Inactive)
REMARK    1  A    between atoms: C_11  and  C_12
REMARK                            x       y       z     vdW  Elec       q    Type
REMARK                         _______ _______ _______ _____ _____    ______ ____
ROOT
ATOM      1  O   UNL     1       6.474   6.107  17.516  0.00  0.00    +0.000 OA
ATOM      2  C   UNL     1       6.400   5.609  16.412  0.00  0.00    +0.000 C 
ATOM      3  N   UNL     1       7.400   5.618  15.454  0.00  0.00    +0.000 N 
ATOM      4  C   UNL     1       7.019   4.933  14.309  0.00  0.00    +0.000 A 
ATOM      5  C   UNL     1       7.782   4.756  13.173  0.00  0.00    +0.000 A 
ATOM      6  C   UNL     1       7.212   4.035  12.125  0.00  0.00    +0.000 A 
ATOM      7  C   UNL     1       5.906   3.522  12.235  0.00  0.00    +0.000 A 
ATOM      8  C   UNL     1       5.147   3.717  13.401  0.00  0.00    +0.000 A 
ATOM      9  C   UNL     1       5.719   4.425  14.442  0.00  0.00    +0.000 A 
ATOM     10  C   UNL     1       5.264   4.837  15.777  0.00  0.00    +0.000 C 
ATOM     11  C   UNL     1       4.069   4.608  16.345  0.00  0.00    +0.000 C 
ATOM     12  H   UNL     1       8.286   6.072  15.608  0.00  0.00    +0.000 HD
ENDROOT
BRANCH  11  13
ATOM     13  C   UNL     1       3.667   5.120  17.614  0.00  0.00    +0.000 A 
ATOM     14  C   UNL     1       3.726   6.444  17.984  0.00  0.00    +0.000 A 
ATOM     15  N   UNL     1       3.122   6.556  19.211  0.00  0.00    +0.000 N 
ATOM     16  C   UNL     1       2.708   5.320  19.659  0.00  0.00    +0.000 A 
ATOM     17  C   UNL     1       2.028   4.965  20.833  0.00  0.00    +0.000 A 
ATOM     18  C   UNL     1       1.709   3.616  21.010  0.00  0.00    +0.000 A 
ATOM     19  C   UNL     1       2.065   2.675  20.051  0.00  0.00    +0.000 A 
ATOM     20  F   UNL     1       1.743   1.389  20.249  0.00  0.00    +0.000 F 
ATOM     21  C   UNL     1       2.737   3.034  18.884  0.00  0.00    +0.000 A 
ATOM     22  C   UNL     1       3.061   4.389  18.677  0.00  0.00    +0.000 A 
ATOM     23  H   UNL     1       2.962   7.424  19.702  0.00  0.00    +0.000 HD
ENDBRANCH  11  13
TORSDOF 1
ENDMDL
MODEL 6
REMARK VINA RESULT:      -8.2      4.003      6.096
REMARK  Name = 
REMARK  1 active torsions:
REMARK  status: ('A' for Active; 'I' for Inactive)
REMARK    1  A    between atoms: C_11  and  C_12
REMARK                            x       y       z     vdW  Elec       q    Type
REMARK                         _______ _______ _______ _____ _____    ______ ____
ROOT
ATOM      1  O   UNL     1       2.291   8.101  17.688  0.00  0.00    +0.000 OA
ATOM      2  C   UNL     1       1.799   8.556  18.700  0.00  0.00    +0.000 C 
ATOM      3  N   UNL     1       1.188   9.793  18.813  0.00  0.00    +0.000 N 
ATOM      4  C   UNL     1       0.693  10.005  20.092  0.00  0.00    +0.000 A 
ATOM      5  C   UNL     1       0.031  11.132  20.534  0.00  0.00    +0.000 A 
ATOM      6  C   UNL     1      -0.385  11.150  21.864  0.00  0.00    +0.000 A 
ATOM      7  C   UNL     1      -0.124  10.057  22.711  0.00  0.00    +0.000 A 
ATOM      8  C   UNL     1       0.554   8.921  22.240  0.00  0.00    +0.000 A 
ATOM      9  C   UNL     1       0.957   8.903  20.917  0.00  0.00    +0.000 A 
ATOM     10  C   UNL     1       1.677   7.937  20.075  0.00  0.00    +0.000 C 
ATOM     11  C   UNL     1       2.166   6.738  20.432  0.00  0.00    +0.000 C 
ATOM     12  H   UNL     1       1.123  10.433  18.038  0.00  0.00    +0.000 HD
ENDROOT
BRANCH  11  13
ATOM     13  C   UNL     1       2.936   5.894  19.580  0.00  0.00    +0.000 A 
ATOM     14  C   UNL     1       4.244   6.122  19.218  0.00  0.00    +0.000 A 
ATOM     15  N   UNL     1       4.673   5.024  18.516  0.00  0.00    +0.000 N 
ATOM     16  C   UNL     1       3.654   4.106  18.383  0.00  0.00    +0.000 A 
ATOM     17  C   UNL     1       3.647   2.844  17.774  0.00  0.00    +0.000 A 
ATOM     18  C   UNL     1       2.456   2.113  17.819  0.00  0.00    +0.000 A 
ATOM     19  C   UNL     1       1.330   2.636  18.442  0.00  0.00    +0.000 A 
ATOM     20  F   UNL     1       0.203   1.911  18.471  0.00  0.00    +0.000 F 
ATOM     21  C   UNL     1       1.344   3.890  19.051  0.00  0.00    +0.000 A 
ATOM     22  C   UNL     1       2.534   4.642  19.028  0.00  0.00    +0.000 A 
ATOM     23  H   UNL     1       5.616   4.883  18.179  0.00  0.00    +0.000 HD
ENDBRANCH  11  13
TORSDOF 1
ENDMDL
MODEL 7
REMARK VINA RESULT:      -8.2      2.668      6.839
REMARK  Name = 
REMARK  1 active torsions:
REMARK  status: ('A' for Active; 'I' for Inactive)
REMARK    1  A    between atoms: C_11  and  C_12
REMARK                            x       y       z     vdW  Elec       q    Type
REMARK                         _______ _______ _______ _____ _____    ______ ____
ROOT
ATOM      1  O   UNL     1       6.041   4.369  18.737  0.00  0.00    +0.000 OA
ATOM      2  C   UNL     1       6.125   4.379  17.526  0.00  0.00    +0.000 C 
ATOM      3  N   UNL     1       7.173   4.912  16.795  0.00  0.00    +0.000 N 
ATOM      4  C   UNL     1       6.989   4.734  15.431  0.00  0.00    +0.000 A 
ATOM      5  C   UNL     1       7.847   5.147  14.432  0.00  0.00    +0.000 A 
ATOM      6  C   UNL     1       7.476   4.874  13.116  0.00  0.00    +0.000 A 
ATOM      7  C   UNL     1       6.268   4.209  12.836  0.00  0.00    +0.000 A 
ATOM      8  C   UNL     1       5.409   3.801  13.869  0.00  0.00    +0.000 A 
ATOM      9  C   UNL     1       5.785   4.066  15.173  0.00  0.00    +0.000 A 
ATOM     10  C   UNL     1       5.177   3.817  16.489  0.00  0.00    +0.000 C 
ATOM     11  C   UNL     1       4.000   3.227  16.752  0.00  0.00    +0.000 C 
ATOM     12  H   UNL     1       7.960   5.361  17.235  0.00  0.00    +0.000 HD
ENDROOT
BRANCH  11  13
ATOM     13  C   UNL     1       3.433   3.103  18.055  0.00  0.00    +0.000 A 
ATOM     14  C   UNL     1       3.399   1.941  18.792  0.00  0.00    +0.000 A 
ATOM     15  N   UNL     1       2.909   2.257  20.034  0.00  0.00    +0.000 N 
ATOM     16  C   UNL     1       2.589   3.596  20.101  0.00  0.00    +0.000 A 
ATOM     17  C   UNL     1       2.090   4.354  21.170  0.00  0.00    +0.000 A 
ATOM     18  C   UNL     1       1.885   5.719  20.951  0.00  0.00    +0.000 A 
ATOM     19  C   UNL     1       2.164   6.286  19.713  0.00  0.00    +0.000 A 
ATOM     20  F   UNL     1       1.959   7.598  19.534  0.00  0.00    +0.000 F 
ATOM     21  C   UNL     1       2.664   5.527  18.655  0.00  0.00    +0.000 A 
ATOM     22  C   UNL     1       2.889   4.151  18.853  0.00  0.00    +0.000 A 
ATOM     23  H   UNL     1       2.832   1.612  20.808  0.00  0.00    +0.000 HD
ENDBRANCH  11  13
TORSDOF 1
ENDMDL
MODEL 8
REMARK VINA RESULT:      -8.2      5.510      8.193
REMARK  Name = 
REMARK  1 active torsions:
REMARK  status: ('A' for Active; 'I' for Inactive)
REMARK    1  A    between atoms: C_11  and  C_12
REMARK                            x       y       z     vdW  Elec       q    Type
REMARK                         _______ _______ _______ _____ _____    ______ ____
ROOT
ATOM      1  O   UNL     1       1.013   8.357  20.703  0.00  0.00    +0.000 OA
ATOM      2  C   UNL     1       1.808   7.775  19.992  0.00  0.00    +0.000 C 
ATOM      3  N   UNL     1       2.444   6.585  20.301  0.00  0.00    +0.000 N 
ATOM      4  C   UNL     1       3.265   6.160  19.266  0.00  0.00    +0.000 A 
ATOM      5  C   UNL     1       4.036   5.015  19.255  0.00  0.00    +0.000 A 
ATOM      6  C   UNL     1       4.798   4.768  18.114  0.00  0.00    +0.000 A 
ATOM      7  C   UNL     1       4.776   5.665  17.030  0.00  0.00    +0.000 A 
ATOM      8  C   UNL     1       3.986   6.825  17.065  0.00  0.00    +0.000 A 
ATOM      9  C   UNL     1       3.224   7.062  18.195  0.00  0.00    +0.000 A 
ATOM     10  C   UNL     1       2.305   8.132  18.609  0.00  0.00    +0.000 C 
ATOM     11  C   UNL     1       1.968   9.237  17.924  0.00  0.00    +0.000 C 
ATOM     12  H   UNL     1       2.299   6.110  21.178  0.00  0.00    +0.000 HD
ENDROOT
BRANCH  11  13
ATOM     13  C   UNL     1       1.137  10.279  18.432  0.00  0.00    +0.000 A 
ATOM     14  C   UNL     1       1.588  11.380  19.123  0.00  0.00    +0.000 A 
ATOM     15  N   UNL     1       0.515  12.214  19.313  0.00  0.00    +0.000 N 
ATOM     16  C   UNL     1      -0.631  11.653  18.791  0.00  0.00    +0.000 A 
ATOM     17  C   UNL     1      -1.938  12.155  18.734  0.00  0.00    +0.000 A 
ATOM     18  C   UNL     1      -2.906  11.363  18.110  0.00  0.00    +0.000 A 
ATOM     19  C   UNL     1      -2.568  10.125  17.577  0.00  0.00    +0.000 A 
ATOM     20  F   UNL     1      -3.518   9.389  16.983  0.00  0.00    +0.000 F 
ATOM     21  C   UNL     1      -1.265   9.633  17.633  0.00  0.00    +0.000 A 
ATOM     22  C   UNL     1      -0.270  10.416  18.248  0.00  0.00    +0.000 A 
ATOM     23  H   UNL     1       0.561  13.131  19.736  0.00  0.00    +0.000 HD
ENDBRANCH  11  13
TORSDOF 1
ENDMDL
MODEL 9
REMARK VINA RESULT:      -8.1      2.388      6.786
REMARK  Name = 
REMARK  1 active torsions:
REMARK  status: ('A' for Active; 'I' for Inactive)
REMARK    1  A    between atoms: C_11  and  C_12
REMARK                            x       y       z     vdW  Elec       q    Type
REMARK                         _______ _______ _______ _____ _____    ______ ____
ROOT
ATOM      1  O   UNL     1       5.947   5.939  17.741  0.00  0.00    +0.000 OA
ATOM      2  C   UNL     1       6.068   5.515  16.609  0.00  0.00    +0.000 C 
ATOM      3  N   UNL     1       7.116   5.799  15.750  0.00  0.00    +0.000 N 
ATOM      4  C   UNL     1       6.981   5.132  14.540  0.00  0.00    +0.000 A 
ATOM      5  C   UNL     1       7.851   5.198  13.471  0.00  0.00    +0.000 A 
ATOM      6  C   UNL     1       7.532   4.450  12.339  0.00  0.00    +0.000 A 
ATOM      7  C   UNL     1       6.360   3.672  12.301  0.00  0.00    +0.000 A 
ATOM      8  C   UNL     1       5.487   3.623  13.400  0.00  0.00    +0.000 A 
ATOM      9  C   UNL     1       5.812   4.358  14.525  0.00  0.00    +0.000 A 
ATOM     10  C   UNL     1       5.175   4.572  15.833  0.00  0.00    +0.000 C 
ATOM     11  C   UNL     1       4.015   4.061  16.276  0.00  0.00    +0.000 C 
ATOM     12  H   UNL     1       7.871   6.414  16.008  0.00  0.00    +0.000 HD
ENDROOT
BRANCH  11  13
ATOM     13  C   UNL     1       3.414   4.388  17.527  0.00  0.00    +0.000 A 
ATOM     14  C   UNL     1       2.510   5.406  17.724  0.00  0.00    +0.000 A 
ATOM     15  N   UNL     1       2.059   5.311  19.017  0.00  0.00    +0.000 N 
ATOM     16  C   UNL     1       2.686   4.272  19.671  0.00  0.00    +0.000 A 
ATOM     17  C   UNL     1       2.519   3.795  20.979  0.00  0.00    +0.000 A 
ATOM     18  C   UNL     1       3.284   2.691  21.365  0.00  0.00    +0.000 A 
ATOM     19  C   UNL     1       4.175   2.104  20.475  0.00  0.00    +0.000 A 
ATOM     20  F   UNL     1       4.893   1.045  20.873  0.00  0.00    +0.000 F 
ATOM     21  C   UNL     1       4.333   2.579  19.174  0.00  0.00    +0.000 A 
ATOM     22  C   UNL     1       3.567   3.685  18.758  0.00  0.00    +0.000 A 
ATOM     23  H   UNL     1       1.338   5.890  19.424  0.00  0.00    +0.000 HD
ENDBRANCH  11  13
TORSDOF 1
ENDMDL
