MODEL 1
REMARK VINA RESULT:      -6.0      0.000      0.000
REMARK  Name = 
REMARK  2 active torsions:
REMARK  status: ('A' for Active; 'I' for Inactive)
REMARK    1  A    between atoms: C_1  and  O_2
REMARK    2  A    between atoms: O_2  and  C_3
REMARK                            x       y       z     vdW  Elec       q    Type
REMARK                         _______ _______ _______ _____ _____    ______ ____
ROOT
ATOM      1  C   UNL     1       4.583   3.810  18.786  0.00  0.00    +0.000 A 
ATOM      2  C   UNL     1       3.841   3.497  17.637  0.00  0.00    +0.000 A 
ATOM      3  C   UNL     1       4.174   4.036  16.395  0.00  0.00    +0.000 A 
ATOM      4  C   UNL     1       5.269   4.885  16.283  0.00  0.00    +0.000 A 
ATOM      5  C   UNL     1       6.026   5.188  17.420  0.00  0.00    +0.000 A 
ATOM      6  C   UNL     1       7.203   6.070  17.300  0.00  0.00    +0.000 A 
ATOM      7  O   UNL     1       7.554   6.559  16.235  0.00  0.00    +0.000 OA
ATOM      8  C   UNL     1       7.949   6.343  18.536  0.00  0.00    +0.000 A 
ATOM      9  C   UNL     1       7.531   5.765  19.664  0.00  0.00    +0.000 A 
ATOM     10  O   UNL     1       6.454   4.926  19.787  0.00  0.00    +0.000 OA
ATOM     11  C   UNL     1       5.694   4.657  18.674  0.00  0.00    +0.000 A 
ENDROOT
BRANCH   1  13
ATOM     12  C   UNL     1       2.854   2.566  19.852  0.00  0.00    +0.000 C 
ATOM     13  O   UNL     1       4.141   3.168  19.914  0.00  0.00    +0.000 OA
ENDBRANCH   1  13
TORSDOF 1
ENDMDL
MODEL 2
REMARK VINA RESULT:      -6.0      1.860      4.888
REMARK  Name = 
REMARK  2 active torsions:
REMARK  status: ('A' for Active; 'I' for Inactive)
REMARK    1  A    between atoms: C_1  and  O_2
REMARK    2  A    between atoms: O_2  and  C_3
REMARK                            x       y       z     vdW  Elec       q    Type
REMARK                         _______ _______ _______ _____ _____    ______ ____
ROOT
ATOM      1  C   UNL     1       4.464   4.667  18.964  0.00  0.00    +0.000 A 
ATOM      2  C   UNL     1       4.742   4.532  17.596  0.00  0.00    +0.000 A 
ATOM      3  C   UNL     1       3.874   3.845  16.748  0.00  0.00    +0.000 A 
ATOM      4  C   UNL     1       2.703   3.296  17.258  0.00  0.00    +0.000 A 
ATOM      5  C   UNL     1       2.408   3.442  18.618  0.00  0.00    +0.000 A 
ATOM      6  C   UNL     1       1.154   2.881  19.158  0.00  0.00    +0.000 A 
ATOM      7  O   UNL     1       0.347   2.283  18.461  0.00  0.00    +0.000 OA
ATOM      8  C   UNL     1       0.914   3.073  20.595  0.00  0.00    +0.000 A 
ATOM      9  C   UNL     1       1.820   3.751  21.300  0.00  0.00    +0.000 A 
ATOM     10  O   UNL     1       2.978   4.298  20.809  0.00  0.00    +0.000 OA
ATOM     11  C   UNL     1       3.279   4.124  19.479  0.00  0.00    +0.000 A 
ENDROOT
BRANCH   1  13
ATOM     12  C   UNL     1       6.700   5.482  19.065  0.00  0.00    +0.000 C 
ATOM     13  O   UNL     1       5.403   5.400  19.643  0.00  0.00    +0.000 OA
ENDBRANCH   1  13
TORSDOF 1
ENDMDL
MODEL 3
REMARK VINA RESULT:      -5.9      1.455      4.008
REMARK  Name = 
REMARK  2 active torsions:
REMARK  status: ('A' for Active; 'I' for Inactive)
REMARK    1  A    between atoms: C_1  and  O_2
REMARK    2  A    between atoms: O_2  and  C_3
REMARK                            x       y       z     vdW  Elec       q    Type
REMARK                         _______ _______ _______ _____ _____    ______ ____
ROOT
ATOM      1  C   UNL     1       6.732   4.579  17.789  0.00  0.00    +0.000 A 
ATOM      2  C   UNL     1       6.896   5.072  16.486  0.00  0.00    +0.000 A 
ATOM      3  C   UNL     1       5.872   4.974  15.543  0.00  0.00    +0.000 A 
ATOM      4  C   UNL     1       4.659   4.395  15.901  0.00  0.00    +0.000 A 
ATOM      5  C   UNL     1       4.480   3.918  17.204  0.00  0.00    +0.000 A 
ATOM      6  C   UNL     1       3.186   3.324  17.593  0.00  0.00    +0.000 A 
ATOM      7  O   UNL     1       2.247   3.226  16.816  0.00  0.00    +0.000 OA
ATOM      8  C   UNL     1       3.072   2.845  18.977  0.00  0.00    +0.000 A 
ATOM      9  C   UNL     1       4.123   2.997  19.785  0.00  0.00    +0.000 A 
ATOM     10  O   UNL     1       5.324   3.567  19.445  0.00  0.00    +0.000 OA
ATOM     11  C   UNL     1       5.507   4.005  18.155  0.00  0.00    +0.000 A 
ENDROOT
BRANCH   1  13
ATOM     12  C   UNL     1       7.992   6.096  19.124  0.00  0.00    +0.000 C 
ATOM     13  O   UNL     1       7.822   4.788  18.593  0.00  0.00    +0.000 OA
ENDBRANCH   1  13
TORSDOF 1
ENDMDL
MODEL 4
REMARK VINA RESULT:      -5.9      1.720      4.200
REMARK  Name = 
REMARK  2 active torsions:
REMARK  status: ('A' for Active; 'I' for Inactive)
REMARK    1  A    between atoms: C_1  and  O_2
REMARK    2  A    between atoms: O_2  and  C_3
REMARK                            x       y       z     vdW  Elec       q    Type
REMARK                         _______ _______ _______ _____ _____    ______ ____
ROOT
ATOM      1  C   UNL     1       5.658   4.803  18.829  0.00  0.00    +0.000 A 
ATOM      2  C   UNL     1       6.197   4.525  17.564  0.00  0.00    +0.000 A 
ATOM      3  C   UNL     1       5.385   4.108  16.510  0.00  0.00    +0.000 A 
ATOM      4  C   UNL     1       4.014   3.979  16.705  0.00  0.00    +0.000 A 
ATOM      5  C   UNL     1       3.465   4.272  17.958  0.00  0.00    +0.000 A 
ATOM      6  C   UNL     1       2.008   4.159  18.161  0.00  0.00    +0.000 A 
ATOM      7  O   UNL     1       1.244   3.814  17.270  0.00  0.00    +0.000 OA
ATOM      8  C   UNL     1       1.504   4.482  19.503  0.00  0.00    +0.000 A 
ATOM      9  C   UNL     1       2.383   4.872  20.428  0.00  0.00    +0.000 A 
ATOM     10  O   UNL     1       3.736   5.004  20.248  0.00  0.00    +0.000 OA
ATOM     11  C   UNL     1       4.276   4.684  19.025  0.00  0.00    +0.000 A 
ENDROOT
BRANCH   1  13
ATOM     12  C   UNL     1       7.785   5.800  19.218  0.00  0.00    +0.000 C 
ATOM     13  O   UNL     1       6.589   5.233  19.738  0.00  0.00    +0.000 OA
ENDBRANCH   1  13
TORSDOF 1
ENDMDL
MODEL 5
REMARK VINA RESULT:      -5.8      1.533      4.351
REMARK  Name = 
REMARK  2 active torsions:
REMARK  status: ('A' for Active; 'I' for Inactive)
REMARK    1  A    between atoms: C_1  and  O_2
REMARK    2  A    between atoms: O_2  and  C_3
REMARK                            x       y       z     vdW  Elec       q    Type
REMARK                         _______ _______ _______ _____ _____    ______ ____
ROOT
ATOM      1  C   UNL     1       5.855   4.945  18.378  0.00  0.00    +0.000 A 
ATOM      2  C   UNL     1       5.556   6.096  17.634  0.00  0.00    +0.000 A 
ATOM      3  C   UNL     1       4.236   6.463  17.373  0.00  0.00    +0.000 A 
ATOM      4  C   UNL     1       3.194   5.688  17.870  0.00  0.00    +0.000 A 
ATOM      5  C   UNL     1       3.483   4.548  18.628  0.00  0.00    +0.000 A 
ATOM      6  C   UNL     1       2.379   3.737  19.177  0.00  0.00    +0.000 A 
ATOM      7  O   UNL     1       1.202   4.018  18.995  0.00  0.00    +0.000 OA
ATOM      8  C   UNL     1       2.759   2.555  19.962  0.00  0.00    +0.000 A 
ATOM      9  C   UNL     1       4.058   2.311  20.144  0.00  0.00    +0.000 A 
ATOM     10  O   UNL     1       5.095   3.068  19.660  0.00  0.00    +0.000 OA
ATOM     11  C   UNL     1       4.807   4.168  18.889  0.00  0.00    +0.000 A 
ENDROOT
BRANCH   1  13
ATOM     12  C   UNL     1       7.914   5.793  19.223  0.00  0.00    +0.000 C 
ATOM     13  O   UNL     1       7.198   4.753  18.569  0.00  0.00    +0.000 OA
ENDBRANCH   1  13
TORSDOF 1
ENDMDL
MODEL 6
REMARK VINA RESULT:      -5.8      2.235      2.767
REMARK  Name = 
REMARK  2 active torsions:
REMARK  status: ('A' for Active; 'I' for Inactive)
REMARK    1  A    between atoms: C_1  and  O_2
REMARK    2  A    between atoms: O_2  and  C_3
REMARK                            x       y       z     vdW  Elec       q    Type
REMARK                         _______ _______ _______ _____ _____    ______ ____
ROOT
ATOM      1  C   UNL     1       2.956   4.166  17.357  0.00  0.00    +0.000 A 
ATOM      2  C   UNL     1       2.147   5.120  17.992  0.00  0.00    +0.000 A 
ATOM      3  C   UNL     1       2.604   6.418  18.218  0.00  0.00    +0.000 A 
ATOM      4  C   UNL     1       3.877   6.783  17.795  0.00  0.00    +0.000 A 
ATOM      5  C   UNL     1       4.684   5.844  17.144  0.00  0.00    +0.000 A 
ATOM      6  C   UNL     1       6.026   6.237  16.672  0.00  0.00    +0.000 A 
ATOM      7  O   UNL     1       6.475   7.364  16.827  0.00  0.00    +0.000 OA
ATOM      8  C   UNL     1       6.816   5.197  15.999  0.00  0.00    +0.000 A 
ATOM      9  C   UNL     1       6.266   3.992  15.841  0.00  0.00    +0.000 A 
ATOM     10  O   UNL     1       5.012   3.619  16.253  0.00  0.00    +0.000 OA
ATOM     11  C   UNL     1       4.235   4.535  16.920  0.00  0.00    +0.000 A 
ENDROOT
BRANCH   1  13
ATOM     12  C   UNL     1       2.234   2.114  18.327  0.00  0.00    +0.000 C 
ATOM     13  O   UNL     1       2.339   2.954  17.185  0.00  0.00    +0.000 OA
ENDBRANCH   1  13
TORSDOF 1
ENDMDL
MODEL 7
REMARK VINA RESULT:      -5.8      1.425      1.562
REMARK  Name = 
REMARK  2 active torsions:
REMARK  status: ('A' for Active; 'I' for Inactive)
REMARK    1  A    between atoms: C_1  and  O_2
REMARK    2  A    between atoms: O_2  and  C_3
REMARK                            x       y       z     vdW  Elec       q    Type
REMARK                         _______ _______ _______ _____ _____    ______ ____
ROOT
ATOM      1  C   UNL     1       3.509   4.657  19.286  0.00  0.00    +0.000 A 
ATOM      2  C   UNL     1       2.597   4.025  18.426  0.00  0.00    +0.000 A 
ATOM      3  C   UNL     1       2.981   3.602  17.154  0.00  0.00    +0.000 A 
ATOM      4  C   UNL     1       4.292   3.792  16.730  0.00  0.00    +0.000 A 
ATOM      5  C   UNL     1       5.212   4.404  17.588  0.00  0.00    +0.000 A 
ATOM      6  C   UNL     1       6.610   4.585  17.149  0.00  0.00    +0.000 A 
ATOM      7  O   UNL     1       7.008   4.220  16.053  0.00  0.00    +0.000 OA
ATOM      8  C   UNL     1       7.518   5.236  18.103  0.00  0.00    +0.000 A 
ATOM      9  C   UNL     1       7.031   5.595  19.293  0.00  0.00    +0.000 A 
ATOM     10  O   UNL     1       5.742   5.412  19.723  0.00  0.00    +0.000 OA
ATOM     11  C   UNL     1       4.833   4.839  18.865  0.00  0.00    +0.000 A 
ENDROOT
BRANCH   1  13
ATOM     12  C   UNL     1       2.028   4.068  21.056  0.00  0.00    +0.000 C 
ATOM     13  O   UNL     1       2.976   4.976  20.508  0.00  0.00    +0.000 OA
ENDBRANCH   1  13
TORSDOF 1
ENDMDL
MODEL 8
REMARK VINA RESULT:      -5.7      2.113      4.883
REMARK  Name = 
REMARK  2 active torsions:
REMARK  status: ('A' for Active; 'I' for Inactive)
REMARK    1  A    between atoms: C_1  and  O_2
REMARK    2  A    between atoms: O_2  and  C_3
REMARK                            x       y       z     vdW  Elec       q    Type
REMARK                         _______ _______ _______ _____ _____    ______ ____
ROOT
ATOM      1  C   UNL     1       4.682   4.796  16.999  0.00  0.00    +0.000 A 
ATOM      2  C   UNL     1       4.537   6.186  17.122  0.00  0.00    +0.000 A 
ATOM      3  C   UNL     1       3.501   6.740  17.873  0.00  0.00    +0.000 A 
ATOM      4  C   UNL     1       2.603   5.904  18.529  0.00  0.00    +0.000 A 
ATOM      5  C   UNL     1       2.751   4.517  18.428  0.00  0.00    +0.000 A 
ATOM      6  C   UNL     1       1.814   3.629  19.142  0.00  0.00    +0.000 A 
ATOM      7  O   UNL     1       0.896   4.055  19.829  0.00  0.00    +0.000 OA
ATOM      8  C   UNL     1       2.031   2.184  18.988  0.00  0.00    +0.000 A 
ATOM      9  C   UNL     1       3.061   1.777  18.243  0.00  0.00    +0.000 A 
ATOM     10  O   UNL     1       3.953   2.590  17.592  0.00  0.00    +0.000 OA
ATOM     11  C   UNL     1       3.785   3.953  17.668  0.00  0.00    +0.000 A 
ENDROOT
BRANCH   1  13
ATOM     12  C   UNL     1       7.052   4.606  16.847  0.00  0.00    +0.000 C 
ATOM     13  O   UNL     1       5.772   4.424  16.255  0.00  0.00    +0.000 OA
ENDBRANCH   1  13
TORSDOF 1
ENDMDL
MODEL 9
REMARK VINA RESULT:      -5.7      2.747      3.341
REMARK  Name = 
REMARK  2 active torsions:
REMARK  status: ('A' for Active; 'I' for Inactive)
REMARK    1  A    between atoms: C_1  and  O_2
REMARK    2  A    between atoms: O_2  and  C_3
REMARK                            x       y       z     vdW  Elec       q    Type
REMARK                         _______ _______ _______ _____ _____    ______ ____
ROOT
ATOM      1  C   UNL     1       1.876   3.371  19.418  0.00  0.00    +0.000 A 
ATOM      2  C   UNL     1       2.266   2.115  18.927  0.00  0.00    +0.000 A 
ATOM      3  C   UNL     1       3.198   2.002  17.896  0.00  0.00    +0.000 A 
ATOM      4  C   UNL     1       3.767   3.149  17.352  0.00  0.00    +0.000 A 
ATOM      5  C   UNL     1       3.398   4.404  17.848  0.00  0.00    +0.000 A 
ATOM      6  C   UNL     1       4.018   5.621  17.289  0.00  0.00    +0.000 A 
ATOM      7  O   UNL     1       4.852   5.584  16.396  0.00  0.00    +0.000 OA
ATOM      8  C   UNL     1       3.581   6.902  17.860  0.00  0.00    +0.000 A 
ATOM      9  C   UNL     1       2.683   6.879  18.847  0.00  0.00    +0.000 A 
ATOM     10  O   UNL     1       2.115   5.756  19.392  0.00  0.00    +0.000 OA
ATOM     11  C   UNL     1       2.456   4.527  18.879  0.00  0.00    +0.000 A 
ENDROOT
BRANCH   1  13
ATOM     12  C   UNL     1       1.437   2.708  21.663  0.00  0.00    +0.000 C 
ATOM     13  O   UNL     1       0.980   3.298  20.453  0.00  0.00    +0.000 OA
ENDBRANCH   1  13
TORSDOF 1
ENDMDL
