MODEL 1
REMARK VINA RESULT:      -6.9      0.000      0.000
REMARK  Name = 
REMARK  4 active torsions:
REMARK  status: ('A' for Active; 'I' for Inactive)
REMARK    1  A    between atoms: C_1  and  C_2
REMARK    2  A    between atoms: N_3  and  C_4
REMARK    3  A    between atoms: C_19  and  C_21
REMARK    4  A    between atoms: C_21  and  C_22
REMARK                            x       y       z     vdW  Elec       q    Type
REMARK                         _______ _______ _______ _____ _____    ______ ____
ROOT
ATOM      1  C   UNL     1       1.699   4.049  17.295  0.00  0.00    +0.000 C 
ATOM      2  C   UNL     1       2.728   3.194  18.022  0.00  0.00    +0.000 C 
ATOM      3  N   UNL     1       4.148   3.491  17.788  0.00  0.00    +0.000 N 
ATOM      4  C   UNL     1       4.943   3.203  18.988  0.00  0.00    +0.000 C 
ATOM      5  C   UNL     1       3.969   2.838  20.115  0.00  0.00    +0.000 C 
ATOM      6  C   UNL     1       2.576   3.101  19.551  0.00  0.00    +0.000 C 
ATOM      7  C   UNL     1       1.452   2.208  20.125  0.00  0.00    +0.000 C 
ATOM      8  C   UNL     1       0.609   3.480  20.287  0.00  0.00    +0.000 C 
ATOM      9  N   UNL     1       1.859   4.217  20.194  0.00  0.00    +0.000 N 
ATOM     10  C   UNL     1       2.285   5.502  20.388  0.00  0.00    +0.000 C 
ATOM     11  O   UNL     1       3.484   5.781  20.341  0.00  0.00    +0.000 OA
ENDROOT
BRANCH   3  12
ATOM     12  C   UNL     1       4.577   4.623  17.106  0.00  0.00    +0.000 A 
ATOM     13  N   UNL     1       4.222   5.874  17.488  0.00  0.00    +0.000 NA
ATOM     14  C   UNL     1       4.602   6.927  16.739  0.00  0.00    +0.000 A 
ATOM     15  N   UNL     1       5.300   6.923  15.590  0.00  0.00    +0.000 NA
ATOM     16  C   UNL     1       5.638   5.672  15.244  0.00  0.00    +0.000 A 
ATOM     17  N   UNL     1       6.323   5.335  14.110  0.00  0.00    +0.000 N 
ATOM     18  C   UNL     1       6.504   3.975  14.060  0.00  0.00    +0.000 A 
ATOM     19  C   UNL     1       5.913   3.433  15.181  0.00  0.00    +0.000 A 
ATOM     20  C   UNL     1       5.347   4.504  15.934  0.00  0.00    +0.000 A 
ATOM     21  H   UNL     1       6.618   6.003  13.416  0.00  0.00    +0.000 HD
ENDBRANCH   3  12
BRANCH  10  22
ATOM     22  C   UNL     1       1.322   6.584  20.811  0.00  0.00    +0.000 C 
BRANCH  22  23
ATOM     23  C   UNL     1       1.488   7.911  20.089  0.00  0.00    +0.000 C 
ATOM     24  N   UNL     1       1.625   9.013  19.491  0.00  0.00    +0.000 NA
ENDBRANCH  22  23
ENDBRANCH  10  22
TORSDOF 3
ENDMDL
MODEL 2
REMARK VINA RESULT:      -6.7      1.462      1.498
REMARK  Name = 
REMARK  4 active torsions:
REMARK  status: ('A' for Active; 'I' for Inactive)
REMARK    1  A    between atoms: C_1  and  C_2
REMARK    2  A    between atoms: N_3  and  C_4
REMARK    3  A    between atoms: C_19  and  C_21
REMARK    4  A    between atoms: C_21  and  C_22
REMARK                            x       y       z     vdW  Elec       q    Type
REMARK                         _______ _______ _______ _____ _____    ______ ____
ROOT
ATOM      1  C   UNL     1       2.899   4.285  17.081  0.00  0.00    +0.000 C 
ATOM      2  C   UNL     1       3.290   3.071  17.912  0.00  0.00    +0.000 C 
ATOM      3  N   UNL     1       4.692   2.960  18.337  0.00  0.00    +0.000 N 
ATOM      4  C   UNL     1       4.788   2.285  19.638  0.00  0.00    +0.000 C 
ATOM      5  C   UNL     1       3.361   2.078  20.161  0.00  0.00    +0.000 C 
ATOM      6  C   UNL     1       2.457   2.820  19.182  0.00  0.00    +0.000 C 
ATOM      7  C   UNL     1       1.035   2.233  19.023  0.00  0.00    +0.000 C 
ATOM      8  C   UNL     1       0.498   3.664  19.157  0.00  0.00    +0.000 C 
ATOM      9  N   UNL     1       1.782   3.999  19.751  0.00  0.00    +0.000 N 
ATOM     10  C   UNL     1       2.336   5.059  20.414  0.00  0.00    +0.000 C 
ATOM     11  O   UNL     1       3.460   4.971  20.913  0.00  0.00    +0.000 OA
ENDROOT
BRANCH   3  12
ATOM     12  C   UNL     1       5.608   3.993  18.188  0.00  0.00    +0.000 A 
ATOM     13  N   UNL     1       5.971   4.791  19.221  0.00  0.00    +0.000 NA
ATOM     14  C   UNL     1       6.801   5.828  18.996  0.00  0.00    +0.000 A 
ATOM     15  N   UNL     1       7.335   6.229  17.829  0.00  0.00    +0.000 NA
ATOM     16  C   UNL     1       6.959   5.417  16.830  0.00  0.00    +0.000 A 
ATOM     17  N   UNL     1       7.311   5.579  15.520  0.00  0.00    +0.000 N 
ATOM     18  C   UNL     1       6.761   4.577  14.761  0.00  0.00    +0.000 A 
ATOM     19  C   UNL     1       6.034   3.764  15.604  0.00  0.00    +0.000 A 
ATOM     20  C   UNL     1       6.143   4.299  16.922  0.00  0.00    +0.000 A 
ATOM     21  H   UNL     1       7.873   6.345  15.182  0.00  0.00    +0.000 HD
ENDBRANCH   3  12
BRANCH  10  22
ATOM     22  C   UNL     1       1.538   6.312  20.683  0.00  0.00    +0.000 C 
BRANCH  22  23
ATOM     23  C   UNL     1       1.834   7.477  19.753  0.00  0.00    +0.000 C 
ATOM     24  N   UNL     1       2.078   8.444  18.981  0.00  0.00    +0.000 NA
ENDBRANCH  22  23
ENDBRANCH  10  22
TORSDOF 3
ENDMDL
MODEL 3
REMARK VINA RESULT:      -6.5      2.263      6.264
REMARK  Name = 
REMARK  4 active torsions:
REMARK  status: ('A' for Active; 'I' for Inactive)
REMARK    1  A    between atoms: C_1  and  C_2
REMARK    2  A    between atoms: N_3  and  C_4
REMARK    3  A    between atoms: C_19  and  C_21
REMARK    4  A    between atoms: C_21  and  C_22
REMARK                            x       y       z     vdW  Elec       q    Type
REMARK                         _______ _______ _______ _____ _____    ______ ____
ROOT
ATOM      1  C   UNL     1       4.068   6.872  17.481  0.00  0.00    +0.000 C 
ATOM      2  C   UNL     1       4.996   6.248  18.515  0.00  0.00    +0.000 C 
ATOM      3  N   UNL     1       4.522   5.049  19.219  0.00  0.00    +0.000 N 
ATOM      4  C   UNL     1       5.646   4.165  19.552  0.00  0.00    +0.000 C 
ATOM      5  C   UNL     1       6.905   4.748  18.898  0.00  0.00    +0.000 C 
ATOM      6  C   UNL     1       6.417   5.906  18.034  0.00  0.00    +0.000 C 
ATOM      7  C   UNL     1       7.428   7.062  17.846  0.00  0.00    +0.000 C 
ATOM      8  C   UNL     1       7.094   7.026  16.349  0.00  0.00    +0.000 C 
ATOM      9  N   UNL     1       6.570   5.691  16.584  0.00  0.00    +0.000 N 
ATOM     10  C   UNL     1       6.140   4.634  15.831  0.00  0.00    +0.000 C 
ATOM     11  O   UNL     1       5.862   3.556  16.360  0.00  0.00    +0.000 OA
ENDROOT
BRANCH   3  12
ATOM     12  C   UNL     1       3.376   4.360  18.845  0.00  0.00    +0.000 A 
ATOM     13  N   UNL     1       2.984   4.260  17.551  0.00  0.00    +0.000 NA
ATOM     14  C   UNL     1       1.820   3.648  17.258  0.00  0.00    +0.000 A 
ATOM     15  N   UNL     1       0.924   3.112  18.105  0.00  0.00    +0.000 NA
ATOM     16  C   UNL     1       1.345   3.225  19.374  0.00  0.00    +0.000 A 
ATOM     17  N   UNL     1       0.641   2.804  20.468  0.00  0.00    +0.000 N 
ATOM     18  C   UNL     1       1.354   3.068  21.611  0.00  0.00    +0.000 A 
ATOM     19  C   UNL     1       2.532   3.678  21.239  0.00  0.00    +0.000 A 
ATOM     20  C   UNL     1       2.529   3.795  19.817  0.00  0.00    +0.000 A 
ATOM     21  H   UNL     1      -0.275   2.389  20.418  0.00  0.00    +0.000 HD
ENDBRANCH   3  12
BRANCH  10  22
ATOM     22  C   UNL     1       6.133   4.704  14.323  0.00  0.00    +0.000 C 
BRANCH  22  23
ATOM     23  C   UNL     1       7.414   5.228  13.697  0.00  0.00    +0.000 C 
ATOM     24  N   UNL     1       8.479   5.661  13.177  0.00  0.00    +0.000 NA
ENDBRANCH  22  23
ENDBRANCH  10  22
TORSDOF 3
ENDMDL
MODEL 4
REMARK VINA RESULT:      -6.4      2.340      6.248
REMARK  Name = 
REMARK  4 active torsions:
REMARK  status: ('A' for Active; 'I' for Inactive)
REMARK    1  A    between atoms: C_1  and  C_2
REMARK    2  A    between atoms: N_3  and  C_4
REMARK    3  A    between atoms: C_19  and  C_21
REMARK    4  A    between atoms: C_21  and  C_22
REMARK                            x       y       z     vdW  Elec       q    Type
REMARK                         _______ _______ _______ _____ _____    ______ ____
ROOT
ATOM      1  C   UNL     1       4.409   6.943  17.493  0.00  0.00    +0.000 C 
ATOM      2  C   UNL     1       5.305   6.293  18.540  0.00  0.00    +0.000 C 
ATOM      3  N   UNL     1       4.859   5.020  19.121  0.00  0.00    +0.000 N 
ATOM      4  C   UNL     1       6.010   4.175  19.463  0.00  0.00    +0.000 C 
ATOM      5  C   UNL     1       7.271   4.872  18.939  0.00  0.00    +0.000 C 
ATOM      6  C   UNL     1       6.771   6.066  18.131  0.00  0.00    +0.000 C 
ATOM      7  C   UNL     1       7.722   7.285  18.097  0.00  0.00    +0.000 C 
ATOM      8  C   UNL     1       7.487   7.347  16.582  0.00  0.00    +0.000 C 
ATOM      9  N   UNL     1       7.028   5.971  16.683  0.00  0.00    +0.000 N 
ATOM     10  C   UNL     1       6.709   4.953  15.827  0.00  0.00    +0.000 C 
ATOM     11  O   UNL     1       6.462   3.824  16.257  0.00  0.00    +0.000 OA
ENDROOT
BRANCH   3  12
ATOM     12  C   UNL     1       3.781   4.301  18.620  0.00  0.00    +0.000 A 
ATOM     13  N   UNL     1       3.652   4.018  17.301  0.00  0.00    +0.000 NA
ATOM     14  C   UNL     1       2.544   3.388  16.866  0.00  0.00    +0.000 A 
ATOM     15  N   UNL     1       1.473   2.996  17.578  0.00  0.00    +0.000 NA
ATOM     16  C   UNL     1       1.636   3.288  18.878  0.00  0.00    +0.000 A 
ATOM     17  N   UNL     1       0.710   3.043  19.853  0.00  0.00    +0.000 N 
ATOM     18  C   UNL     1       1.190   3.460  21.069  0.00  0.00    +0.000 A 
ATOM     19  C   UNL     1       2.446   3.991  20.863  0.00  0.00    +0.000 A 
ATOM     20  C   UNL     1       2.733   3.898  19.469  0.00  0.00    +0.000 A 
ATOM     21  H   UNL     1      -0.196   2.639  19.675  0.00  0.00    +0.000 HD
ENDBRANCH   3  12
BRANCH  10  22
ATOM     22  C   UNL     1       6.793   5.139  14.332  0.00  0.00    +0.000 C 
BRANCH  22  23
ATOM     23  C   UNL     1       6.229   3.994  13.508  0.00  0.00    +0.000 C 
ATOM     24  N   UNL     1       5.760   3.044  12.823  0.00  0.00    +0.000 NA
ENDBRANCH  22  23
ENDBRANCH  10  22
TORSDOF 3
ENDMDL
MODEL 5
REMARK VINA RESULT:      -6.3      1.497      2.005
REMARK  Name = 
REMARK  4 active torsions:
REMARK  status: ('A' for Active; 'I' for Inactive)
REMARK    1  A    between atoms: C_1  and  C_2
REMARK    2  A    between atoms: N_3  and  C_4
REMARK    3  A    between atoms: C_19  and  C_21
REMARK    4  A    between atoms: C_21  and  C_22
REMARK                            x       y       z     vdW  Elec       q    Type
REMARK                         _______ _______ _______ _____ _____    ______ ____
ROOT
ATOM      1  C   UNL     1       2.062   3.874  17.159  0.00  0.00    +0.000 C 
ATOM      2  C   UNL     1       2.895   3.090  18.164  0.00  0.00    +0.000 C 
ATOM      3  N   UNL     1       4.354   3.097  17.991  0.00  0.00    +0.000 N 
ATOM      4  C   UNL     1       5.030   3.011  19.291  0.00  0.00    +0.000 C 
ATOM      5  C   UNL     1       3.956   3.104  20.382  0.00  0.00    +0.000 C 
ATOM      6  C   UNL     1       2.657   3.422  19.649  0.00  0.00    +0.000 C 
ATOM      7  C   UNL     1       1.371   2.890  20.323  0.00  0.00    +0.000 C 
ATOM      8  C   UNL     1       0.751   4.274  20.089  0.00  0.00    +0.000 C 
ATOM      9  N   UNL     1       2.112   4.762  19.928  0.00  0.00    +0.000 N 
ATOM     10  C   UNL     1       2.740   5.973  19.835  0.00  0.00    +0.000 C 
ATOM     11  O   UNL     1       3.971   6.044  19.827  0.00  0.00    +0.000 OA
ENDROOT
BRANCH   3  12
ATOM     12  C   UNL     1       5.001   3.933  17.091  0.00  0.00    +0.000 A 
ATOM     13  N   UNL     1       4.757   3.887  15.759  0.00  0.00    +0.000 NA
ATOM     14  C   UNL     1       5.475   4.667  14.928  0.00  0.00    +0.000 A 
ATOM     15  N   UNL     1       6.472   5.516  15.235  0.00  0.00    +0.000 NA
ATOM     16  C   UNL     1       6.684   5.540  16.559  0.00  0.00    +0.000 A 
ATOM     17  N   UNL     1       7.650   6.280  17.180  0.00  0.00    +0.000 N 
ATOM     18  C   UNL     1       7.595   6.077  18.537  0.00  0.00    +0.000 A 
ATOM     19  C   UNL     1       6.578   5.180  18.785  0.00  0.00    +0.000 A 
ATOM     20  C   UNL     1       6.001   4.822  17.531  0.00  0.00    +0.000 A 
ATOM     21  H   UNL     1       8.311   6.862  16.690  0.00  0.00    +0.000 HD
ENDBRANCH   3  12
BRANCH  10  22
ATOM     22  C   UNL     1       1.957   7.262  19.888  0.00  0.00    +0.000 C 
BRANCH  22  23
ATOM     23  C   UNL     1       2.072   8.137  18.651  0.00  0.00    +0.000 C 
ATOM     24  N   UNL     1       2.167   8.864  17.625  0.00  0.00    +0.000 NA
ENDBRANCH  22  23
ENDBRANCH  10  22
TORSDOF 3
ENDMDL
MODEL 6
REMARK VINA RESULT:      -6.2      2.208      6.287
REMARK  Name = 
REMARK  4 active torsions:
REMARK  status: ('A' for Active; 'I' for Inactive)
REMARK    1  A    between atoms: C_1  and  C_2
REMARK    2  A    between atoms: N_3  and  C_4
REMARK    3  A    between atoms: C_19  and  C_21
REMARK    4  A    between atoms: C_21  and  C_22
REMARK                            x       y       z     vdW  Elec       q    Type
REMARK                         _______ _______ _______ _____ _____    ______ ____
ROOT
ATOM      1  C   UNL     1       3.727   6.256  17.485  0.00  0.00    +0.000 C 
ATOM      2  C   UNL     1       4.893   6.040  18.440  0.00  0.00    +0.000 C 
ATOM      3  N   UNL     1       4.874   4.831  19.274  0.00  0.00    +0.000 N 
ATOM      4  C   UNL     1       6.239   4.355  19.529  0.00  0.00    +0.000 C 
ATOM      5  C   UNL     1       7.195   5.214  18.692  0.00  0.00    +0.000 C 
ATOM      6  C   UNL     1       6.299   6.086  17.817  0.00  0.00    +0.000 C 
ATOM      7  C   UNL     1       6.889   7.463  17.434  0.00  0.00    +0.000 C 
ATOM      8  C   UNL     1       6.443   7.183  15.992  0.00  0.00    +0.000 C 
ATOM      9  N   UNL     1       6.374   5.782  16.377  0.00  0.00    +0.000 N 
ATOM     10  C   UNL     1       6.216   4.576  15.752  0.00  0.00    +0.000 C 
ATOM     11  O   UNL     1       6.330   3.522  16.382  0.00  0.00    +0.000 OA
ENDROOT
BRANCH   3  12
ATOM     12  C   UNL     1       3.961   3.801  19.085  0.00  0.00    +0.000 A 
ATOM     13  N   UNL     1       4.232   2.732  18.297  0.00  0.00    +0.000 NA
ATOM     14  C   UNL     1       3.276   1.806  18.088  0.00  0.00    +0.000 A 
ATOM     15  N   UNL     1       2.014   1.792  18.550  0.00  0.00    +0.000 NA
ATOM     16  C   UNL     1       1.781   2.860  19.328  0.00  0.00    +0.000 A 
ATOM     17  N   UNL     1       0.584   3.147  19.921  0.00  0.00    +0.000 N 
ATOM     18  C   UNL     1       0.687   4.307  20.647  0.00  0.00    +0.000 A 
ATOM     19  C   UNL     1       1.976   4.775  20.506  0.00  0.00    +0.000 A 
ATOM     20  C   UNL     1       2.676   3.868  19.657  0.00  0.00    +0.000 A 
ATOM     21  H   UNL     1      -0.246   2.586  19.805  0.00  0.00    +0.000 HD
ENDBRANCH   3  12
BRANCH  10  22
ATOM     22  C   UNL     1       6.048   4.491  14.255  0.00  0.00    +0.000 C 
BRANCH  22  23
ATOM     23  C   UNL     1       7.193   5.072  13.443  0.00  0.00    +0.000 C 
ATOM     24  N   UNL     1       8.144   5.554  12.770  0.00  0.00    +0.000 NA
ENDBRANCH  22  23
ENDBRANCH  10  22
TORSDOF 3
ENDMDL
MODEL 7
REMARK VINA RESULT:      -6.2      2.411      4.014
REMARK  Name = 
REMARK  4 active torsions:
REMARK  status: ('A' for Active; 'I' for Inactive)
REMARK    1  A    between atoms: C_1  and  C_2
REMARK    2  A    between atoms: N_3  and  C_4
REMARK    3  A    between atoms: C_19  and  C_21
REMARK    4  A    between atoms: C_21  and  C_22
REMARK                            x       y       z     vdW  Elec       q    Type
REMARK                         _______ _______ _______ _____ _____    ______ ____
ROOT
ATOM      1  C   UNL     1       3.862   5.144  19.862  0.00  0.00    +0.000 C 
ATOM      2  C   UNL     1       3.120   4.344  18.800  0.00  0.00    +0.000 C 
ATOM      3  N   UNL     1       3.833   4.044  17.551  0.00  0.00    +0.000 N 
ATOM      4  C   UNL     1       3.399   2.753  17.003  0.00  0.00    +0.000 C 
ATOM      5  C   UNL     1       2.460   2.105  18.027  0.00  0.00    +0.000 C 
ATOM      6  C   UNL     1       2.516   3.004  19.258  0.00  0.00    +0.000 C 
ATOM      7  C   UNL     1       1.229   3.032  20.114  0.00  0.00    +0.000 C 
ATOM      8  C   UNL     1       2.122   2.859  21.350  0.00  0.00    +0.000 C 
ATOM      9  N   UNL     1       3.148   2.384  20.436  0.00  0.00    +0.000 N 
ATOM     10  C   UNL     1       4.371   1.779  20.526  0.00  0.00    +0.000 C 
ATOM     11  O   UNL     1       4.952   1.381  19.514  0.00  0.00    +0.000 OA
ENDROOT
BRANCH   3  12
ATOM     12  C   UNL     1       5.191   4.281  17.385  0.00  0.00    +0.000 A 
ATOM     13  N   UNL     1       6.037   4.403  18.437  0.00  0.00    +0.000 NA
ATOM     14  C   UNL     1       7.329   4.712  18.214  0.00  0.00    +0.000 A 
ATOM     15  N   UNL     1       7.936   4.958  17.041  0.00  0.00    +0.000 NA
ATOM     16  C   UNL     1       7.073   4.825  16.022  0.00  0.00    +0.000 A 
ATOM     17  N   UNL     1       7.380   5.039  14.708  0.00  0.00    +0.000 N 
ATOM     18  C   UNL     1       6.274   4.816  13.927  0.00  0.00    +0.000 A 
ATOM     19  C   UNL     1       5.237   4.461  14.763  0.00  0.00    +0.000 A 
ATOM     20  C   UNL     1       5.732   4.477  16.100  0.00  0.00    +0.000 A 
ATOM     21  H   UNL     1       8.287   5.341  14.387  0.00  0.00    +0.000 HD
ENDBRANCH   3  12
BRANCH  10  22
ATOM     22  C   UNL     1       4.979   1.448  21.867  0.00  0.00    +0.000 C 
BRANCH  22  23
ATOM     23  C   UNL     1       5.852   0.205  21.889  0.00  0.00    +0.000 C 
ATOM     24  N   UNL     1       6.577  -0.827  21.907  0.00  0.00    +0.000 NA
ENDBRANCH  22  23
ENDBRANCH  10  22
TORSDOF 3
ENDMDL
MODEL 8
REMARK VINA RESULT:      -6.1      2.208      4.145
REMARK  Name = 
REMARK  4 active torsions:
REMARK  status: ('A' for Active; 'I' for Inactive)
REMARK    1  A    between atoms: C_1  and  C_2
REMARK    2  A    between atoms: N_3  and  C_4
REMARK    3  A    between atoms: C_19  and  C_21
REMARK    4  A    between atoms: C_21  and  C_22
REMARK                            x       y       z     vdW  Elec       q    Type
REMARK                         _______ _______ _______ _____ _____    ______ ____
ROOT
ATOM      1  C   UNL     1       4.931   4.805  19.889  0.00  0.00    +0.000 C 
ATOM      2  C   UNL     1       3.583   4.992  19.206  0.00  0.00    +0.000 C 
ATOM      3  N   UNL     1       3.580   5.206  17.752  0.00  0.00    +0.000 N 
ATOM      4  C   UNL     1       2.371   4.636  17.146  0.00  0.00    +0.000 C 
ATOM      5  C   UNL     1       1.614   3.877  18.243  0.00  0.00    +0.000 C 
ATOM      6  C   UNL     1       2.534   3.894  19.459  0.00  0.00    +0.000 C 
ATOM      7  C   UNL     1       1.818   3.865  20.830  0.00  0.00    +0.000 C 
ATOM      8  C   UNL     1       2.813   2.777  21.256  0.00  0.00    +0.000 C 
ATOM      9  N   UNL     1       3.066   2.573  19.839  0.00  0.00    +0.000 N 
ATOM     10  C   UNL     1       3.722   1.663  19.056  0.00  0.00    +0.000 C 
ATOM     11  O   UNL     1       3.638   1.714  17.827  0.00  0.00    +0.000 OA
ENDROOT
BRANCH   3  12
ATOM     12  C   UNL     1       4.714   5.046  16.967  0.00  0.00    +0.000 A 
ATOM     13  N   UNL     1       4.921   3.938  16.214  0.00  0.00    +0.000 NA
ATOM     14  C   UNL     1       6.077   3.805  15.536  0.00  0.00    +0.000 A 
ATOM     15  N   UNL     1       7.130   4.641  15.512  0.00  0.00    +0.000 NA
ATOM     16  C   UNL     1       6.891   5.727  16.263  0.00  0.00    +0.000 A 
ATOM     17  N   UNL     1       7.780   6.745  16.465  0.00  0.00    +0.000 N 
ATOM     18  C   UNL     1       7.221   7.698  17.281  0.00  0.00    +0.000 A 
ATOM     19  C   UNL     1       5.953   7.272  17.614  0.00  0.00    +0.000 A 
ATOM     20  C   UNL     1       5.739   6.012  16.982  0.00  0.00    +0.000 A 
ATOM     21  H   UNL     1       8.711   6.759  16.081  0.00  0.00    +0.000 HD
ENDBRANCH   3  12
BRANCH  10  22
ATOM     22  C   UNL     1       4.442   0.487  19.668  0.00  0.00    +0.000 C 
BRANCH  22  23
ATOM     23  C   UNL     1       5.256   0.804  20.911  0.00  0.00    +0.000 C 
ATOM     24  N   UNL     1       5.933   1.069  21.942  0.00  0.00    +0.000 NA
ENDBRANCH  22  23
ENDBRANCH  10  22
TORSDOF 3
ENDMDL
MODEL 9
REMARK VINA RESULT:      -6.0      2.036      5.335
REMARK  Name = 
REMARK  4 active torsions:
REMARK  status: ('A' for Active; 'I' for Inactive)
REMARK    1  A    between atoms: C_1  and  C_2
REMARK    2  A    between atoms: N_3  and  C_4
REMARK    3  A    between atoms: C_19  and  C_21
REMARK    4  A    between atoms: C_21  and  C_22
REMARK                            x       y       z     vdW  Elec       q    Type
REMARK                         _______ _______ _______ _____ _____    ______ ____
ROOT
ATOM      1  C   UNL     1       1.501   4.642  17.852  0.00  0.00    +0.000 C 
ATOM      2  C   UNL     1       2.739   5.325  17.286  0.00  0.00    +0.000 C 
ATOM      3  N   UNL     1       3.073   6.661  17.797  0.00  0.00    +0.000 N 
ATOM      4  C   UNL     1       4.526   6.867  17.801  0.00  0.00    +0.000 C 
ATOM      5  C   UNL     1       5.185   5.538  17.412  0.00  0.00    +0.000 C 
ATOM      6  C   UNL     1       4.050   4.521  17.356  0.00  0.00    +0.000 C 
ATOM      7  C   UNL     1       4.253   3.358  16.357  0.00  0.00    +0.000 C 
ATOM      8  C   UNL     1       3.806   2.404  17.473  0.00  0.00    +0.000 C 
ATOM      9  N   UNL     1       4.111   3.482  18.399  0.00  0.00    +0.000 N 
ATOM     10  C   UNL     1       4.222   3.641  19.753  0.00  0.00    +0.000 C 
ATOM     11  O   UNL     1       4.633   4.700  20.231  0.00  0.00    +0.000 OA
ENDROOT
BRANCH   3  12
ATOM     12  C   UNL     1       2.436   7.228  18.894  0.00  0.00    +0.000 A 
ATOM     13  N   UNL     1       2.210   6.534  20.035  0.00  0.00    +0.000 NA
ATOM     14  C   UNL     1       1.516   7.112  21.034  0.00  0.00    +0.000 A 
ATOM     15  N   UNL     1       0.960   8.336  21.063  0.00  0.00    +0.000 NA
ATOM     16  C   UNL     1       1.206   8.996  19.922  0.00  0.00    +0.000 A 
ATOM     17  N   UNL     1       0.749  10.251  19.633  0.00  0.00    +0.000 N 
ATOM     18  C   UNL     1       1.181  10.631  18.387  0.00  0.00    +0.000 A 
ATOM     19  C   UNL     1       1.922   9.592  17.866  0.00  0.00    +0.000 A 
ATOM     20  C   UNL     1       1.932   8.541  18.830  0.00  0.00    +0.000 A 
ATOM     21  H   UNL     1       0.161  10.788  20.251  0.00  0.00    +0.000 HD
ENDBRANCH   3  12
BRANCH  10  22
ATOM     22  C   UNL     1       3.991   2.484  20.694  0.00  0.00    +0.000 C 
BRANCH  22  23
ATOM     23  C   UNL     1       2.681   2.532  21.464  0.00  0.00    +0.000 C 
ATOM     24  N   UNL     1       1.595   2.570  22.103  0.00  0.00    +0.000 NA
ENDBRANCH  22  23
ENDBRANCH  10  22
TORSDOF 3
ENDMDL
