MODEL 1
REMARK VINA RESULT:      -8.4      0.000      0.000
REMARK  Name = 
REMARK  8 active torsions:
REMARK  status: ('A' for Active; 'I' for Inactive)
REMARK    1  A    between atoms: C_1  and  C_2
REMARK    2  A    between atoms: N_4  and  C_5
REMARK    3  A    between atoms: C_5  and  C_6
REMARK    4  A    between atoms: N_8  and  C_9
REMARK    5  A    between atoms: C_12  and  N_13
REMARK    6  A    between atoms: C_17  and  C_19
REMARK    7  A    between atoms: C_20  and  C_21
REMARK    8  A    between atoms: C_24  and  C_25
REMARK                            x       y       z     vdW  Elec       q    Type
REMARK                         _______ _______ _______ _____ _____    ______ ____
ROOT
ATOM      1  C   UNL     1       3.286   6.769  18.214  0.00  0.00    +0.000 A 
ATOM      2  C   UNL     1       2.886   7.954  17.586  0.00  0.00    +0.000 A 
ATOM      3  C   UNL     1       2.015   8.866  18.193  0.00  0.00    +0.000 A 
ATOM      4  C   UNL     1       1.494   8.665  19.473  0.00  0.00    +0.000 A 
ATOM      5  C   UNL     1       1.882   7.458  20.088  0.00  0.00    +0.000 A 
ATOM      6  F   UNL     1       1.464   7.173  21.334  0.00  0.00    +0.000 F 
ATOM      7  C   UNL     1       2.753   6.523  19.480  0.00  0.00    +0.000 A 
ENDROOT
BRANCH   4   8
ATOM      8  N   UNL     1       0.674   9.620  20.043  0.00  0.00    +0.000 N 
ATOM      9  C   UNL     1       1.127  10.585  21.061  0.00  0.00    +0.000 C 
ATOM     10  C   UNL     1       0.817  12.024  20.608  0.00  0.00    +0.000 C 
ATOM     11  N   UNL     1      -0.596  12.184  20.211  0.00  0.00    +0.000 N 
ATOM     12  C   UNL     1      -1.361  13.175  20.800  0.00  0.00    +0.000 C 
ATOM     13  O   UNL     1      -0.924  13.916  21.682  0.00  0.00    +0.000 OA
ATOM     14  C   UNL     1      -1.043  11.197  19.216  0.00  0.00    +0.000 C 
ATOM     15  C   UNL     1      -0.747   9.753  19.667  0.00  0.00    +0.000 C 
BRANCH  12  16
ATOM     16  C   UNL     1      -2.769  13.320  20.355  0.00  0.00    +0.000 C 
ATOM     17  C   UNL     1      -3.758  12.844  21.124  0.00  0.00    +0.000 C 
BRANCH  17  18
ATOM     18  C   UNL     1      -5.118  12.954  20.722  0.00  0.00    +0.000 A 
ATOM     19  C   UNL     1      -6.249  13.102  21.521  0.00  0.00    +0.000 A 
ATOM     20  C   UNL     1      -7.381  13.149  20.673  0.00  0.00    +0.000 A 
ATOM     21  C   UNL     1      -6.901  13.032  19.391  0.00  0.00    +0.000 A 
ATOM     22  C   UNL     1      -7.541  13.009  18.062  0.00  0.00    +0.000 C 
ATOM     23  O   UNL     1      -5.544  12.912  19.412  0.00  0.00    +0.000 OA
ENDBRANCH  17  18
ENDBRANCH  12  16
ENDBRANCH   4   8
BRANCH   1  26
ATOM     24  C   UNL     1       6.097   4.799  16.879  0.00  0.00    +0.000 C 
ATOM     25  C   UNL     1       5.461   6.177  17.025  0.00  0.00    +0.000 C 
ATOM     26  N   UNL     1       4.152   5.869  17.534  0.00  0.00    +0.000 N 
ATOM     27  C   UNL     1       3.860   4.542  17.253  0.00  0.00    +0.000 C 
ATOM     28  O   UNL     1       2.786   3.964  17.308  0.00  0.00    +0.000 OA
ATOM     29  O   UNL     1       4.983   3.890  16.848  0.00  0.00    +0.000 OA
BRANCH  24  30
ATOM     30  C   UNL     1       6.873   4.515  15.591  0.00  0.00    +0.000 C 
BRANCH  30  34
ATOM     31  C   UNL     1       5.824   3.227  12.216  0.00  0.00    +0.000 C 
ATOM     32  C   UNL     1       6.561   4.096  13.196  0.00  0.00    +0.000 C 
ATOM     33  O   UNL     1       7.447   4.872  12.864  0.00  0.00    +0.000 OA
ATOM     34  N   UNL     1       6.133   3.931  14.497  0.00  0.00    +0.000 N 
ATOM     35  H   UNL     1       5.635   3.070  14.696  0.00  0.00    +0.000 HD
ENDBRANCH  30  34
ENDBRANCH  24  30
ENDBRANCH   1  26
TORSDOF 6
ENDMDL
MODEL 2
REMARK VINA RESULT:      -8.2      2.840      4.178
REMARK  Name = 
REMARK  8 active torsions:
REMARK  status: ('A' for Active; 'I' for Inactive)
REMARK    1  A    between atoms: C_1  and  C_2
REMARK    2  A    between atoms: N_4  and  C_5
REMARK    3  A    between atoms: C_5  and  C_6
REMARK    4  A    between atoms: N_8  and  C_9
REMARK    5  A    between atoms: C_12  and  N_13
REMARK    6  A    between atoms: C_17  and  C_19
REMARK    7  A    between atoms: C_20  and  C_21
REMARK    8  A    between atoms: C_24  and  C_25
REMARK                            x       y       z     vdW  Elec       q    Type
REMARK                         _______ _______ _______ _____ _____    ______ ____
ROOT
ATOM      1  C   UNL     1       2.553   7.358  18.847  0.00  0.00    +0.000 A 
ATOM      2  C   UNL     1       2.386   8.389  17.916  0.00  0.00    +0.000 A 
ATOM      3  C   UNL     1       1.671   9.556  18.210  0.00  0.00    +0.000 A 
ATOM      4  C   UNL     1       1.086   9.779  19.458  0.00  0.00    +0.000 A 
ATOM      5  C   UNL     1       1.238   8.727  20.382  0.00  0.00    +0.000 A 
ATOM      6  F   UNL     1       0.740   8.845  21.625  0.00  0.00    +0.000 F 
ATOM      7  C   UNL     1       1.949   7.537  20.092  0.00  0.00    +0.000 A 
ENDROOT
BRANCH   4   8
ATOM      8  N   UNL     1       0.429  10.970  19.710  0.00  0.00    +0.000 N 
ATOM      9  C   UNL     1      -0.800  11.388  19.015  0.00  0.00    +0.000 C 
ATOM     10  C   UNL     1      -1.907  11.713  20.036  0.00  0.00    +0.000 C 
ATOM     11  N   UNL     1      -1.443  12.663  21.068  0.00  0.00    +0.000 N 
ATOM     12  C   UNL     1      -2.156  13.827  21.292  0.00  0.00    +0.000 C 
ATOM     13  O   UNL     1      -3.153  14.132  20.636  0.00  0.00    +0.000 OA
ATOM     14  C   UNL     1      -0.199  12.246  21.734  0.00  0.00    +0.000 C 
ATOM     15  C   UNL     1       0.917  11.930  20.718  0.00  0.00    +0.000 C 
BRANCH  12  16
ATOM     16  C   UNL     1      -1.672  14.742  22.355  0.00  0.00    +0.000 C 
ATOM     17  C   UNL     1      -2.231  14.697  23.572  0.00  0.00    +0.000 C 
BRANCH  17  18
ATOM     18  C   UNL     1      -1.800  15.570  24.609  0.00  0.00    +0.000 A 
ATOM     19  C   UNL     1      -2.220  16.870  24.879  0.00  0.00    +0.000 A 
ATOM     20  C   UNL     1      -1.495  17.342  25.999  0.00  0.00    +0.000 A 
ATOM     21  C   UNL     1      -0.664  16.315  26.373  0.00  0.00    +0.000 A 
ATOM     22  C   UNL     1       0.335  16.153  27.447  0.00  0.00    +0.000 C 
ATOM     23  O   UNL     1      -0.839  15.249  25.543  0.00  0.00    +0.000 OA
ENDBRANCH  17  18
ENDBRANCH  12  16
ENDBRANCH   4   8
BRANCH   1  26
ATOM     24  C   UNL     1       4.851   4.497  18.529  0.00  0.00    +0.000 C 
ATOM     25  C   UNL     1       4.694   6.015  18.525  0.00  0.00    +0.000 C 
ATOM     26  N   UNL     1       3.267   6.184  18.479  0.00  0.00    +0.000 N 
ATOM     27  C   UNL     1       2.689   5.014  18.013  0.00  0.00    +0.000 C 
ATOM     28  O   UNL     1       1.549   4.825  17.616  0.00  0.00    +0.000 OA
ATOM     29  O   UNL     1       3.602   4.005  18.013  0.00  0.00    +0.000 OA
BRANCH  24  30
ATOM     30  C   UNL     1       5.919   3.899  17.610  0.00  0.00    +0.000 C 
BRANCH  30  34
ATOM     31  C   UNL     1       6.130   3.874  13.854  0.00  0.00    +0.000 C 
ATOM     32  C   UNL     1       6.515   4.248  15.258  0.00  0.00    +0.000 C 
ATOM     33  O   UNL     1       7.534   4.870  15.527  0.00  0.00    +0.000 OA
ATOM     34  N   UNL     1       5.604   3.824  16.202  0.00  0.00    +0.000 N 
ATOM     35  H   UNL     1       4.983   3.074  15.918  0.00  0.00    +0.000 HD
ENDBRANCH  30  34
ENDBRANCH  24  30
ENDBRANCH   1  26
TORSDOF 6
ENDMDL
MODEL 3
REMARK VINA RESULT:      -8.1      2.316      2.737
REMARK  Name = 
REMARK  8 active torsions:
REMARK  status: ('A' for Active; 'I' for Inactive)
REMARK    1  A    between atoms: C_1  and  C_2
REMARK    2  A    between atoms: N_4  and  C_5
REMARK    3  A    between atoms: C_5  and  C_6
REMARK    4  A    between atoms: N_8  and  C_9
REMARK    5  A    between atoms: C_12  and  N_13
REMARK    6  A    between atoms: C_17  and  C_19
REMARK    7  A    between atoms: C_20  and  C_21
REMARK    8  A    between atoms: C_24  and  C_25
REMARK                            x       y       z     vdW  Elec       q    Type
REMARK                         _______ _______ _______ _____ _____    ______ ____
ROOT
ATOM      1  C   UNL     1       4.165   6.235  17.898  0.00  0.00    +0.000 A 
ATOM      2  C   UNL     1       3.760   7.506  17.475  0.00  0.00    +0.000 A 
ATOM      3  C   UNL     1       2.771   8.237  18.141  0.00  0.00    +0.000 A 
ATOM      4  C   UNL     1       2.127   7.756  19.283  0.00  0.00    +0.000 A 
ATOM      5  C   UNL     1       2.522   6.466  19.689  0.00  0.00    +0.000 A 
ATOM      6  F   UNL     1       1.989   5.915  20.793  0.00  0.00    +0.000 F 
ATOM      7  C   UNL     1       3.513   5.712  19.016  0.00  0.00    +0.000 A 
ENDROOT
BRANCH   4   8
ATOM      8  N   UNL     1       1.188   8.540  19.929  0.00  0.00    +0.000 N 
ATOM      9  C   UNL     1       0.737   8.303  21.311  0.00  0.00    +0.000 C 
ATOM     10  C   UNL     1       0.923   9.576  22.159  0.00  0.00    +0.000 C 
ATOM     11  N   UNL     1       0.311  10.758  21.518  0.00  0.00    +0.000 N 
ATOM     12  C   UNL     1      -0.603  11.518  22.224  0.00  0.00    +0.000 C 
ATOM     13  O   UNL     1      -0.968  11.229  23.365  0.00  0.00    +0.000 OA
ATOM     14  C   UNL     1       0.749  10.966  20.129  0.00  0.00    +0.000 C 
ATOM     15  C   UNL     1       0.555   9.699  19.271  0.00  0.00    +0.000 C 
BRANCH  12  16
ATOM     16  C   UNL     1      -1.176  12.713  21.555  0.00  0.00    +0.000 C 
ATOM     17  C   UNL     1      -1.867  13.607  22.275  0.00  0.00    +0.000 C 
BRANCH  17  18
ATOM     18  C   UNL     1      -2.440  14.756  21.662  0.00  0.00    +0.000 A 
ATOM     19  C   UNL     1      -3.755  15.210  21.733  0.00  0.00    +0.000 A 
ATOM     20  C   UNL     1      -3.856  16.382  20.945  0.00  0.00    +0.000 A 
ATOM     21  C   UNL     1      -2.603  16.600  20.426  0.00  0.00    +0.000 A 
ATOM     22  C   UNL     1      -2.033  17.633  19.540  0.00  0.00    +0.000 C 
ATOM     23  O   UNL     1      -1.748  15.628  20.850  0.00  0.00    +0.000 OA
ENDBRANCH  17  18
ENDBRANCH  12  16
ENDBRANCH   4   8
BRANCH   1  26
ATOM     24  C   UNL     1       6.724   5.054  15.526  0.00  0.00    +0.000 C 
ATOM     25  C   UNL     1       5.276   5.488  15.730  0.00  0.00    +0.000 C 
ATOM     26  N   UNL     1       5.157   5.529  17.162  0.00  0.00    +0.000 N 
ATOM     27  C   UNL     1       6.168   4.763  17.721  0.00  0.00    +0.000 C 
ATOM     28  O   UNL     1       6.282   4.358  18.868  0.00  0.00    +0.000 OA
ATOM     29  O   UNL     1       7.098   4.452  16.778  0.00  0.00    +0.000 OA
BRANCH  24  30
ATOM     30  C   UNL     1       6.994   3.976  14.474  0.00  0.00    +0.000 C 
BRANCH  30  34
ATOM     31  C   UNL     1       4.921   2.849  11.544  0.00  0.00    +0.000 C 
ATOM     32  C   UNL     1       6.102   3.452  12.252  0.00  0.00    +0.000 C 
ATOM     33  O   UNL     1       7.136   3.764  11.677  0.00  0.00    +0.000 OA
ATOM     34  N   UNL     1       5.896   3.621  13.606  0.00  0.00    +0.000 N 
ATOM     35  H   UNL     1       5.158   3.061  14.017  0.00  0.00    +0.000 HD
ENDBRANCH  30  34
ENDBRANCH  24  30
ENDBRANCH   1  26
TORSDOF 6
ENDMDL
MODEL 4
REMARK VINA RESULT:      -8.0      1.756      2.324
REMARK  Name = 
REMARK  8 active torsions:
REMARK  status: ('A' for Active; 'I' for Inactive)
REMARK    1  A    between atoms: C_1  and  C_2
REMARK    2  A    between atoms: N_4  and  C_5
REMARK    3  A    between atoms: C_5  and  C_6
REMARK    4  A    between atoms: N_8  and  C_9
REMARK    5  A    between atoms: C_12  and  N_13
REMARK    6  A    between atoms: C_17  and  C_19
REMARK    7  A    between atoms: C_20  and  C_21
REMARK    8  A    between atoms: C_24  and  C_25
REMARK                            x       y       z     vdW  Elec       q    Type
REMARK                         _______ _______ _______ _____ _____    ______ ____
ROOT
ATOM      1  C   UNL     1       2.548   7.167  18.893  0.00  0.00    +0.000 A 
ATOM      2  C   UNL     1       2.070   7.292  20.202  0.00  0.00    +0.000 A 
ATOM      3  C   UNL     1       1.405   8.438  20.651  0.00  0.00    +0.000 A 
ATOM      4  C   UNL     1       1.159   9.533  19.820  0.00  0.00    +0.000 A 
ATOM      5  C   UNL     1       1.664   9.410  18.510  0.00  0.00    +0.000 A 
ATOM      6  F   UNL     1       1.460  10.392  17.614  0.00  0.00    +0.000 F 
ATOM      7  C   UNL     1       2.349   8.260  18.049  0.00  0.00    +0.000 A 
ENDROOT
BRANCH   4   8
ATOM      8  N   UNL     1       0.456  10.623  20.301  0.00  0.00    +0.000 N 
ATOM      9  C   UNL     1       1.067  11.936  20.567  0.00  0.00    +0.000 C 
ATOM     10  C   UNL     1       0.309  13.042  19.808  0.00  0.00    +0.000 C 
ATOM     11  N   UNL     1      -1.145  12.988  20.065  0.00  0.00    +0.000 N 
ATOM     12  C   UNL     1      -1.798  14.119  20.522  0.00  0.00    +0.000 C 
ATOM     13  O   UNL     1      -1.209  15.172  20.768  0.00  0.00    +0.000 OA
ATOM     14  C   UNL     1      -1.736  11.663  19.822  0.00  0.00    +0.000 C 
ATOM     15  C   UNL     1      -0.989  10.552  20.588  0.00  0.00    +0.000 C 
BRANCH  12  16
ATOM     16  C   UNL     1      -3.262  14.031  20.743  0.00  0.00    +0.000 C 
ATOM     17  C   UNL     1      -3.728  13.561  21.908  0.00  0.00    +0.000 C 
BRANCH  17  18
ATOM     18  C   UNL     1      -5.126  13.451  22.148  0.00  0.00    +0.000 A 
ATOM     19  C   UNL     1      -6.117  12.971  21.295  0.00  0.00    +0.000 A 
ATOM     20  C   UNL     1      -7.359  13.074  21.965  0.00  0.00    +0.000 A 
ATOM     21  C   UNL     1      -7.082  13.609  23.199  0.00  0.00    +0.000 A 
ATOM     22  C   UNL     1      -7.914  13.966  24.365  0.00  0.00    +0.000 C 
ATOM     23  O   UNL     1      -5.746  13.841  23.316  0.00  0.00    +0.000 OA
ENDBRANCH  17  18
ENDBRANCH  12  16
ENDBRANCH   4   8
BRANCH   1  26
ATOM     24  C   UNL     1       4.813   4.287  18.510  0.00  0.00    +0.000 C 
ATOM     25  C   UNL     1       4.668   5.806  18.512  0.00  0.00    +0.000 C 
ATOM     26  N   UNL     1       3.242   5.987  18.505  0.00  0.00    +0.000 N 
ATOM     27  C   UNL     1       2.641   4.822  18.054  0.00  0.00    +0.000 C 
ATOM     28  O   UNL     1       1.489   4.643  17.689  0.00  0.00    +0.000 OA
ATOM     29  O   UNL     1       3.546   3.806  18.029  0.00  0.00    +0.000 OA
BRANCH  24  30
ATOM     30  C   UNL     1       5.850   3.681  17.562  0.00  0.00    +0.000 C 
BRANCH  30  34
ATOM     31  C   UNL     1       6.114   3.966  13.820  0.00  0.00    +0.000 C 
ATOM     32  C   UNL     1       6.487   4.212  15.255  0.00  0.00    +0.000 C 
ATOM     33  O   UNL     1       7.515   4.786  15.588  0.00  0.00    +0.000 OA
ATOM     34  N   UNL     1       5.553   3.731  16.149  0.00  0.00    +0.000 N 
ATOM     35  H   UNL     1       4.921   3.022  15.795  0.00  0.00    +0.000 HD
ENDBRANCH  30  34
ENDBRANCH  24  30
ENDBRANCH   1  26
TORSDOF 6
ENDMDL
MODEL 5
REMARK VINA RESULT:      -7.8      2.551     11.951
REMARK  Name = 
REMARK  8 active torsions:
REMARK  status: ('A' for Active; 'I' for Inactive)
REMARK    1  A    between atoms: C_1  and  C_2
REMARK    2  A    between atoms: N_4  and  C_5
REMARK    3  A    between atoms: C_5  and  C_6
REMARK    4  A    between atoms: N_8  and  C_9
REMARK    5  A    between atoms: C_12  and  N_13
REMARK    6  A    between atoms: C_17  and  C_19
REMARK    7  A    between atoms: C_20  and  C_21
REMARK    8  A    between atoms: C_24  and  C_25
REMARK                            x       y       z     vdW  Elec       q    Type
REMARK                         _______ _______ _______ _____ _____    ______ ____
ROOT
ATOM      1  C   UNL     1      -0.279  10.997  20.912  0.00  0.00    +0.000 A 
ATOM      2  C   UNL     1      -0.239   9.847  21.709  0.00  0.00    +0.000 A 
ATOM      3  C   UNL     1       0.493   8.710  21.348  0.00  0.00    +0.000 A 
ATOM      4  C   UNL     1       1.245   8.648  20.173  0.00  0.00    +0.000 A 
ATOM      5  C   UNL     1       1.181   9.800  19.364  0.00  0.00    +0.000 A 
ATOM      6  F   UNL     1       1.889   9.862  18.224  0.00  0.00    +0.000 F 
ATOM      7  C   UNL     1       0.434  10.951  19.714  0.00  0.00    +0.000 A 
ENDROOT
BRANCH   4   8
ATOM      8  N   UNL     1       1.987   7.516  19.887  0.00  0.00    +0.000 N 
ATOM      9  C   UNL     1       2.040   6.331  20.760  0.00  0.00    +0.000 C 
ATOM     10  C   UNL     1       1.654   5.067  19.968  0.00  0.00    +0.000 C 
ATOM     11  N   UNL     1       2.438   4.936  18.724  0.00  0.00    +0.000 N 
ATOM     12  C   UNL     1       3.140   3.769  18.481  0.00  0.00    +0.000 C 
ATOM     13  O   UNL     1       3.175   2.835  19.283  0.00  0.00    +0.000 OA
ATOM     14  C   UNL     1       2.399   6.137  17.876  0.00  0.00    +0.000 C 
ATOM     15  C   UNL     1       2.796   7.405  18.658  0.00  0.00    +0.000 C 
BRANCH  12  16
ATOM     16  C   UNL     1       3.895   3.666  17.207  0.00  0.00    +0.000 C 
ATOM     17  C   UNL     1       4.971   4.441  17.012  0.00  0.00    +0.000 C 
BRANCH  17  18
ATOM     18  C   UNL     1       5.709   4.378  15.797  0.00  0.00    +0.000 A 
ATOM     19  C   UNL     1       6.980   4.880  15.529  0.00  0.00    +0.000 A 
ATOM     20  C   UNL     1       7.287   4.593  14.177  0.00  0.00    +0.000 A 
ATOM     21  C   UNL     1       6.197   3.926  13.673  0.00  0.00    +0.000 A 
ATOM     22  C   UNL     1       5.874   3.355  12.351  0.00  0.00    +0.000 C 
ATOM     23  O   UNL     1       5.245   3.796  14.637  0.00  0.00    +0.000 OA
ENDBRANCH  17  18
ENDBRANCH  12  16
ENDBRANCH   4   8
BRANCH   1  26
ATOM     24  C   UNL     1      -1.610  14.178  22.206  0.00  0.00    +0.000 C 
ATOM     25  C   UNL     1      -0.882  12.876  22.524  0.00  0.00    +0.000 C 
ATOM     26  N   UNL     1      -1.064  12.110  21.320  0.00  0.00    +0.000 N 
ATOM     27  C   UNL     1      -2.137  12.631  20.612  0.00  0.00    +0.000 C 
ATOM     28  O   UNL     1      -2.750  12.141  19.677  0.00  0.00    +0.000 OA
ATOM     29  O   UNL     1      -2.493  13.841  21.122  0.00  0.00    +0.000 OA
BRANCH  24  30
ATOM     30  C   UNL     1      -2.521  14.758  23.290  0.00  0.00    +0.000 C 
BRANCH  30  34
ATOM     31  C   UNL     1      -4.821  12.251  24.898  0.00  0.00    +0.000 C 
ATOM     32  C   UNL     1      -4.432  13.402  24.013  0.00  0.00    +0.000 C 
ATOM     33  O   UNL     1      -5.200  13.917  23.211  0.00  0.00    +0.000 OA
ATOM     34  N   UNL     1      -3.131  13.818  24.203  0.00  0.00    +0.000 N 
ATOM     35  H   UNL     1      -2.509  13.149  24.644  0.00  0.00    +0.000 HD
ENDBRANCH  30  34
ENDBRANCH  24  30
ENDBRANCH   1  26
TORSDOF 6
ENDMDL
MODEL 6
REMARK VINA RESULT:      -7.7      2.075      2.957
REMARK  Name = 
REMARK  8 active torsions:
REMARK  status: ('A' for Active; 'I' for Inactive)
REMARK    1  A    between atoms: C_1  and  C_2
REMARK    2  A    between atoms: N_4  and  C_5
REMARK    3  A    between atoms: C_5  and  C_6
REMARK    4  A    between atoms: N_8  and  C_9
REMARK    5  A    between atoms: C_12  and  N_13
REMARK    6  A    between atoms: C_17  and  C_19
REMARK    7  A    between atoms: C_20  and  C_21
REMARK    8  A    between atoms: C_24  and  C_25
REMARK                            x       y       z     vdW  Elec       q    Type
REMARK                         _______ _______ _______ _____ _____    ______ ____
ROOT
ATOM      1  C   UNL     1       3.533   6.992  18.632  0.00  0.00    +0.000 A 
ATOM      2  C   UNL     1       3.325   7.944  17.629  0.00  0.00    +0.000 A 
ATOM      3  C   UNL     1       2.319   8.913  17.713  0.00  0.00    +0.000 A 
ATOM      4  C   UNL     1       1.460   9.006  18.810  0.00  0.00    +0.000 A 
ATOM      5  C   UNL     1       1.660   8.028  19.805  0.00  0.00    +0.000 A 
ATOM      6  F   UNL     1       0.909   8.039  20.920  0.00  0.00    +0.000 F 
ATOM      7  C   UNL     1       2.667   7.036  19.725  0.00  0.00    +0.000 A 
ENDROOT
BRANCH   4   8
ATOM      8  N   UNL     1       0.512  10.011  18.863  0.00  0.00    +0.000 N 
ATOM      9  C   UNL     1      -0.614  10.123  17.919  0.00  0.00    +0.000 C 
ATOM     10  C   UNL     1      -1.949  10.188  18.686  0.00  0.00    +0.000 C 
ATOM     11  N   UNL     1      -1.932  11.229  19.733  0.00  0.00    +0.000 N 
ATOM     12  C   UNL     1      -2.922  12.195  19.750  0.00  0.00    +0.000 C 
ATOM     13  O   UNL     1      -3.808  12.252  18.896  0.00  0.00    +0.000 OA
ATOM     14  C   UNL     1      -0.786  11.122  20.651  0.00  0.00    +0.000 C 
ATOM     15  C   UNL     1       0.554  11.069  19.891  0.00  0.00    +0.000 C 
BRANCH  12  16
ATOM     16  C   UNL     1      -2.884  13.209  20.833  0.00  0.00    +0.000 C 
ATOM     17  C   UNL     1      -3.693  13.074  21.893  0.00  0.00    +0.000 C 
BRANCH  17  18
ATOM     18  C   UNL     1      -3.692  14.034  22.942  0.00  0.00    +0.000 A 
ATOM     19  C   UNL     1      -2.759  14.204  23.961  0.00  0.00    +0.000 A 
ATOM     20  C   UNL     1      -3.192  15.275  24.778  0.00  0.00    +0.000 A 
ATOM     21  C   UNL     1      -4.368  15.721  24.228  0.00  0.00    +0.000 A 
ATOM     22  C   UNL     1      -5.317  16.794  24.584  0.00  0.00    +0.000 C 
ATOM     23  O   UNL     1      -4.677  14.981  23.128  0.00  0.00    +0.000 OA
ENDBRANCH  17  18
ENDBRANCH  12  16
ENDBRANCH   4   8
BRANCH   1  26
ATOM     24  C   UNL     1       6.659   5.049  18.479  0.00  0.00    +0.000 C 
ATOM     25  C   UNL     1       5.876   6.249  17.957  0.00  0.00    +0.000 C 
ATOM     26  N   UNL     1       4.555   6.015  18.476  0.00  0.00    +0.000 N 
ATOM     27  C   UNL     1       4.431   4.673  18.802  0.00  0.00    +0.000 C 
ATOM     28  O   UNL     1       3.420   4.033  19.050  0.00  0.00    +0.000 OA
ATOM     29  O   UNL     1       5.652   4.072  18.795  0.00  0.00    +0.000 OA
BRANCH  24  30
ATOM     30  C   UNL     1       7.598   4.342  17.498  0.00  0.00    +0.000 C 
BRANCH  30  34
ATOM     31  C   UNL     1       6.532   4.932  13.939  0.00  0.00    +0.000 C 
ATOM     32  C   UNL     1       6.619   4.211  15.255  0.00  0.00    +0.000 C 
ATOM     33  O   UNL     1       5.940   3.228  15.524  0.00  0.00    +0.000 OA
ATOM     34  N   UNL     1       7.541   4.765  16.118  0.00  0.00    +0.000 N 
ATOM     35  H   UNL     1       7.809   5.724  15.928  0.00  0.00    +0.000 HD
ENDBRANCH  30  34
ENDBRANCH  24  30
ENDBRANCH   1  26
TORSDOF 6
ENDMDL
MODEL 7
REMARK VINA RESULT:      -7.7      1.205      1.455
REMARK  Name = 
REMARK  8 active torsions:
REMARK  status: ('A' for Active; 'I' for Inactive)
REMARK    1  A    between atoms: C_1  and  C_2
REMARK    2  A    between atoms: N_4  and  C_5
REMARK    3  A    between atoms: C_5  and  C_6
REMARK    4  A    between atoms: N_8  and  C_9
REMARK    5  A    between atoms: C_12  and  N_13
REMARK    6  A    between atoms: C_17  and  C_19
REMARK    7  A    between atoms: C_20  and  C_21
REMARK    8  A    between atoms: C_24  and  C_25
REMARK                            x       y       z     vdW  Elec       q    Type
REMARK                         _______ _______ _______ _____ _____    ______ ____
ROOT
ATOM      1  C   UNL     1       3.367   6.783  17.915  0.00  0.00    +0.000 A 
ATOM      2  C   UNL     1       2.886   6.454  19.187  0.00  0.00    +0.000 A 
ATOM      3  C   UNL     1       2.047   7.306  19.914  0.00  0.00    +0.000 A 
ATOM      4  C   UNL     1       1.619   8.538  19.416  0.00  0.00    +0.000 A 
ATOM      5  C   UNL     1       2.127   8.873  18.145  0.00  0.00    +0.000 A 
ATOM      6  F   UNL     1       1.758  10.023  17.554  0.00  0.00    +0.000 F 
ATOM      7  C   UNL     1       2.986   8.025  17.405  0.00  0.00    +0.000 A 
ENDROOT
BRANCH   4   8
ATOM      8  N   UNL     1       0.753   9.321  20.157  0.00  0.00    +0.000 N 
ATOM      9  C   UNL     1       1.149  10.053  21.372  0.00  0.00    +0.000 C 
ATOM     10  C   UNL     1       0.797  11.546  21.234  0.00  0.00    +0.000 C 
ATOM     11  N   UNL     1      -0.612  11.746  20.841  0.00  0.00    +0.000 N 
ATOM     12  C   UNL     1      -1.425  12.561  21.609  0.00  0.00    +0.000 C 
ATOM     13  O   UNL     1      -1.033  13.104  22.643  0.00  0.00    +0.000 OA
ATOM     14  C   UNL     1      -1.001  10.987  19.643  0.00  0.00    +0.000 C 
ATOM     15  C   UNL     1      -0.664   9.488  19.778  0.00  0.00    +0.000 C 
BRANCH  12  16
ATOM     16  C   UNL     1      -2.828  12.757  21.166  0.00  0.00    +0.000 C 
ATOM     17  C   UNL     1      -3.644  13.539  21.884  0.00  0.00    +0.000 C 
BRANCH  17  18
ATOM     18  C   UNL     1      -4.999  13.737  21.496  0.00  0.00    +0.000 A 
ATOM     19  C   UNL     1      -6.131  13.042  21.914  0.00  0.00    +0.000 A 
ATOM     20  C   UNL     1      -7.251  13.584  21.240  0.00  0.00    +0.000 A 
ATOM     21  C   UNL     1      -6.764  14.589  20.441  0.00  0.00    +0.000 A 
ATOM     22  C   UNL     1      -7.391  15.536  19.499  0.00  0.00    +0.000 C 
ATOM     23  O   UNL     1      -5.414  14.686  20.586  0.00  0.00    +0.000 OA
ENDBRANCH  17  18
ENDBRANCH  12  16
ENDBRANCH   4   8
BRANCH   1  26
ATOM     24  C   UNL     1       6.202   4.900  16.505  0.00  0.00    +0.000 C 
ATOM     25  C   UNL     1       5.476   6.239  16.593  0.00  0.00    +0.000 C 
ATOM     26  N   UNL     1       4.241   5.888  17.238  0.00  0.00    +0.000 N 
ATOM     27  C   UNL     1       4.029   4.525  17.093  0.00  0.00    +0.000 C 
ATOM     28  O   UNL     1       3.009   3.881  17.289  0.00  0.00    +0.000 OA
ATOM     29  O   UNL     1       5.161   3.918  16.646  0.00  0.00    +0.000 OA
BRANCH  24  30
ATOM     30  C   UNL     1       6.889   4.559  15.180  0.00  0.00    +0.000 C 
BRANCH  30  34
ATOM     31  C   UNL     1       5.664   2.981  11.992  0.00  0.00    +0.000 C 
ATOM     32  C   UNL     1       6.480   3.904  12.854  0.00  0.00    +0.000 C 
ATOM     33  O   UNL     1       7.399   4.586  12.418  0.00  0.00    +0.000 OA
ATOM     34  N   UNL     1       6.083   3.907  14.175  0.00  0.00    +0.000 N 
ATOM     35  H   UNL     1       5.543   3.104  14.479  0.00  0.00    +0.000 HD
ENDBRANCH  30  34
ENDBRANCH  24  30
ENDBRANCH   1  26
TORSDOF 6
ENDMDL
MODEL 8
REMARK VINA RESULT:      -7.7      2.437      2.859
REMARK  Name = 
REMARK  8 active torsions:
REMARK  status: ('A' for Active; 'I' for Inactive)
REMARK    1  A    between atoms: C_1  and  C_2
REMARK    2  A    between atoms: N_4  and  C_5
REMARK    3  A    between atoms: C_5  and  C_6
REMARK    4  A    between atoms: N_8  and  C_9
REMARK    5  A    between atoms: C_12  and  N_13
REMARK    6  A    between atoms: C_17  and  C_19
REMARK    7  A    between atoms: C_20  and  C_21
REMARK    8  A    between atoms: C_24  and  C_25
REMARK                            x       y       z     vdW  Elec       q    Type
REMARK                         _______ _______ _______ _____ _____    ______ ____
ROOT
ATOM      1  C   UNL     1       3.665   6.512  17.927  0.00  0.00    +0.000 A 
ATOM      2  C   UNL     1       3.277   7.718  17.332  0.00  0.00    +0.000 A 
ATOM      3  C   UNL     1       2.372   8.596  17.939  0.00  0.00    +0.000 A 
ATOM      4  C   UNL     1       1.803   8.337  19.188  0.00  0.00    +0.000 A 
ATOM      5  C   UNL     1       2.180   7.111  19.770  0.00  0.00    +0.000 A 
ATOM      6  F   UNL     1       1.716   6.771  20.985  0.00  0.00    +0.000 F 
ATOM      7  C   UNL     1       3.085   6.209  19.159  0.00  0.00    +0.000 A 
ENDROOT
BRANCH   4   8
ATOM      8  N   UNL     1       0.949   9.261  19.763  0.00  0.00    +0.000 N 
ATOM      9  C   UNL     1       0.168   9.002  20.985  0.00  0.00    +0.000 C 
ATOM     10  C   UNL     1       0.449  10.089  22.039  0.00  0.00    +0.000 C 
ATOM     11  N   UNL     1       0.276  11.448  21.488  0.00  0.00    +0.000 N 
ATOM     12  C   UNL     1      -0.573  12.337  22.122  0.00  0.00    +0.000 C 
ATOM     13  O   UNL     1      -1.232  12.032  23.117  0.00  0.00    +0.000 OA
ATOM     14  C   UNL     1       1.039  11.684  20.253  0.00  0.00    +0.000 C 
ATOM     15  C   UNL     1       0.754  10.606  19.188  0.00  0.00    +0.000 C 
BRANCH  12  16
ATOM     16  C   UNL     1      -0.701  13.702  21.552  0.00  0.00    +0.000 C 
ATOM     17  C   UNL     1      -1.914  14.177  21.239  0.00  0.00    +0.000 C 
BRANCH  17  18
ATOM     18  C   UNL     1      -2.070  15.475  20.678  0.00  0.00    +0.000 A 
ATOM     19  C   UNL     1      -3.028  16.440  20.980  0.00  0.00    +0.000 A 
ATOM     20  C   UNL     1      -2.794  17.563  20.151  0.00  0.00    +0.000 A 
ATOM     21  C   UNL     1      -1.704  17.245  19.379  0.00  0.00    +0.000 A 
ATOM     22  C   UNL     1      -0.955  17.962  18.329  0.00  0.00    +0.000 C 
ATOM     23  O   UNL     1      -1.265  15.993  19.687  0.00  0.00    +0.000 OA
ENDBRANCH  17  18
ENDBRANCH  12  16
ENDBRANCH   4   8
BRANCH   1  26
ATOM     24  C   UNL     1       6.406   4.949  16.027  0.00  0.00    +0.000 C 
ATOM     25  C   UNL     1       5.245   5.938  16.013  0.00  0.00    +0.000 C 
ATOM     26  N   UNL     1       4.567   5.648  17.247  0.00  0.00    +0.000 N 
ATOM     27  C   UNL     1       4.931   4.381  17.674  0.00  0.00    +0.000 C 
ATOM     28  O   UNL     1       4.416   3.682  18.534  0.00  0.00    +0.000 OA
ATOM     29  O   UNL     1       6.001   3.934  16.963  0.00  0.00    +0.000 OA
BRANCH  24  30
ATOM     30  C   UNL     1       6.702   4.193  14.730  0.00  0.00    +0.000 C 
BRANCH  30  34
ATOM     31  C   UNL     1       4.572   3.257  11.774  0.00  0.00    +0.000 C 
ATOM     32  C   UNL     1       5.808   3.710  12.499  0.00  0.00    +0.000 C 
ATOM     33  O   UNL     1       6.894   3.842  11.950  0.00  0.00    +0.000 OA
ATOM     34  N   UNL     1       5.590   3.965  13.837  0.00  0.00    +0.000 N 
ATOM     35  H   UNL     1       4.765   3.538  14.243  0.00  0.00    +0.000 HD
ENDBRANCH  30  34
ENDBRANCH  24  30
ENDBRANCH   1  26
TORSDOF 6
ENDMDL
MODEL 9
REMARK VINA RESULT:      -7.7      2.801      3.537
REMARK  Name = 
REMARK  8 active torsions:
REMARK  status: ('A' for Active; 'I' for Inactive)
REMARK    1  A    between atoms: C_1  and  C_2
REMARK    2  A    between atoms: N_4  and  C_5
REMARK    3  A    between atoms: C_5  and  C_6
REMARK    4  A    between atoms: N_8  and  C_9
REMARK    5  A    between atoms: C_12  and  N_13
REMARK    6  A    between atoms: C_17  and  C_19
REMARK    7  A    between atoms: C_20  and  C_21
REMARK    8  A    between atoms: C_24  and  C_25
REMARK                            x       y       z     vdW  Elec       q    Type
REMARK                         _______ _______ _______ _____ _____    ______ ____
ROOT
ATOM      1  C   UNL     1       3.387   6.657  17.987  0.00  0.00    +0.000 A 
ATOM      2  C   UNL     1       2.943   7.823  17.354  0.00  0.00    +0.000 A 
ATOM      3  C   UNL     1       2.068   8.724  17.971  0.00  0.00    +0.000 A 
ATOM      4  C   UNL     1       1.586   8.528  19.267  0.00  0.00    +0.000 A 
ATOM      5  C   UNL     1       2.018   7.340  19.889  0.00  0.00    +0.000 A 
ATOM      6  F   UNL     1       1.641   7.063  21.149  0.00  0.00    +0.000 F 
ATOM      7  C   UNL     1       2.895   6.416  19.270  0.00  0.00    +0.000 A 
ENDROOT
BRANCH   4   8
ATOM      8  N   UNL     1       0.759   9.473  19.847  0.00  0.00    +0.000 N 
ATOM      9  C   UNL     1      -0.010   9.238  21.081  0.00  0.00    +0.000 C 
ATOM     10  C   UNL     1       0.307  10.328  22.123  0.00  0.00    +0.000 C 
ATOM     11  N   UNL     1       0.152  11.686  21.564  0.00  0.00    +0.000 N 
ATOM     12  C   UNL     1      -0.670  12.597  22.203  0.00  0.00    +0.000 C 
ATOM     13  O   UNL     1      -1.321  12.312  23.209  0.00  0.00    +0.000 OA
ATOM     14  C   UNL     1       0.903  11.897  20.317  0.00  0.00    +0.000 C 
ATOM     15  C   UNL     1       0.582  10.817  19.264  0.00  0.00    +0.000 C 
BRANCH  12  16
ATOM     16  C   UNL     1      -0.778  13.959  21.624  0.00  0.00    +0.000 C 
ATOM     17  C   UNL     1       0.088  14.909  22.002  0.00  0.00    +0.000 C 
BRANCH  17  18
ATOM     18  C   UNL     1       0.004  16.228  21.478  0.00  0.00    +0.000 A 
ATOM     19  C   UNL     1       0.030  17.438  22.166  0.00  0.00    +0.000 A 
ATOM     20  C   UNL     1      -0.103  18.483  21.221  0.00  0.00    +0.000 A 
ATOM     21  C   UNL     1      -0.201  17.875  19.994  0.00  0.00    +0.000 A 
ATOM     22  C   UNL     1      -0.356  18.380  18.616  0.00  0.00    +0.000 C 
ATOM     23  O   UNL     1      -0.141  16.522  20.139  0.00  0.00    +0.000 OA
ENDBRANCH  17  18
ENDBRANCH  12  16
ENDBRANCH   4   8
BRANCH   1  26
ATOM     24  C   UNL     1       6.209   4.748  16.585  0.00  0.00    +0.000 C 
ATOM     25  C   UNL     1       5.527   6.106  16.717  0.00  0.00    +0.000 C 
ATOM     26  N   UNL     1       4.255   5.766  17.296  0.00  0.00    +0.000 N 
ATOM     27  C   UNL     1       4.003   4.422  17.072  0.00  0.00    +0.000 C 
ATOM     28  O   UNL     1       2.955   3.806  17.195  0.00  0.00    +0.000 OA
ATOM     29  O   UNL     1       5.131   3.798  16.635  0.00  0.00    +0.000 OA
BRANCH  24  30
ATOM     30  C   UNL     1       6.935   4.450  15.272  0.00  0.00    +0.000 C 
BRANCH  30  34
ATOM     31  C   UNL     1       5.816   2.884  12.040  0.00  0.00    +0.000 C 
ATOM     32  C   UNL     1       6.529   3.866  12.926  0.00  0.00    +0.000 C 
ATOM     33  O   UNL     1       7.328   4.690  12.501  0.00  0.00    +0.000 OA
ATOM     34  N   UNL     1       6.188   3.745  14.257  0.00  0.00    +0.000 N 
ATOM     35  H   UNL     1       5.777   2.860  14.532  0.00  0.00    +0.000 HD
ENDBRANCH  30  34
ENDBRANCH  24  30
ENDBRANCH   1  26
TORSDOF 6
ENDMDL
