MODEL 1
REMARK VINA RESULT:      -7.9      0.000      0.000
REMARK  Name = 
REMARK  4 active torsions:
REMARK  status: ('A' for Active; 'I' for Inactive)
REMARK    1  A    between atoms: C_1  and  N_2
REMARK    2  A    between atoms: N_2  and  C_3
REMARK    3  A    between atoms: N_2  and  C_15
REMARK    4  A    between atoms: C_3  and  C_4
REMARK                            x       y       z     vdW  Elec       q    Type
REMARK                         _______ _______ _______ _____ _____    ______ ____
ROOT
ATOM      1  C   UNL     1       4.653   4.674  18.193  0.00  0.00    +0.000 A 
ATOM      2  C   UNL     1       4.044   3.537  17.701  0.00  0.00    +0.000 A 
ATOM      3  O   UNL     1       4.562   3.182  16.500  0.00  0.00    +0.000 OA
ATOM      4  C   UNL     1       5.525   4.093  16.192  0.00  0.00    +0.000 A 
ATOM      5  N   UNL     1       6.211   4.065  15.046  0.00  0.00    +0.000 NA
ATOM      6  C   UNL     1       7.075   5.073  14.954  0.00  0.00    +0.000 A 
ATOM      7  N   UNL     1       7.780   5.187  13.772  0.00  0.00    +0.000 N 
ATOM      8  N   UNL     1       7.341   5.987  15.899  0.00  0.00    +0.000 NA
ATOM      9  C   UNL     1       6.642   5.977  17.051  0.00  0.00    +0.000 A 
ATOM     10  N   UNL     1       6.969   6.947  17.989  0.00  0.00    +0.000 N 
ATOM     11  C   UNL     1       5.646   5.014  17.221  0.00  0.00    +0.000 A 
ATOM     12  H   UNL     1       7.824   4.294  13.300  0.00  0.00    +0.000 HD
ATOM     13  H   UNL     1       8.646   5.684  13.924  0.00  0.00    +0.000 HD
ATOM     14  H   UNL     1       7.543   7.668  17.567  0.00  0.00    +0.000 HD
ATOM     15  H   UNL     1       6.227   7.273  18.589  0.00  0.00    +0.000 HD
ENDROOT
BRANCH   1  16
ATOM     16  C   UNL     1       4.344   5.416  19.456  0.00  0.00    +0.000 C 
BRANCH  16  18
ATOM     17  C   UNL     1       2.356   4.803  20.821  0.00  0.00    +0.000 C 
ATOM     18  N   UNL     1       2.932   5.670  19.792  0.00  0.00    +0.000 N 
BRANCH  18  19
ATOM     19  C   UNL     1       2.363   6.917  19.531  0.00  0.00    +0.000 A 
ATOM     20  C   UNL     1       2.456   7.524  18.264  0.00  0.00    +0.000 A 
ATOM     21  C   UNL     1       1.927   8.795  18.002  0.00  0.00    +0.000 A 
ATOM     22  C   UNL     1       1.274   9.503  19.006  0.00  0.00    +0.000 A 
ATOM     23 CL   UNL     1       0.673  11.074  18.629  0.00  0.00    +0.000 Cl
ATOM     24  C   UNL     1       1.135   8.919  20.263  0.00  0.00    +0.000 A 
ATOM     25 CL   UNL     1       0.340   9.727  21.572  0.00  0.00    +0.000 Cl
ATOM     26  C   UNL     1       1.662   7.644  20.512  0.00  0.00    +0.000 A 
ENDBRANCH  18  19
ENDBRANCH  16  18
ENDBRANCH   1  16
TORSDOF 3
ENDMDL
MODEL 2
REMARK VINA RESULT:      -7.7      1.696      2.266
REMARK  Name = 
REMARK  4 active torsions:
REMARK  status: ('A' for Active; 'I' for Inactive)
REMARK    1  A    between atoms: C_1  and  N_2
REMARK    2  A    between atoms: N_2  and  C_3
REMARK    3  A    between atoms: N_2  and  C_15
REMARK    4  A    between atoms: C_3  and  C_4
REMARK                            x       y       z     vdW  Elec       q    Type
REMARK                         _______ _______ _______ _____ _____    ______ ____
ROOT
ATOM      1  C   UNL     1       6.258   5.548  18.054  0.00  0.00    +0.000 A 
ATOM      2  C   UNL     1       7.131   6.609  17.917  0.00  0.00    +0.000 A 
ATOM      3  O   UNL     1       7.604   6.697  16.649  0.00  0.00    +0.000 OA
ATOM      4  C   UNL     1       7.039   5.683  15.938  0.00  0.00    +0.000 A 
ATOM      5  N   UNL     1       7.325   5.450  14.654  0.00  0.00    +0.000 NA
ATOM      6  C   UNL     1       6.677   4.390  14.180  0.00  0.00    +0.000 A 
ATOM      7  N   UNL     1       6.963   4.010  12.883  0.00  0.00    +0.000 N 
ATOM      8  N   UNL     1       5.764   3.654  14.831  0.00  0.00    +0.000 NA
ATOM      9  C   UNL     1       5.486   3.926  16.121  0.00  0.00    +0.000 A 
ATOM     10  N   UNL     1       4.527   3.131  16.736  0.00  0.00    +0.000 N 
ATOM     11  C   UNL     1       6.172   4.967  16.749  0.00  0.00    +0.000 A 
ATOM     12  H   UNL     1       7.326   4.792  12.359  0.00  0.00    +0.000 HD
ATOM     13  H   UNL     1       6.189   3.495  12.489  0.00  0.00    +0.000 HD
ATOM     14  H   UNL     1       4.338   2.308  16.175  0.00  0.00    +0.000 HD
ATOM     15  H   UNL     1       4.629   2.973  17.726  0.00  0.00    +0.000 HD
ENDROOT
BRANCH   1  16
ATOM     16  C   UNL     1       5.559   5.078  19.291  0.00  0.00    +0.000 C 
BRANCH  16  18
ATOM     17  C   UNL     1       3.502   3.830  19.929  0.00  0.00    +0.000 C 
ATOM     18  N   UNL     1       4.087   5.004  19.278  0.00  0.00    +0.000 N 
BRANCH  18  19
ATOM     19  C   UNL     1       3.329   6.164  19.119  0.00  0.00    +0.000 A 
ATOM     20  C   UNL     1       3.362   6.913  17.928  0.00  0.00    +0.000 A 
ATOM     21  C   UNL     1       2.640   8.104  17.771  0.00  0.00    +0.000 A 
ATOM     22  C   UNL     1       1.846   8.583  18.809  0.00  0.00    +0.000 A 
ATOM     23 CL   UNL     1       1.006  10.069  18.567  0.00  0.00    +0.000 Cl
ATOM     24  C   UNL     1       1.764   7.850  19.991  0.00  0.00    +0.000 A 
ATOM     25 CL   UNL     1       0.804   8.370  21.334  0.00  0.00    +0.000 Cl
ATOM     26  C   UNL     1       2.485   6.657  20.133  0.00  0.00    +0.000 A 
ENDBRANCH  18  19
ENDBRANCH  16  18
ENDBRANCH   1  16
TORSDOF 3
ENDMDL
MODEL 3
REMARK VINA RESULT:      -7.6      1.507      2.117
REMARK  Name = 
REMARK  4 active torsions:
REMARK  status: ('A' for Active; 'I' for Inactive)
REMARK    1  A    between atoms: C_1  and  N_2
REMARK    2  A    between atoms: N_2  and  C_3
REMARK    3  A    between atoms: N_2  and  C_15
REMARK    4  A    between atoms: C_3  and  C_4
REMARK                            x       y       z     vdW  Elec       q    Type
REMARK                         _______ _______ _______ _____ _____    ______ ____
ROOT
ATOM      1  C   UNL     1       5.499   4.804  18.836  0.00  0.00    +0.000 A 
ATOM      2  C   UNL     1       6.523   5.588  19.329  0.00  0.00    +0.000 A 
ATOM      3  O   UNL     1       7.342   6.009  18.335  0.00  0.00    +0.000 OA
ATOM      4  C   UNL     1       6.857   5.499  17.170  0.00  0.00    +0.000 A 
ATOM      5  N   UNL     1       7.457   5.684  15.991  0.00  0.00    +0.000 NA
ATOM      6  C   UNL     1       6.819   5.067  15.001  0.00  0.00    +0.000 A 
ATOM      7  N   UNL     1       7.400   5.125  13.749  0.00  0.00    +0.000 N 
ATOM      8  N   UNL     1       5.659   4.398  15.091  0.00  0.00    +0.000 NA
ATOM      9  C   UNL     1       5.071   4.243  16.294  0.00  0.00    +0.000 A 
ATOM     10  N   UNL     1       3.871   3.547  16.318  0.00  0.00    +0.000 N 
ATOM     11  C   UNL     1       5.700   4.779  17.420  0.00  0.00    +0.000 A 
ATOM     12  H   UNL     1       8.010   5.927  13.681  0.00  0.00    +0.000 HD
ATOM     13  H   UNL     1       6.701   5.000  13.031  0.00  0.00    +0.000 HD
ATOM     14  H   UNL     1       3.727   3.059  15.441  0.00  0.00    +0.000 HD
ATOM     15  H   UNL     1       3.663   3.019  17.152  0.00  0.00    +0.000 HD
ENDROOT
BRANCH   1  16
ATOM     16  C   UNL     1       4.416   4.108  19.600  0.00  0.00    +0.000 C 
BRANCH  16  18
ATOM     17  C   UNL     1       2.041   3.366  19.536  0.00  0.00    +0.000 C 
ATOM     18  N   UNL     1       3.014   4.429  19.278  0.00  0.00    +0.000 N 
BRANCH  18  19
ATOM     19  C   UNL     1       2.596   5.759  19.218  0.00  0.00    +0.000 A 
ATOM     20  C   UNL     1       2.640   6.496  18.020  0.00  0.00    +0.000 A 
ATOM     21  C   UNL     1       2.265   7.845  17.956  0.00  0.00    +0.000 A 
ATOM     22  C   UNL     1       1.822   8.504  19.099  0.00  0.00    +0.000 A 
ATOM     23 CL   UNL     1       1.405  10.171  18.963  0.00  0.00    +0.000 Cl
ATOM     24  C   UNL     1       1.735   7.796  20.296  0.00  0.00    +0.000 A 
ATOM     25 CL   UNL     1       1.197   8.534  21.767  0.00  0.00    +0.000 Cl
ATOM     26  C   UNL     1       2.106   6.445  20.346  0.00  0.00    +0.000 A 
ENDBRANCH  18  19
ENDBRANCH  16  18
ENDBRANCH   1  16
TORSDOF 3
ENDMDL
MODEL 4
REMARK VINA RESULT:      -7.5      1.997      3.222
REMARK  Name = 
REMARK  4 active torsions:
REMARK  status: ('A' for Active; 'I' for Inactive)
REMARK    1  A    between atoms: C_1  and  N_2
REMARK    2  A    between atoms: N_2  and  C_3
REMARK    3  A    between atoms: N_2  and  C_15
REMARK    4  A    between atoms: C_3  and  C_4
REMARK                            x       y       z     vdW  Elec       q    Type
REMARK                         _______ _______ _______ _____ _____    ______ ____
ROOT
ATOM      1  C   UNL     1       5.130   4.025  16.755  0.00  0.00    +0.000 A 
ATOM      2  C   UNL     1       5.234   4.298  15.406  0.00  0.00    +0.000 A 
ATOM      3  O   UNL     1       6.065   5.344  15.177  0.00  0.00    +0.000 OA
ATOM      4  C   UNL     1       6.516   5.771  16.388  0.00  0.00    +0.000 A 
ATOM      5  N   UNL     1       7.326   6.825  16.531  0.00  0.00    +0.000 NA
ATOM      6  C   UNL     1       7.607   7.071  17.807  0.00  0.00    +0.000 A 
ATOM      7  N   UNL     1       8.373   8.190  18.075  0.00  0.00    +0.000 N 
ATOM      8  N   UNL     1       7.232   6.337  18.866  0.00  0.00    +0.000 NA
ATOM      9  C   UNL     1       6.429   5.270  18.685  0.00  0.00    +0.000 A 
ATOM     10  N   UNL     1       6.081   4.550  19.820  0.00  0.00    +0.000 N 
ATOM     11  C   UNL     1       5.999   4.967  17.392  0.00  0.00    +0.000 A 
ATOM     12  H   UNL     1       8.919   8.444  17.265  0.00  0.00    +0.000 HD
ATOM     13  H   UNL     1       8.855   8.084  18.956  0.00  0.00    +0.000 HD
ATOM     14  H   UNL     1       6.309   5.076  20.656  0.00  0.00    +0.000 HD
ATOM     15  H   UNL     1       5.180   4.098  19.819  0.00  0.00    +0.000 HD
ENDROOT
BRANCH   1  16
ATOM     16  C   UNL     1       4.285   2.989  17.428  0.00  0.00    +0.000 C 
BRANCH  16  18
ATOM     17  C   UNL     1       1.952   2.235  17.852  0.00  0.00    +0.000 C 
ATOM     18  N   UNL     1       2.905   3.345  17.801  0.00  0.00    +0.000 N 
BRANCH  18  19
ATOM     19  C   UNL     1       2.652   4.516  18.517  0.00  0.00    +0.000 A 
ATOM     20  C   UNL     1       2.352   4.493  19.892  0.00  0.00    +0.000 A 
ATOM     21  C   UNL     1       2.053   5.658  20.612  0.00  0.00    +0.000 A 
ATOM     22  C   UNL     1       2.052   6.895  19.976  0.00  0.00    +0.000 A 
ATOM     23 CL   UNL     1       1.645   8.286  20.909  0.00  0.00    +0.000 Cl
ATOM     24  C   UNL     1       2.375   6.958  18.622  0.00  0.00    +0.000 A 
ATOM     25 CL   UNL     1       2.398   8.452  17.748  0.00  0.00    +0.000 Cl
ATOM     26  C   UNL     1       2.681   5.788  17.914  0.00  0.00    +0.000 A 
ENDBRANCH  18  19
ENDBRANCH  16  18
ENDBRANCH   1  16
TORSDOF 3
ENDMDL
MODEL 5
REMARK VINA RESULT:      -7.5      0.750      1.513
REMARK  Name = 
REMARK  4 active torsions:
REMARK  status: ('A' for Active; 'I' for Inactive)
REMARK    1  A    between atoms: C_1  and  N_2
REMARK    2  A    between atoms: N_2  and  C_3
REMARK    3  A    between atoms: N_2  and  C_15
REMARK    4  A    between atoms: C_3  and  C_4
REMARK                            x       y       z     vdW  Elec       q    Type
REMARK                         _______ _______ _______ _____ _____    ______ ____
ROOT
ATOM      1  C   UNL     1       4.405   4.792  18.071  0.00  0.00    +0.000 A 
ATOM      2  C   UNL     1       3.576   3.926  17.387  0.00  0.00    +0.000 A 
ATOM      3  O   UNL     1       4.054   3.665  16.146  0.00  0.00    +0.000 OA
ATOM      4  C   UNL     1       5.212   4.366  16.005  0.00  0.00    +0.000 A 
ATOM      5  N   UNL     1       5.925   4.371  14.874  0.00  0.00    +0.000 NA
ATOM      6  C   UNL     1       6.999   5.150  14.962  0.00  0.00    +0.000 A 
ATOM      7  N   UNL     1       7.764   5.292  13.821  0.00  0.00    +0.000 N 
ATOM      8  N   UNL     1       7.423   5.808  16.052  0.00  0.00    +0.000 NA
ATOM      9  C   UNL     1       6.689   5.769  17.181  0.00  0.00    +0.000 A 
ATOM     10  N   UNL     1       7.186   6.465  18.275  0.00  0.00    +0.000 N 
ATOM     11  C   UNL     1       5.493   5.048  17.178  0.00  0.00    +0.000 A 
ATOM     12  H   UNL     1       7.625   4.505  13.203  0.00  0.00    +0.000 HD
ATOM     13  H   UNL     1       8.713   5.541  14.062  0.00  0.00    +0.000 HD
ATOM     14  H   UNL     1       7.929   7.092  17.987  0.00  0.00    +0.000 HD
ATOM     15  H   UNL     1       6.513   6.850  18.918  0.00  0.00    +0.000 HD
ENDROOT
BRANCH   1  16
ATOM     16  C   UNL     1       4.218   5.365  19.441  0.00  0.00    +0.000 C 
BRANCH  16  18
ATOM     17  C   UNL     1       2.399   4.425  20.856  0.00  0.00    +0.000 C 
ATOM     18  N   UNL     1       2.847   5.496  19.964  0.00  0.00    +0.000 N 
BRANCH  18  19
ATOM     19  C   UNL     1       2.232   6.748  20.013  0.00  0.00    +0.000 A 
ATOM     20  C   UNL     1       1.455   7.149  21.116  0.00  0.00    +0.000 A 
ATOM     21  C   UNL     1       0.796   8.385  21.158  0.00  0.00    +0.000 A 
ATOM     22  C   UNL     1       0.902   9.272  20.091  0.00  0.00    +0.000 A 
ATOM     23 CL   UNL     1       0.043  10.763  20.188  0.00  0.00    +0.000 Cl
ATOM     24  C   UNL     1       1.688   8.921  18.996  0.00  0.00    +0.000 A 
ATOM     25 CL   UNL     1       1.876   9.959  17.623  0.00  0.00    +0.000 Cl
ATOM     26  C   UNL     1       2.349   7.685  18.969  0.00  0.00    +0.000 A 
ENDBRANCH  18  19
ENDBRANCH  16  18
ENDBRANCH   1  16
TORSDOF 3
ENDMDL
MODEL 6
REMARK VINA RESULT:      -7.5      1.635      2.622
REMARK  Name = 
REMARK  4 active torsions:
REMARK  status: ('A' for Active; 'I' for Inactive)
REMARK    1  A    between atoms: C_1  and  N_2
REMARK    2  A    between atoms: N_2  and  C_3
REMARK    3  A    between atoms: N_2  and  C_15
REMARK    4  A    between atoms: C_3  and  C_4
REMARK                            x       y       z     vdW  Elec       q    Type
REMARK                         _______ _______ _______ _____ _____    ______ ____
ROOT
ATOM      1  C   UNL     1       5.576   4.677  18.803  0.00  0.00    +0.000 A 
ATOM      2  C   UNL     1       6.579   5.463  19.333  0.00  0.00    +0.000 A 
ATOM      3  O   UNL     1       7.388   5.950  18.360  0.00  0.00    +0.000 OA
ATOM      4  C   UNL     1       6.917   5.481  17.173  0.00  0.00    +0.000 A 
ATOM      5  N   UNL     1       7.513   5.735  16.004  0.00  0.00    +0.000 NA
ATOM      6  C   UNL     1       6.892   5.146  14.986  0.00  0.00    +0.000 A 
ATOM      7  N   UNL     1       7.472   5.276  13.739  0.00  0.00    +0.000 N 
ATOM      8  N   UNL     1       5.750   4.444  15.043  0.00  0.00    +0.000 NA
ATOM      9  C   UNL     1       5.165   4.220  16.236  0.00  0.00    +0.000 A 
ATOM     10  N   UNL     1       3.983   3.492  16.226  0.00  0.00    +0.000 N 
ATOM     11  C   UNL     1       5.778   4.720  17.387  0.00  0.00    +0.000 A 
ATOM     12  H   UNL     1       8.061   6.096  13.709  0.00  0.00    +0.000 HD
ATOM     13  H   UNL     1       6.778   5.166  13.014  0.00  0.00    +0.000 HD
ATOM     14  H   UNL     1       3.853   3.041  15.328  0.00  0.00    +0.000 HD
ATOM     15  H   UNL     1       3.788   2.923  17.035  0.00  0.00    +0.000 HD
ENDROOT
BRANCH   1  16
ATOM     16  C   UNL     1       4.511   3.919  19.532  0.00  0.00    +0.000 C 
BRANCH  16  18
ATOM     17  C   UNL     1       2.178   3.113  19.206  0.00  0.00    +0.000 C 
ATOM     18  N   UNL     1       3.102   4.248  19.254  0.00  0.00    +0.000 N 
BRANCH  18  19
ATOM     19  C   UNL     1       2.618   5.531  19.515  0.00  0.00    +0.000 A 
ATOM     20  C   UNL     1       2.006   5.857  20.740  0.00  0.00    +0.000 A 
ATOM     21  C   UNL     1       1.476   7.129  20.997  0.00  0.00    +0.000 A 
ATOM     22  C   UNL     1       1.550   8.127  20.031  0.00  0.00    +0.000 A 
ATOM     23 CL   UNL     1       0.852   9.661  20.395  0.00  0.00    +0.000 Cl
ATOM     24  C   UNL     1       2.176   7.849  18.818  0.00  0.00    +0.000 A 
ATOM     25 CL   UNL     1       2.313   9.028  17.558  0.00  0.00    +0.000 Cl
ATOM     26  C   UNL     1       2.710   6.576  18.575  0.00  0.00    +0.000 A 
ENDBRANCH  18  19
ENDBRANCH  16  18
ENDBRANCH   1  16
TORSDOF 3
ENDMDL
MODEL 7
REMARK VINA RESULT:      -7.4      3.595      6.317
REMARK  Name = 
REMARK  4 active torsions:
REMARK  status: ('A' for Active; 'I' for Inactive)
REMARK    1  A    between atoms: C_1  and  N_2
REMARK    2  A    between atoms: N_2  and  C_3
REMARK    3  A    between atoms: N_2  and  C_15
REMARK    4  A    between atoms: C_3  and  C_4
REMARK                            x       y       z     vdW  Elec       q    Type
REMARK                         _______ _______ _______ _____ _____    ______ ____
ROOT
ATOM      1  C   UNL     1       3.355   4.679  17.675  0.00  0.00    +0.000 A 
ATOM      2  C   UNL     1       2.906   5.941  18.006  0.00  0.00    +0.000 A 
ATOM      3  O   UNL     1       2.342   5.954  19.239  0.00  0.00    +0.000 OA
ATOM      4  C   UNL     1       2.417   4.687  19.729  0.00  0.00    +0.000 A 
ATOM      5  N   UNL     1       1.909   4.336  20.914  0.00  0.00    +0.000 NA
ATOM      6  C   UNL     1       2.075   3.041  21.167  0.00  0.00    +0.000 A 
ATOM      7  N   UNL     1       1.514   2.553  22.332  0.00  0.00    +0.000 N 
ATOM      8  N   UNL     1       2.742   2.156  20.409  0.00  0.00    +0.000 NA
ATOM      9  C   UNL     1       3.256   2.547  19.227  0.00  0.00    +0.000 A 
ATOM     10  N   UNL     1       3.939   1.586  18.494  0.00  0.00    +0.000 N 
ATOM     11  C   UNL     1       3.067   3.869  18.818  0.00  0.00    +0.000 A 
ATOM     12  H   UNL     1       1.390   3.299  23.001  0.00  0.00    +0.000 HD
ATOM     13  H   UNL     1       2.000   1.722  22.635  0.00  0.00    +0.000 HD
ATOM     14  H   UNL     1       3.753   0.661  18.863  0.00  0.00    +0.000 HD
ATOM     15  H   UNL     1       3.912   1.670  17.489  0.00  0.00    +0.000 HD
ENDROOT
BRANCH   1  16
ATOM     16  C   UNL     1       3.991   4.228  16.396  0.00  0.00    +0.000 C 
BRANCH  16  18
ATOM     17  C   UNL     1       6.030   3.520  15.158  0.00  0.00    +0.000 C 
ATOM     18  N   UNL     1       5.461   4.226  16.307  0.00  0.00    +0.000 N 
BRANCH  18  19
ATOM     19  C   UNL     1       6.204   5.212  16.958  0.00  0.00    +0.000 A 
ATOM     20  C   UNL     1       6.294   6.524  16.457  0.00  0.00    +0.000 A 
ATOM     21  C   UNL     1       7.072   7.511  17.076  0.00  0.00    +0.000 A 
ATOM     22  C   UNL     1       7.787   7.216  18.233  0.00  0.00    +0.000 A 
ATOM     23 CL   UNL     1       8.751   8.463  18.931  0.00  0.00    +0.000 Cl
ATOM     24  C   UNL     1       7.697   5.936  18.775  0.00  0.00    +0.000 A 
ATOM     25 CL   UNL     1       8.551   5.478  20.209  0.00  0.00    +0.000 Cl
ATOM     26  C   UNL     1       6.908   4.959  18.151  0.00  0.00    +0.000 A 
ENDBRANCH  18  19
ENDBRANCH  16  18
ENDBRANCH   1  16
TORSDOF 3
ENDMDL
MODEL 8
REMARK VINA RESULT:      -7.4      4.246      6.798
REMARK  Name = 
REMARK  4 active torsions:
REMARK  status: ('A' for Active; 'I' for Inactive)
REMARK    1  A    between atoms: C_1  and  N_2
REMARK    2  A    between atoms: N_2  and  C_3
REMARK    3  A    between atoms: N_2  and  C_15
REMARK    4  A    between atoms: C_3  and  C_4
REMARK                            x       y       z     vdW  Elec       q    Type
REMARK                         _______ _______ _______ _____ _____    ______ ____
ROOT
ATOM      1  C   UNL     1       4.408   5.361  18.785  0.00  0.00    +0.000 A 
ATOM      2  C   UNL     1       3.510   6.373  18.513  0.00  0.00    +0.000 A 
ATOM      3  O   UNL     1       2.241   5.901  18.452  0.00  0.00    +0.000 OA
ATOM      4  C   UNL     1       2.298   4.562  18.686  0.00  0.00    +0.000 A 
ATOM      5  N   UNL     1       1.220   3.772  18.654  0.00  0.00    +0.000 NA
ATOM      6  C   UNL     1       1.525   2.498  18.882  0.00  0.00    +0.000 A 
ATOM      7  N   UNL     1       0.495   1.582  18.791  0.00  0.00    +0.000 N 
ATOM      8  N   UNL     1       2.733   2.009  19.202  0.00  0.00    +0.000 NA
ATOM      9  C   UNL     1       3.796   2.835  19.241  0.00  0.00    +0.000 A 
ATOM     10  N   UNL     1       5.016   2.268  19.584  0.00  0.00    +0.000 N 
ATOM     11  C   UNL     1       3.608   4.184  18.934  0.00  0.00    +0.000 A 
ATOM     12  H   UNL     1      -0.395   2.037  18.939  0.00  0.00    +0.000 HD
ATOM     13  H   UNL     1       0.703   0.762  19.342  0.00  0.00    +0.000 HD
ATOM     14  H   UNL     1       4.962   1.257  19.535  0.00  0.00    +0.000 HD
ATOM     15  H   UNL     1       5.844   2.682  19.183  0.00  0.00    +0.000 HD
ENDROOT
BRANCH   1  16
ATOM     16  C   UNL     1       5.899   5.449  18.887  0.00  0.00    +0.000 C 
BRANCH  16  18
ATOM     17  C   UNL     1       7.848   6.740  18.033  0.00  0.00    +0.000 C 
ATOM     18  N   UNL     1       6.653   5.952  17.725  0.00  0.00    +0.000 N 
BRANCH  18  19
ATOM     19  C   UNL     1       6.531   5.324  16.485  0.00  0.00    +0.000 A 
ATOM     20  C   UNL     1       5.648   4.246  16.284  0.00  0.00    +0.000 A 
ATOM     21  C   UNL     1       5.549   3.579  15.056  0.00  0.00    +0.000 A 
ATOM     22  C   UNL     1       6.332   3.977  13.977  0.00  0.00    +0.000 A 
ATOM     23 CL   UNL     1       6.188   3.096  12.502  0.00  0.00    +0.000 Cl
ATOM     24  C   UNL     1       7.194   5.061  14.131  0.00  0.00    +0.000 A 
ATOM     25 CL   UNL     1       8.207   5.625  12.845  0.00  0.00    +0.000 Cl
ATOM     26  C   UNL     1       7.279   5.726  15.362  0.00  0.00    +0.000 A 
ENDBRANCH  18  19
ENDBRANCH  16  18
ENDBRANCH   1  16
TORSDOF 3
ENDMDL
MODEL 9
REMARK VINA RESULT:      -7.3      1.558      2.087
REMARK  Name = 
REMARK  4 active torsions:
REMARK  status: ('A' for Active; 'I' for Inactive)
REMARK    1  A    between atoms: C_1  and  N_2
REMARK    2  A    between atoms: N_2  and  C_3
REMARK    3  A    between atoms: N_2  and  C_15
REMARK    4  A    between atoms: C_3  and  C_4
REMARK                            x       y       z     vdW  Elec       q    Type
REMARK                         _______ _______ _______ _____ _____    ______ ____
ROOT
ATOM      1  C   UNL     1       5.091   6.046  17.871  0.00  0.00    +0.000 A 
ATOM      2  C   UNL     1       5.589   7.251  17.417  0.00  0.00    +0.000 A 
ATOM      3  O   UNL     1       6.117   7.128  16.175  0.00  0.00    +0.000 OA
ATOM      4  C   UNL     1       5.968   5.828  15.801  0.00  0.00    +0.000 A 
ATOM      5  N   UNL     1       6.425   5.350  14.639  0.00  0.00    +0.000 NA
ATOM      6  C   UNL     1       6.191   4.048  14.506  0.00  0.00    +0.000 A 
ATOM      7  N   UNL     1       6.694   3.434  13.376  0.00  0.00    +0.000 N 
ATOM      8  N   UNL     1       5.506   3.267  15.356  0.00  0.00    +0.000 NA
ATOM      9  C   UNL     1       5.045   3.784  16.511  0.00  0.00    +0.000 A 
ATOM     10  N   UNL     1       4.340   2.926  17.343  0.00  0.00    +0.000 N 
ATOM     11  C   UNL     1       5.307   5.126  16.796  0.00  0.00    +0.000 A 
ATOM     12  H   UNL     1       6.834   4.111  12.640  0.00  0.00    +0.000 HD
ATOM     13  H   UNL     1       6.162   2.604  13.159  0.00  0.00    +0.000 HD
ATOM     14  H   UNL     1       4.472   1.964  17.053  0.00  0.00    +0.000 HD
ATOM     15  H   UNL     1       4.400   3.096  18.335  0.00  0.00    +0.000 HD
ENDROOT
BRANCH   1  16
ATOM     16  C   UNL     1       4.473   5.740  19.199  0.00  0.00    +0.000 C 
BRANCH  16  18
ATOM     17  C   UNL     1       2.377   4.546  19.814  0.00  0.00    +0.000 C 
ATOM     18  N   UNL     1       3.004   5.771  19.312  0.00  0.00    +0.000 N 
BRANCH  18  19
ATOM     19  C   UNL     1       2.334   6.990  19.416  0.00  0.00    +0.000 A 
ATOM     20  C   UNL     1       2.196   7.856  18.315  0.00  0.00    +0.000 A 
ATOM     21  C   UNL     1       1.565   9.103  18.417  0.00  0.00    +0.000 A 
ATOM     22  C   UNL     1       1.039   9.525  19.634  0.00  0.00    +0.000 A 
ATOM     23 CL   UNL     1       0.303  11.082  19.703  0.00  0.00    +0.000 Cl
ATOM     24  C   UNL     1       1.130   8.680  20.738  0.00  0.00    +0.000 A 
ATOM     25 CL   UNL     1       0.506   9.121  22.291  0.00  0.00    +0.000 Cl
ATOM     26  C   UNL     1       1.756   7.432  20.622  0.00  0.00    +0.000 A 
ENDBRANCH  18  19
ENDBRANCH  16  18
ENDBRANCH   1  16
TORSDOF 3
ENDMDL
