MODEL 1
REMARK VINA RESULT:      -7.7      0.000      0.000
REMARK  Name = 
REMARK  8 active torsions:
REMARK  status: ('A' for Active; 'I' for Inactive)
REMARK    1  A    between atoms: C_1  and  O_2
REMARK    2  A    between atoms: O_2  and  C_3
REMARK    3  A    between atoms: C_3  and  C_4
REMARK    4  A    between atoms: C_4  and  O_5
REMARK    5  A    between atoms: O_5  and  C_6
REMARK    6  A    between atoms: C_12  and  C_13
REMARK    7  A    between atoms: C_15  and  N_16
REMARK    8  A    between atoms: N_19  and  C_20
REMARK                            x       y       z     vdW  Elec       q    Type
REMARK                         _______ _______ _______ _____ _____    ______ ____
ROOT
ATOM      1  C   UNL     1       5.671   3.359  12.269  0.00  0.00    +0.000 A 
ATOM      2  C   UNL     1       6.965   3.694  11.866  0.00  0.00    +0.000 A 
ATOM      3  C   UNL     1       7.804   4.472  12.672  0.00  0.00    +0.000 A 
ATOM      4  C   UNL     1       7.289   4.896  13.899  0.00  0.00    +0.000 A 
ATOM      5  N   UNL     1       7.839   5.649  14.893  0.00  0.00    +0.000 N 
ATOM      6  N   UNL     1       7.034   5.844  15.947  0.00  0.00    +0.000 NA
ATOM      7  C   UNL     1       5.902   5.181  15.633  0.00  0.00    +0.000 A 
ATOM      8  C   UNL     1       6.014   4.578  14.341  0.00  0.00    +0.000 A 
ATOM      9  C   UNL     1       5.190   3.794  13.510  0.00  0.00    +0.000 A 
ATOM     10  H   UNL     1       8.765   6.060  14.918  0.00  0.00    +0.000 HD
ENDROOT
BRANCH   7  11
ATOM     11  C   UNL     1       4.770   5.118  16.569  0.00  0.00    +0.000 A 
ATOM     12  C   UNL     1       4.233   6.290  17.065  0.00  0.00    +0.000 A 
ATOM     13  C   UNL     1       3.221   6.200  17.997  0.00  0.00    +0.000 A 
ATOM     14  N   UNL     1       2.742   4.999  18.363  0.00  0.00    +0.000 NA
ATOM     15  C   UNL     1       3.324   3.913  17.828  0.00  0.00    +0.000 A 
ATOM     16  N   UNL     1       4.327   3.907  16.947  0.00  0.00    +0.000 NA
BRANCH  13  17
ATOM     17  N   UNL     1       2.708   7.320  18.609  0.00  0.00    +0.000 N 
ATOM     18  C   UNL     1       2.708   8.602  17.917  0.00  0.00    +0.000 C 
ATOM     19  C   UNL     1       1.330   9.244  18.078  0.00  0.00    +0.000 C 
ATOM     20  N   UNL     1       0.962   9.367  19.489  0.00  0.00    +0.000 N 
ATOM     21  C   UNL     1       0.014  10.384  19.880  0.00  0.00    +0.000 C 
ATOM     22  C   UNL     1       1.092   8.247  20.310  0.00  0.00    +0.000 C 
ATOM     23  O   UNL     1       0.384   8.073  21.304  0.00  0.00    +0.000 OA
ATOM     24  C   UNL     1       2.271   7.308  20.010  0.00  0.00    +0.000 C 
ENDBRANCH  13  17
ENDBRANCH   7  11
BRANCH   1  25
ATOM     25  O   UNL     1       4.777   2.614  11.547  0.00  0.00    +0.000 OA
BRANCH  25  26
ATOM     26  C   UNL     1       3.627   3.302  11.064  0.00  0.00    +0.000 C 
BRANCH  26  27
ATOM     27  C   UNL     1       3.928   3.860   9.681  0.00  0.00    +0.000 C 
BRANCH  27  29
ATOM     28  C   UNL     1       2.011   5.099   9.098  0.00  0.00    +0.000 C 
ATOM     29  O   UNL     1       2.716   3.878   8.926  0.00  0.00    +0.000 OA
ENDBRANCH  27  29
ENDBRANCH  26  27
ENDBRANCH  25  26
ENDBRANCH   1  25
TORSDOF 6
ENDMDL
MODEL 2
REMARK VINA RESULT:      -7.7      3.992      6.036
REMARK  Name = 
REMARK  8 active torsions:
REMARK  status: ('A' for Active; 'I' for Inactive)
REMARK    1  A    between atoms: C_1  and  O_2
REMARK    2  A    between atoms: O_2  and  C_3
REMARK    3  A    between atoms: C_3  and  C_4
REMARK    4  A    between atoms: C_4  and  O_5
REMARK    5  A    between atoms: O_5  and  C_6
REMARK    6  A    between atoms: C_12  and  C_13
REMARK    7  A    between atoms: C_15  and  N_16
REMARK    8  A    between atoms: N_19  and  C_20
REMARK                            x       y       z     vdW  Elec       q    Type
REMARK                         _______ _______ _______ _____ _____    ______ ____
ROOT
ATOM      1  C   UNL     1       6.707   6.127  16.684  0.00  0.00    +0.000 A 
ATOM      2  C   UNL     1       6.767   4.953  15.930  0.00  0.00    +0.000 A 
ATOM      3  C   UNL     1       5.693   4.057  15.887  0.00  0.00    +0.000 A 
ATOM      4  C   UNL     1       4.558   4.391  16.629  0.00  0.00    +0.000 A 
ATOM      5  N   UNL     1       3.369   3.746  16.794  0.00  0.00    +0.000 N 
ATOM      6  N   UNL     1       2.497   4.388  17.584  0.00  0.00    +0.000 NA
ATOM      7  C   UNL     1       3.143   5.514  17.951  0.00  0.00    +0.000 A 
ATOM      8  C   UNL     1       4.454   5.552  17.382  0.00  0.00    +0.000 A 
ATOM      9  C   UNL     1       5.550   6.436  17.409  0.00  0.00    +0.000 A 
ATOM     10  H   UNL     1       3.084   2.862  16.390  0.00  0.00    +0.000 HD
ENDROOT
BRANCH   7  11
ATOM     11  C   UNL     1       2.494   6.523  18.802  0.00  0.00    +0.000 A 
ATOM     12  C   UNL     1       2.135   7.741  18.258  0.00  0.00    +0.000 A 
ATOM     13  C   UNL     1       1.594   8.694  19.095  0.00  0.00    +0.000 A 
ATOM     14  N   UNL     1       1.377   8.413  20.390  0.00  0.00    +0.000 NA
ATOM     15  C   UNL     1       1.756   7.202  20.832  0.00  0.00    +0.000 A 
ATOM     16  N   UNL     1       2.314   6.234  20.103  0.00  0.00    +0.000 NA
BRANCH  13  17
ATOM     17  N   UNL     1       1.308   9.962  18.646  0.00  0.00    +0.000 N 
ATOM     18  C   UNL     1      -0.072  10.421  18.565  0.00  0.00    +0.000 C 
ATOM     19  C   UNL     1      -0.160  11.819  19.177  0.00  0.00    +0.000 C 
ATOM     20  N   UNL     1       0.776  12.740  18.533  0.00  0.00    +0.000 N 
ATOM     21  C   UNL     1       0.497  14.157  18.560  0.00  0.00    +0.000 C 
ATOM     22  C   UNL     1       2.105  12.341  18.382  0.00  0.00    +0.000 C 
ATOM     23  O   UNL     1       3.035  13.149  18.342  0.00  0.00    +0.000 OA
ATOM     24  C   UNL     1       2.347  10.848  18.109  0.00  0.00    +0.000 C 
ENDBRANCH  13  17
ENDBRANCH   7  11
BRANCH   1  25
ATOM     25  O   UNL     1       7.707   7.057  16.795  0.00  0.00    +0.000 OA
BRANCH  25  26
ATOM     26  C   UNL     1       7.925   7.596  18.095  0.00  0.00    +0.000 C 
BRANCH  26  27
ATOM     27  C   UNL     1       8.191   9.090  17.975  0.00  0.00    +0.000 C 
BRANCH  27  29
ATOM     28  C   UNL     1       9.319  10.874  19.021  0.00  0.00    +0.000 C 
ATOM     29  O   UNL     1       9.121   9.468  18.990  0.00  0.00    +0.000 OA
ENDBRANCH  27  29
ENDBRANCH  26  27
ENDBRANCH  25  26
ENDBRANCH   1  25
TORSDOF 6
ENDMDL
MODEL 3
REMARK VINA RESULT:      -7.5      1.035      1.401
REMARK  Name = 
REMARK  8 active torsions:
REMARK  status: ('A' for Active; 'I' for Inactive)
REMARK    1  A    between atoms: C_1  and  O_2
REMARK    2  A    between atoms: O_2  and  C_3
REMARK    3  A    between atoms: C_3  and  C_4
REMARK    4  A    between atoms: C_4  and  O_5
REMARK    5  A    between atoms: O_5  and  C_6
REMARK    6  A    between atoms: C_12  and  C_13
REMARK    7  A    between atoms: C_15  and  N_16
REMARK    8  A    between atoms: N_19  and  C_20
REMARK                            x       y       z     vdW  Elec       q    Type
REMARK                         _______ _______ _______ _____ _____    ______ ____
ROOT
ATOM      1  C   UNL     1       5.853   3.420  12.197  0.00  0.00    +0.000 A 
ATOM      2  C   UNL     1       7.075   3.950  11.780  0.00  0.00    +0.000 A 
ATOM      3  C   UNL     1       7.844   4.763  12.620  0.00  0.00    +0.000 A 
ATOM      4  C   UNL     1       7.336   5.018  13.896  0.00  0.00    +0.000 A 
ATOM      5  N   UNL     1       7.830   5.753  14.931  0.00  0.00    +0.000 N 
ATOM      6  N   UNL     1       7.055   5.758  16.024  0.00  0.00    +0.000 NA
ATOM      7  C   UNL     1       6.002   4.982  15.694  0.00  0.00    +0.000 A 
ATOM      8  C   UNL     1       6.131   4.503  14.353  0.00  0.00    +0.000 A 
ATOM      9  C   UNL     1       5.377   3.689  13.486  0.00  0.00    +0.000 A 
ATOM     10  H   UNL     1       8.697   6.277  14.959  0.00  0.00    +0.000 HD
ENDROOT
BRANCH   7  11
ATOM     11  C   UNL     1       4.930   4.699  16.659  0.00  0.00    +0.000 A 
ATOM     12  C   UNL     1       4.094   5.721  17.065  0.00  0.00    +0.000 A 
ATOM     13  C   UNL     1       3.144   5.444  18.025  0.00  0.00    +0.000 A 
ATOM     14  N   UNL     1       3.011   4.196  18.505  0.00  0.00    +0.000 NA
ATOM     15  C   UNL     1       3.867   3.265  18.053  0.00  0.00    +0.000 A 
ATOM     16  N   UNL     1       4.834   3.451  17.152  0.00  0.00    +0.000 NA
BRANCH  13  17
ATOM     17  N   UNL     1       2.346   6.433  18.550  0.00  0.00    +0.000 N 
ATOM     18  C   UNL     1       1.705   6.252  19.845  0.00  0.00    +0.000 C 
ATOM     19  C   UNL     1       1.911   7.519  20.675  0.00  0.00    +0.000 C 
ATOM     20  N   UNL     1       1.424   8.703  19.967  0.00  0.00    +0.000 N 
ATOM     21  C   UNL     1       1.029   9.864  20.731  0.00  0.00    +0.000 C 
ATOM     22  C   UNL     1       1.823   8.899  18.644  0.00  0.00    +0.000 C 
ATOM     23  O   UNL     1       1.911  10.021  18.142  0.00  0.00    +0.000 OA
ATOM     24  C   UNL     1       1.998   7.637  17.786  0.00  0.00    +0.000 C 
ENDBRANCH  13  17
ENDBRANCH   7  11
BRANCH   1  25
ATOM     25  O   UNL     1       5.028   2.626  11.445  0.00  0.00    +0.000 OA
BRANCH  25  26
ATOM     26  C   UNL     1       3.707   3.113  11.231  0.00  0.00    +0.000 C 
BRANCH  26  27
ATOM     27  C   UNL     1       3.629   3.747   9.850  0.00  0.00    +0.000 C 
BRANCH  27  29
ATOM     28  C   UNL     1       2.269   5.174   8.561  0.00  0.00    +0.000 C 
ATOM     29  O   UNL     1       2.626   4.762   9.872  0.00  0.00    +0.000 OA
ENDBRANCH  27  29
ENDBRANCH  26  27
ENDBRANCH  25  26
ENDBRANCH   1  25
TORSDOF 6
ENDMDL
MODEL 4
REMARK VINA RESULT:      -7.4      5.450      8.004
REMARK  Name = 
REMARK  8 active torsions:
REMARK  status: ('A' for Active; 'I' for Inactive)
REMARK    1  A    between atoms: C_1  and  O_2
REMARK    2  A    between atoms: O_2  and  C_3
REMARK    3  A    between atoms: C_3  and  C_4
REMARK    4  A    between atoms: C_4  and  O_5
REMARK    5  A    between atoms: O_5  and  C_6
REMARK    6  A    between atoms: C_12  and  C_13
REMARK    7  A    between atoms: C_15  and  N_16
REMARK    8  A    between atoms: N_19  and  C_20
REMARK                            x       y       z     vdW  Elec       q    Type
REMARK                         _______ _______ _______ _____ _____    ______ ____
ROOT
ATOM      1  C   UNL     1       2.929   5.501  19.558  0.00  0.00    +0.000 A 
ATOM      2  C   UNL     1       3.434   5.655  18.265  0.00  0.00    +0.000 A 
ATOM      3  C   UNL     1       3.246   6.839  17.544  0.00  0.00    +0.000 A 
ATOM      4  C   UNL     1       2.534   7.862  18.176  0.00  0.00    +0.000 A 
ATOM      5  N   UNL     1       2.189   9.111  17.755  0.00  0.00    +0.000 N 
ATOM      6  N   UNL     1       1.504   9.827  18.657  0.00  0.00    +0.000 NA
ATOM      7  C   UNL     1       1.400   9.011  19.726  0.00  0.00    +0.000 A 
ATOM      8  C   UNL     1       2.026   7.753  19.462  0.00  0.00    +0.000 A 
ATOM      9  C   UNL     1       2.228   6.550  20.165  0.00  0.00    +0.000 A 
ATOM     10  H   UNL     1       2.393   9.541  16.861  0.00  0.00    +0.000 HD
ENDROOT
BRANCH   7  11
ATOM     11  C   UNL     1       0.740   9.455  20.963  0.00  0.00    +0.000 A 
ATOM     12  C   UNL     1      -0.275  10.389  20.894  0.00  0.00    +0.000 A 
ATOM     13  C   UNL     1      -0.827  10.841  22.074  0.00  0.00    +0.000 A 
ATOM     14  N   UNL     1      -0.416  10.336  23.250  0.00  0.00    +0.000 NA
ATOM     15  C   UNL     1       0.575   9.431  23.221  0.00  0.00    +0.000 A 
ATOM     16  N   UNL     1       1.186   8.962  22.131  0.00  0.00    +0.000 NA
BRANCH  13  17
ATOM     17  N   UNL     1      -1.768  11.843  22.088  0.00  0.00    +0.000 N 
ATOM     18  C   UNL     1      -1.855  12.787  20.982  0.00  0.00    +0.000 C 
ATOM     19  C   UNL     1      -3.322  12.935  20.578  0.00  0.00    +0.000 C 
ATOM     20  N   UNL     1      -4.150  13.328  21.718  0.00  0.00    +0.000 N 
ATOM     21  C   UNL     1      -5.392  14.025  21.475  0.00  0.00    +0.000 C 
ATOM     22  C   UNL     1      -4.027  12.611  22.909  0.00  0.00    +0.000 C 
ATOM     23  O   UNL     1      -4.956  12.501  23.710  0.00  0.00    +0.000 OA
ATOM     24  C   UNL     1      -2.623  12.089  23.255  0.00  0.00    +0.000 C 
ENDBRANCH  13  17
ENDBRANCH   7  11
BRANCH   1  25
ATOM     25  O   UNL     1       3.053   4.380  20.336  0.00  0.00    +0.000 OA
BRANCH  25  26
ATOM     26  C   UNL     1       1.975   4.108  21.226  0.00  0.00    +0.000 C 
BRANCH  26  27
ATOM     27  C   UNL     1       1.557   2.653  21.070  0.00  0.00    +0.000 C 
BRANCH  27  29
ATOM     28  C   UNL     1       0.802   2.356  18.858  0.00  0.00    +0.000 C 
ATOM     29  O   UNL     1       1.898   2.222  19.752  0.00  0.00    +0.000 OA
ENDBRANCH  27  29
ENDBRANCH  26  27
ENDBRANCH  25  26
ENDBRANCH   1  25
TORSDOF 6
ENDMDL
MODEL 5
REMARK VINA RESULT:      -7.4      3.676      5.487
REMARK  Name = 
REMARK  8 active torsions:
REMARK  status: ('A' for Active; 'I' for Inactive)
REMARK    1  A    between atoms: C_1  and  O_2
REMARK    2  A    between atoms: O_2  and  C_3
REMARK    3  A    between atoms: C_3  and  C_4
REMARK    4  A    between atoms: C_4  and  O_5
REMARK    5  A    between atoms: O_5  and  C_6
REMARK    6  A    between atoms: C_12  and  C_13
REMARK    7  A    between atoms: C_15  and  N_16
REMARK    8  A    between atoms: N_19  and  C_20
REMARK                            x       y       z     vdW  Elec       q    Type
REMARK                         _______ _______ _______ _____ _____    ______ ____
ROOT
ATOM      1  C   UNL     1       6.909   5.983  16.433  0.00  0.00    +0.000 A 
ATOM      2  C   UNL     1       7.110   4.977  15.485  0.00  0.00    +0.000 A 
ATOM      3  C   UNL     1       6.230   3.895  15.370  0.00  0.00    +0.000 A 
ATOM      4  C   UNL     1       5.139   3.869  16.242  0.00  0.00    +0.000 A 
ATOM      5  N   UNL     1       4.120   2.975  16.383  0.00  0.00    +0.000 N 
ATOM      6  N   UNL     1       3.234   3.294  17.336  0.00  0.00    +0.000 NA
ATOM      7  C   UNL     1       3.688   4.459  17.842  0.00  0.00    +0.000 A 
ATOM      8  C   UNL     1       4.898   4.854  17.190  0.00  0.00    +0.000 A 
ATOM      9  C   UNL     1       5.801   5.930  17.286  0.00  0.00    +0.000 A 
ATOM     10  H   UNL     1       3.967   2.124  15.855  0.00  0.00    +0.000 HD
ENDROOT
BRANCH   7  11
ATOM     11  C   UNL     1       2.955   5.168  18.901  0.00  0.00    +0.000 A 
ATOM     12  C   UNL     1       2.538   6.467  18.686  0.00  0.00    +0.000 A 
ATOM     13  C   UNL     1       1.917   7.133  19.721  0.00  0.00    +0.000 A 
ATOM     14  N   UNL     1       1.680   6.504  20.884  0.00  0.00    +0.000 NA
ATOM     15  C   UNL     1       2.119   5.241  21.004  0.00  0.00    +0.000 A 
ATOM     16  N   UNL     1       2.756   4.533  20.069  0.00  0.00    +0.000 NA
BRANCH  13  17
ATOM     17  N   UNL     1       1.567   8.458  19.613  0.00  0.00    +0.000 N 
ATOM     18  C   UNL     1       1.766   9.173  18.360  0.00  0.00    +0.000 C 
ATOM     19  C   UNL     1       0.496   9.962  18.038  0.00  0.00    +0.000 C 
ATOM     20  N   UNL     1       0.130  10.851  19.140  0.00  0.00    +0.000 N 
ATOM     21  C   UNL     1      -0.663  12.026  18.859  0.00  0.00    +0.000 C 
ATOM     22  C   UNL     1       0.081  10.326  20.432  0.00  0.00    +0.000 C 
ATOM     23  O   UNL     1      -0.660  10.787  21.303  0.00  0.00    +0.000 OA
ATOM     24  C   UNL     1       1.112   9.238  20.771  0.00  0.00    +0.000 C 
ENDBRANCH  13  17
ENDBRANCH   7  11
BRANCH   1  25
ATOM     25  O   UNL     1       7.719   7.071  16.626  0.00  0.00    +0.000 OA
BRANCH  25  26
ATOM     26  C   UNL     1       7.800   7.567  17.959  0.00  0.00    +0.000 C 
BRANCH  26  27
ATOM     27  C   UNL     1       8.196   9.036  17.918  0.00  0.00    +0.000 C 
BRANCH  27  29
ATOM     28  C   UNL     1       9.297  10.697  19.174  0.00  0.00    +0.000 C 
ATOM     29  O   UNL     1       9.053   9.306  19.028  0.00  0.00    +0.000 OA
ENDBRANCH  27  29
ENDBRANCH  26  27
ENDBRANCH  25  26
ENDBRANCH   1  25
TORSDOF 6
ENDMDL
MODEL 6
REMARK VINA RESULT:      -7.4      3.856      6.108
REMARK  Name = 
REMARK  8 active torsions:
REMARK  status: ('A' for Active; 'I' for Inactive)
REMARK    1  A    between atoms: C_1  and  O_2
REMARK    2  A    between atoms: O_2  and  C_3
REMARK    3  A    between atoms: C_3  and  C_4
REMARK    4  A    between atoms: C_4  and  O_5
REMARK    5  A    between atoms: O_5  and  C_6
REMARK    6  A    between atoms: C_12  and  C_13
REMARK    7  A    between atoms: C_15  and  N_16
REMARK    8  A    between atoms: N_19  and  C_20
REMARK                            x       y       z     vdW  Elec       q    Type
REMARK                         _______ _______ _______ _____ _____    ______ ____
ROOT
ATOM      1  C   UNL     1       4.208   4.171  17.157  0.00  0.00    +0.000 A 
ATOM      2  C   UNL     1       4.136   3.003  17.919  0.00  0.00    +0.000 A 
ATOM      3  C   UNL     1       3.496   2.979  19.162  0.00  0.00    +0.000 A 
ATOM      4  C   UNL     1       2.928   4.175  19.607  0.00  0.00    +0.000 A 
ATOM      5  N   UNL     1       2.248   4.479  20.747  0.00  0.00    +0.000 N 
ATOM      6  N   UNL     1       1.836   5.752  20.822  0.00  0.00    +0.000 NA
ATOM      7  C   UNL     1       2.262   6.311  19.670  0.00  0.00    +0.000 A 
ATOM      8  C   UNL     1       2.969   5.355  18.877  0.00  0.00    +0.000 A 
ATOM      9  C   UNL     1       3.621   5.351  17.629  0.00  0.00    +0.000 A 
ATOM     10  H   UNL     1       2.025   3.860  21.518  0.00  0.00    +0.000 HD
ENDROOT
BRANCH   7  11
ATOM     11  C   UNL     1       1.966   7.715  19.349  0.00  0.00    +0.000 A 
ATOM     12  C   UNL     1       1.620   8.586  20.364  0.00  0.00    +0.000 A 
ATOM     13  C   UNL     1       1.277   9.878  20.025  0.00  0.00    +0.000 A 
ATOM     14  N   UNL     1       1.334  10.280  18.745  0.00  0.00    +0.000 NA
ATOM     15  C   UNL     1       1.681   9.366  17.825  0.00  0.00    +0.000 A 
ATOM     16  N   UNL     1       1.997   8.090  18.058  0.00  0.00    +0.000 NA
BRANCH  13  17
ATOM     17  N   UNL     1       0.825  10.770  20.969  0.00  0.00    +0.000 N 
ATOM     18  C   UNL     1       1.180  12.180  20.880  0.00  0.00    +0.000 C 
ATOM     19  C   UNL     1      -0.080  13.017  21.100  0.00  0.00    +0.000 C 
ATOM     20  N   UNL     1      -0.726  12.680  22.369  0.00  0.00    +0.000 N 
ATOM     21  C   UNL     1      -1.565  13.665  23.012  0.00  0.00    +0.000 C 
ATOM     22  C   UNL     1      -0.960  11.336  22.660  0.00  0.00    +0.000 C 
ATOM     23  O   UNL     1      -1.889  10.970  23.383  0.00  0.00    +0.000 OA
ATOM     24  C   UNL     1       0.093  10.332  22.164  0.00  0.00    +0.000 C 
ENDBRANCH  13  17
ENDBRANCH   7  11
BRANCH   1  25
ATOM     25  O   UNL     1       4.821   4.294  15.938  0.00  0.00    +0.000 OA
BRANCH  25  26
ATOM     26  C   UNL     1       6.183   3.883  15.873  0.00  0.00    +0.000 C 
BRANCH  26  27
ATOM     27  C   UNL     1       7.064   4.995  16.422  0.00  0.00    +0.000 C 
BRANCH  27  29
ATOM     28  C   UNL     1       7.603   5.465  18.667  0.00  0.00    +0.000 C 
ATOM     29  O   UNL     1       7.704   4.523  17.609  0.00  0.00    +0.000 OA
ENDBRANCH  27  29
ENDBRANCH  26  27
ENDBRANCH  25  26
ENDBRANCH   1  25
TORSDOF 6
ENDMDL
MODEL 7
REMARK VINA RESULT:      -7.2      3.722      5.878
REMARK  Name = 
REMARK  8 active torsions:
REMARK  status: ('A' for Active; 'I' for Inactive)
REMARK    1  A    between atoms: C_1  and  O_2
REMARK    2  A    between atoms: O_2  and  C_3
REMARK    3  A    between atoms: C_3  and  C_4
REMARK    4  A    between atoms: C_4  and  O_5
REMARK    5  A    between atoms: O_5  and  C_6
REMARK    6  A    between atoms: C_12  and  C_13
REMARK    7  A    between atoms: C_15  and  N_16
REMARK    8  A    between atoms: N_19  and  C_20
REMARK                            x       y       z     vdW  Elec       q    Type
REMARK                         _______ _______ _______ _____ _____    ______ ____
ROOT
ATOM      1  C   UNL     1       4.179   3.585  17.688  0.00  0.00    +0.000 A 
ATOM      2  C   UNL     1       4.031   2.533  18.594  0.00  0.00    +0.000 A 
ATOM      3  C   UNL     1       3.359   2.704  19.810  0.00  0.00    +0.000 A 
ATOM      4  C   UNL     1       2.839   3.974  20.074  0.00  0.00    +0.000 A 
ATOM      5  N   UNL     1       2.146   4.457  21.143  0.00  0.00    +0.000 N 
ATOM      6  N   UNL     1       1.796   5.746  21.036  0.00  0.00    +0.000 NA
ATOM      7  C   UNL     1       2.277   6.127  19.834  0.00  0.00    +0.000 A 
ATOM      8  C   UNL     1       2.955   5.042  19.196  0.00  0.00    +0.000 A 
ATOM      9  C   UNL     1       3.638   4.843  17.981  0.00  0.00    +0.000 A 
ATOM     10  H   UNL     1       1.875   3.958  21.981  0.00  0.00    +0.000 HD
ENDROOT
BRANCH   7  11
ATOM     11  C   UNL     1       2.057   7.487  19.321  0.00  0.00    +0.000 A 
ATOM     12  C   UNL     1       1.457   8.430  20.131  0.00  0.00    +0.000 A 
ATOM     13  C   UNL     1       1.197   9.676  19.600  0.00  0.00    +0.000 A 
ATOM     14  N   UNL     1       1.572   9.968  18.344  0.00  0.00    +0.000 NA
ATOM     15  C   UNL     1       2.150   8.989  17.629  0.00  0.00    +0.000 A 
ATOM     16  N   UNL     1       2.410   7.750  18.050  0.00  0.00    +0.000 NA
BRANCH  13  17
ATOM     17  N   UNL     1       0.512  10.631  20.315  0.00  0.00    +0.000 N 
ATOM     18  C   UNL     1       0.063  11.855  19.666  0.00  0.00    +0.000 C 
ATOM     19  C   UNL     1      -1.392  12.113  20.059  0.00  0.00    +0.000 C 
ATOM     20  N   UNL     1      -1.548  12.159  21.513  0.00  0.00    +0.000 N 
ATOM     21  C   UNL     1      -2.656  12.895  22.077  0.00  0.00    +0.000 C 
ATOM     22  C   UNL     1      -0.998  11.127  22.275  0.00  0.00    +0.000 C 
ATOM     23  O   UNL     1      -1.467  10.788  23.363  0.00  0.00    +0.000 OA
ATOM     24  C   UNL     1       0.323  10.528  21.767  0.00  0.00    +0.000 C 
ENDBRANCH  13  17
ENDBRANCH   7  11
BRANCH   1  25
ATOM     25  O   UNL     1       4.826   3.516  16.483  0.00  0.00    +0.000 OA
BRANCH  25  26
ATOM     26  C   UNL     1       6.050   4.239  16.382  0.00  0.00    +0.000 C 
BRANCH  26  27
ATOM     27  C   UNL     1       5.912   5.302  15.302  0.00  0.00    +0.000 C 
BRANCH  27  29
ATOM     28  C   UNL     1       6.912   6.450  17.099  0.00  0.00    +0.000 C 
ATOM     29  O   UNL     1       6.194   6.576  15.880  0.00  0.00    +0.000 OA
ENDBRANCH  27  29
ENDBRANCH  26  27
ENDBRANCH  25  26
ENDBRANCH   1  25
TORSDOF 6
ENDMDL
MODEL 8
REMARK VINA RESULT:      -7.2      5.684      8.419
REMARK  Name = 
REMARK  8 active torsions:
REMARK  status: ('A' for Active; 'I' for Inactive)
REMARK    1  A    between atoms: C_1  and  O_2
REMARK    2  A    between atoms: O_2  and  C_3
REMARK    3  A    between atoms: C_3  and  C_4
REMARK    4  A    between atoms: C_4  and  O_5
REMARK    5  A    between atoms: O_5  and  C_6
REMARK    6  A    between atoms: C_12  and  C_13
REMARK    7  A    between atoms: C_15  and  N_16
REMARK    8  A    between atoms: N_19  and  C_20
REMARK                            x       y       z     vdW  Elec       q    Type
REMARK                         _______ _______ _______ _____ _____    ______ ____
ROOT
ATOM      1  C   UNL     1       2.913   6.244  19.364  0.00  0.00    +0.000 A 
ATOM      2  C   UNL     1       3.360   6.498  18.065  0.00  0.00    +0.000 A 
ATOM      3  C   UNL     1       3.028   7.682  17.397  0.00  0.00    +0.000 A 
ATOM      4  C   UNL     1       2.233   8.599  18.088  0.00  0.00    +0.000 A 
ATOM      5  N   UNL     1       1.746   9.819  17.727  0.00  0.00    +0.000 N 
ATOM      6  N   UNL     1       1.017  10.425  18.674  0.00  0.00    +0.000 NA
ATOM      7  C   UNL     1       1.031   9.563  19.712  0.00  0.00    +0.000 A 
ATOM      8  C   UNL     1       1.777   8.389  19.382  0.00  0.00    +0.000 A 
ATOM      9  C   UNL     1       2.125   7.189  20.030  0.00  0.00    +0.000 A 
ATOM     10  H   UNL     1       1.877  10.301  16.845  0.00  0.00    +0.000 HD
ENDROOT
BRANCH   7  11
ATOM     11  C   UNL     1       0.366   9.889  20.982  0.00  0.00    +0.000 A 
ATOM     12  C   UNL     1      -0.519  10.947  21.034  0.00  0.00    +0.000 A 
ATOM     13  C   UNL     1      -1.074  11.275  22.254  0.00  0.00    +0.000 A 
ATOM     14  N   UNL     1      -0.793  10.541  23.343  0.00  0.00    +0.000 NA
ATOM     15  C   UNL     1       0.078   9.530  23.199  0.00  0.00    +0.000 A 
ATOM     16  N   UNL     1       0.685   9.163  22.068  0.00  0.00    +0.000 NA
BRANCH  13  17
ATOM     17  N   UNL     1      -1.883  12.377  22.400  0.00  0.00    +0.000 N 
ATOM     18  C   UNL     1      -2.917  12.668  21.416  0.00  0.00    +0.000 C 
ATOM     19  C   UNL     1      -4.215  12.999  22.152  0.00  0.00    +0.000 C 
ATOM     20  N   UNL     1      -4.021  14.094  23.103  0.00  0.00    +0.000 N 
ATOM     21  C   UNL     1      -5.157  14.901  23.485  0.00  0.00    +0.000 C 
ATOM     22  C   UNL     1      -2.944  14.024  23.989  0.00  0.00    +0.000 C 
ATOM     23  O   UNL     1      -2.966  14.565  25.096  0.00  0.00    +0.000 OA
ATOM     24  C   UNL     1      -1.660  13.369  23.458  0.00  0.00    +0.000 C 
ENDBRANCH  13  17
ENDBRANCH   7  11
BRANCH   1  25
ATOM     25  O   UNL     1       3.177   5.114  20.092  0.00  0.00    +0.000 OA
BRANCH  25  26
ATOM     26  C   UNL     1       3.723   4.013  19.372  0.00  0.00    +0.000 C 
BRANCH  26  27
ATOM     27  C   UNL     1       3.011   2.738  19.800  0.00  0.00    +0.000 C 
BRANCH  27  29
ATOM     28  C   UNL     1       1.540   2.615  21.635  0.00  0.00    +0.000 C 
ATOM     29  O   UNL     1       1.723   3.086  20.308  0.00  0.00    +0.000 OA
ENDBRANCH  27  29
ENDBRANCH  26  27
ENDBRANCH  25  26
ENDBRANCH   1  25
TORSDOF 6
ENDMDL
MODEL 9
REMARK VINA RESULT:      -7.2      5.363      9.519
REMARK  Name = 
REMARK  8 active torsions:
REMARK  status: ('A' for Active; 'I' for Inactive)
REMARK    1  A    between atoms: C_1  and  O_2
REMARK    2  A    between atoms: O_2  and  C_3
REMARK    3  A    between atoms: C_3  and  C_4
REMARK    4  A    between atoms: C_4  and  O_5
REMARK    5  A    between atoms: O_5  and  C_6
REMARK    6  A    between atoms: C_12  and  C_13
REMARK    7  A    between atoms: C_15  and  N_16
REMARK    8  A    between atoms: N_19  and  C_20
REMARK                            x       y       z     vdW  Elec       q    Type
REMARK                         _______ _______ _______ _____ _____    ______ ____
ROOT
ATOM      1  C   UNL     1      -2.688  11.908  19.336  0.00  0.00    +0.000 A 
ATOM      2  C   UNL     1      -2.931  12.572  20.540  0.00  0.00    +0.000 A 
ATOM      3  C   UNL     1      -2.110  12.383  21.657  0.00  0.00    +0.000 A 
ATOM      4  C   UNL     1      -1.034  11.504  21.513  0.00  0.00    +0.000 A 
ATOM      5  N   UNL     1      -0.069  11.112  22.391  0.00  0.00    +0.000 N 
ATOM      6  N   UNL     1       0.821  10.248  21.883  0.00  0.00    +0.000 NA
ATOM      7  C   UNL     1       0.424  10.068  20.606  0.00  0.00    +0.000 A 
ATOM      8  C   UNL     1      -0.753  10.833  20.332  0.00  0.00    +0.000 A 
ATOM      9  C   UNL     1      -1.596  11.039  19.224  0.00  0.00    +0.000 A 
ATOM     10  H   UNL     1       0.044  11.400  23.355  0.00  0.00    +0.000 HD
ENDROOT
BRANCH   7  11
ATOM     11  C   UNL     1       1.181   9.206  19.686  0.00  0.00    +0.000 A 
ATOM     12  C   UNL     1       1.646   7.983  20.129  0.00  0.00    +0.000 A 
ATOM     13  C   UNL     1       2.414   7.227  19.269  0.00  0.00    +0.000 A 
ATOM     14  N   UNL     1       2.651   7.657  18.018  0.00  0.00    +0.000 NA
ATOM     15  C   UNL     1       2.159   8.858  17.674  0.00  0.00    +0.000 A 
ATOM     16  N   UNL     1       1.435   9.667  18.449  0.00  0.00    +0.000 NA
BRANCH  13  17
ATOM     17  N   UNL     1       2.995   6.049  19.675  0.00  0.00    +0.000 N 
ATOM     18  C   UNL     1       2.240   5.093  20.473  0.00  0.00    +0.000 C 
ATOM     19  C   UNL     1       2.441   3.696  19.884  0.00  0.00    +0.000 C 
ATOM     20  N   UNL     1       3.861   3.356  19.796  0.00  0.00    +0.000 N 
ATOM     21  C   UNL     1       4.250   1.965  19.792  0.00  0.00    +0.000 C 
ATOM     22  C   UNL     1       4.731   4.278  19.211  0.00  0.00    +0.000 C 
ATOM     23  O   UNL     1       5.768   3.934  18.641  0.00  0.00    +0.000 OA
ATOM     24  C   UNL     1       4.416   5.763  19.444  0.00  0.00    +0.000 C 
ENDBRANCH  13  17
ENDBRANCH   7  11
BRANCH   1  25
ATOM     25  O   UNL     1      -3.440  12.021  18.196  0.00  0.00    +0.000 OA
BRANCH  25  26
ATOM     26  C   UNL     1      -3.753  10.804  17.525  0.00  0.00    +0.000 C 
BRANCH  26  27
ATOM     27  C   UNL     1      -3.670  11.029  16.023  0.00  0.00    +0.000 C 
BRANCH  27  29
ATOM     28  C   UNL     1      -3.074   9.965  14.007  0.00  0.00    +0.000 C 
ATOM     29  O   UNL     1      -3.059   9.885  15.425  0.00  0.00    +0.000 OA
ENDBRANCH  27  29
ENDBRANCH  26  27
ENDBRANCH  25  26
ENDBRANCH   1  25
TORSDOF 6
ENDMDL
