MODEL 1
REMARK VINA RESULT:      -7.2      0.000      0.000
REMARK  Name = 
REMARK  4 active torsions:
REMARK  status: ('A' for Active; 'I' for Inactive)
REMARK    1  A    between atoms: C_1  and  C_2
REMARK    2  A    between atoms: N_5  and  C_6
REMARK    3  A    between atoms: C_7  and  C_8
REMARK    4  A    between atoms: C_13  and  C_14
REMARK                            x       y       z     vdW  Elec       q    Type
REMARK                         _______ _______ _______ _____ _____    ______ ____
ROOT
ATOM      1  C   UNL     1       2.275   5.435  19.702  0.00  0.00    +0.000 C 
ATOM      2  O   UNL     1       1.526   5.479  20.675  0.00  0.00    +0.000 OA
ATOM      3  N   UNL     1       2.579   6.511  18.898  0.00  0.00    +0.000 N 
ATOM      4  C   UNL     1       2.060   7.747  19.169  0.00  0.00    +0.000 A 
ATOM      5  N   UNL     1       1.520   8.175  20.277  0.00  0.00    +0.000 NA
ATOM      6  C   UNL     1       0.992   9.439  20.091  0.00  0.00    +0.000 A 
ATOM      7  C   UNL     1       1.174   9.959  18.825  0.00  0.00    +0.000 A 
ATOM      8  S   UNL     1       2.099   8.858  17.875  0.00  0.00    +0.000 S 
ATOM      9  H   UNL     1       2.999   6.368  17.994  0.00  0.00    +0.000 HD
ENDROOT
BRANCH   1  16
ATOM     10  C   UNL     1       0.809   2.559  18.869  0.00  0.00    +0.000 C 
ATOM     11  C   UNL     1       2.237   2.955  18.901  0.00  0.00    +0.000 A 
ATOM     12  C   UNL     1       3.317   2.144  18.483  0.00  0.00    +0.000 A 
ATOM     13  N   UNL     1       4.494   2.749  18.600  0.00  0.00    +0.000 NA
ATOM     14  N   UNL     1       4.182   3.977  19.053  0.00  0.00    +0.000 N 
ATOM     15  C   UNL     1       5.258   4.899  19.346  0.00  0.00    +0.000 C 
ATOM     16  C   UNL     1       2.831   4.163  19.261  0.00  0.00    +0.000 A 
ENDBRANCH   1  16
BRANCH   6  17
ATOM     17  C   UNL     1       0.264  10.118  21.208  0.00  0.00    +0.000 A 
ATOM     18  C   UNL     1      -0.179   9.439  22.326  0.00  0.00    +0.000 A 
ATOM     19  C   UNL     1      -0.888  10.284  23.226  0.00  0.00    +0.000 A 
ATOM     20  C   UNL     1      -0.971  11.576  22.756  0.00  0.00    +0.000 A 
ATOM     21  S   UNL     1      -0.135  11.775  21.276  0.00  0.00    +0.000 S 
ENDBRANCH   6  17
TORSDOF 2
ENDMDL
MODEL 2
REMARK VINA RESULT:      -7.1      4.580      7.763
REMARK  Name = 
REMARK  4 active torsions:
REMARK  status: ('A' for Active; 'I' for Inactive)
REMARK    1  A    between atoms: C_1  and  C_2
REMARK    2  A    between atoms: N_5  and  C_6
REMARK    3  A    between atoms: C_7  and  C_8
REMARK    4  A    between atoms: C_13  and  C_14
REMARK                            x       y       z     vdW  Elec       q    Type
REMARK                         _______ _______ _______ _____ _____    ______ ____
ROOT
ATOM      1  C   UNL     1       3.867   3.527  18.753  0.00  0.00    +0.000 C 
ATOM      2  O   UNL     1       3.766   2.741  17.815  0.00  0.00    +0.000 OA
ATOM      3  N   UNL     1       4.689   4.632  18.766  0.00  0.00    +0.000 N 
ATOM      4  C   UNL     1       5.451   4.941  17.673  0.00  0.00    +0.000 A 
ATOM      5  N   UNL     1       5.324   4.511  16.447  0.00  0.00    +0.000 NA
ATOM      6  C   UNL     1       6.383   4.953  15.677  0.00  0.00    +0.000 A 
ATOM      7  C   UNL     1       7.292   5.747  16.348  0.00  0.00    +0.000 A 
ATOM      8  S   UNL     1       6.754   6.003  17.965  0.00  0.00    +0.000 S 
ATOM      9  H   UNL     1       4.906   5.095  19.634  0.00  0.00    +0.000 HD
ENDROOT
BRANCH   1  16
ATOM     10  C   UNL     1       1.023   4.757  19.984  0.00  0.00    +0.000 C 
ATOM     11  C   UNL     1       1.977   3.764  20.533  0.00  0.00    +0.000 A 
ATOM     12  C   UNL     1       1.805   3.051  21.741  0.00  0.00    +0.000 A 
ATOM     13  N   UNL     1       2.802   2.209  21.991  0.00  0.00    +0.000 NA
ATOM     14  N   UNL     1       3.608   2.337  20.922  0.00  0.00    +0.000 N 
ATOM     15  C   UNL     1       4.844   1.585  20.895  0.00  0.00    +0.000 C 
ATOM     16  C   UNL     1       3.168   3.269  20.005  0.00  0.00    +0.000 A 
ENDBRANCH   1  16
BRANCH   6  17
ATOM     17  C   UNL     1       6.491   4.537  14.244  0.00  0.00    +0.000 A 
ATOM     18  C   UNL     1       5.583   3.682  13.649  0.00  0.00    +0.000 A 
ATOM     19  C   UNL     1       5.920   3.392  12.296  0.00  0.00    +0.000 A 
ATOM     20  C   UNL     1       7.081   4.027  11.911  0.00  0.00    +0.000 A 
ATOM     21  S   UNL     1       7.712   5.020  13.155  0.00  0.00    +0.000 S 
ENDBRANCH   6  17
TORSDOF 2
ENDMDL
MODEL 3
REMARK VINA RESULT:      -7.0      0.781      1.798
REMARK  Name = 
REMARK  4 active torsions:
REMARK  status: ('A' for Active; 'I' for Inactive)
REMARK    1  A    between atoms: C_1  and  C_2
REMARK    2  A    between atoms: N_5  and  C_6
REMARK    3  A    between atoms: C_7  and  C_8
REMARK    4  A    between atoms: C_13  and  C_14
REMARK                            x       y       z     vdW  Elec       q    Type
REMARK                         _______ _______ _______ _____ _____    ______ ____
ROOT
ATOM      1  C   UNL     1       2.365   5.344  19.722  0.00  0.00    +0.000 C 
ATOM      2  O   UNL     1       1.624   5.382  20.701  0.00  0.00    +0.000 OA
ATOM      3  N   UNL     1       2.642   6.418  18.907  0.00  0.00    +0.000 N 
ATOM      4  C   UNL     1       2.103   7.647  19.173  0.00  0.00    +0.000 A 
ATOM      5  N   UNL     1       1.565   8.074  20.283  0.00  0.00    +0.000 NA
ATOM      6  C   UNL     1       1.013   9.326  20.092  0.00  0.00    +0.000 A 
ATOM      7  C   UNL     1       1.174   9.839  18.820  0.00  0.00    +0.000 A 
ATOM      8  S   UNL     1       2.111   8.748  17.870  0.00  0.00    +0.000 S 
ATOM      9  H   UNL     1       3.057   6.276  18.000  0.00  0.00    +0.000 HD
ENDROOT
BRANCH   1  16
ATOM     10  C   UNL     1       5.524   4.430  19.180  0.00  0.00    +0.000 C 
ATOM     11  C   UNL     1       4.255   3.674  19.062  0.00  0.00    +0.000 A 
ATOM     12  C   UNL     1       4.151   2.302  18.741  0.00  0.00    +0.000 A 
ATOM     13  N   UNL     1       2.894   1.870  18.719  0.00  0.00    +0.000 NA
ATOM     14  N   UNL     1       2.175   2.951  19.070  0.00  0.00    +0.000 N 
ATOM     15  C   UNL     1       0.732   2.843  19.093  0.00  0.00    +0.000 C 
ATOM     16  C   UNL     1       2.940   4.079  19.286  0.00  0.00    +0.000 A 
ENDBRANCH   1  16
BRANCH   6  17
ATOM     17  C   UNL     1       0.282  10.001  21.210  0.00  0.00    +0.000 A 
ATOM     18  C   UNL     1      -0.107   9.331  22.352  0.00  0.00    +0.000 A 
ATOM     19  C   UNL     1      -0.831  10.167  23.250  0.00  0.00    +0.000 A 
ATOM     20  C   UNL     1      -0.977  11.444  22.753  0.00  0.00    +0.000 A 
ATOM     21  S   UNL     1      -0.183  11.642  21.250  0.00  0.00    +0.000 S 
ENDBRANCH   6  17
TORSDOF 2
ENDMDL
MODEL 4
REMARK VINA RESULT:      -6.5      1.052      1.491
REMARK  Name = 
REMARK  4 active torsions:
REMARK  status: ('A' for Active; 'I' for Inactive)
REMARK    1  A    between atoms: C_1  and  C_2
REMARK    2  A    between atoms: N_5  and  C_6
REMARK    3  A    between atoms: C_7  and  C_8
REMARK    4  A    between atoms: C_13  and  C_14
REMARK                            x       y       z     vdW  Elec       q    Type
REMARK                         _______ _______ _______ _____ _____    ______ ____
ROOT
ATOM      1  C   UNL     1       2.390   5.454  19.815  0.00  0.00    +0.000 C 
ATOM      2  O   UNL     1       1.615   5.490  20.767  0.00  0.00    +0.000 OA
ATOM      3  N   UNL     1       2.680   6.526  19.000  0.00  0.00    +0.000 N 
ATOM      4  C   UNL     1       2.116   7.749  19.235  0.00  0.00    +0.000 A 
ATOM      5  N   UNL     1       1.532   8.177  20.322  0.00  0.00    +0.000 NA
ATOM      6  C   UNL     1       0.970   9.420  20.100  0.00  0.00    +0.000 A 
ATOM      7  C   UNL     1       1.169   9.924  18.830  0.00  0.00    +0.000 A 
ATOM      8  S   UNL     1       2.153   8.838  17.924  0.00  0.00    +0.000 S 
ATOM      9  H   UNL     1       3.129   6.381  18.110  0.00  0.00    +0.000 HD
ENDROOT
BRANCH   1  16
ATOM     10  C   UNL     1       3.997   4.575  17.030  0.00  0.00    +0.000 C 
ATOM     11  C   UNL     1       3.680   3.809  18.258  0.00  0.00    +0.000 A 
ATOM     12  C   UNL     1       4.096   2.484  18.522  0.00  0.00    +0.000 A 
ATOM     13  N   UNL     1       3.689   2.041  19.706  0.00  0.00    +0.000 NA
ATOM     14  N   UNL     1       3.045   3.093  20.241  0.00  0.00    +0.000 N 
ATOM     15  C   UNL     1       2.417   2.933  21.535  0.00  0.00    +0.000 C 
ATOM     16  C   UNL     1       2.998   4.194  19.411  0.00  0.00    +0.000 A 
ENDBRANCH   1  16
BRANCH   6  17
ATOM     17  C   UNL     1       0.190  10.094  21.185  0.00  0.00    +0.000 A 
ATOM     18  C   UNL     1      -0.114   9.468  22.378  0.00  0.00    +0.000 A 
ATOM     19  C   UNL     1      -0.905  10.287  23.232  0.00  0.00    +0.000 A 
ATOM     20  C   UNL     1      -1.186  11.506  22.655  0.00  0.00    +0.000 A 
ATOM     21  S   UNL     1      -0.437  11.679  21.125  0.00  0.00    +0.000 S 
ENDBRANCH   6  17
TORSDOF 2
ENDMDL
MODEL 5
REMARK VINA RESULT:      -6.4      3.156      7.651
REMARK  Name = 
REMARK  4 active torsions:
REMARK  status: ('A' for Active; 'I' for Inactive)
REMARK    1  A    between atoms: C_1  and  C_2
REMARK    2  A    between atoms: N_5  and  C_6
REMARK    3  A    between atoms: C_7  and  C_8
REMARK    4  A    between atoms: C_13  and  C_14
REMARK                            x       y       z     vdW  Elec       q    Type
REMARK                         _______ _______ _______ _____ _____    ______ ____
ROOT
ATOM      1  C   UNL     1       1.127   9.536  18.513  0.00  0.00    +0.000 C 
ATOM      2  O   UNL     1       1.739   9.496  17.450  0.00  0.00    +0.000 OA
ATOM      3  N   UNL     1       1.247   8.606  19.522  0.00  0.00    +0.000 N 
ATOM      4  C   UNL     1       2.115   7.557  19.398  0.00  0.00    +0.000 A 
ATOM      5  N   UNL     1       3.111   7.423  18.564  0.00  0.00    +0.000 NA
ATOM      6  C   UNL     1       3.649   6.154  18.668  0.00  0.00    +0.000 A 
ATOM      7  C   UNL     1       3.050   5.349  19.618  0.00  0.00    +0.000 A 
ATOM      8  S   UNL     1       1.834   6.244  20.449  0.00  0.00    +0.000 S 
ATOM      9  H   UNL     1       0.559   8.559  20.256  0.00  0.00    +0.000 HD
ENDROOT
BRANCH   1  16
ATOM     10  C   UNL     1      -1.913   9.957  17.211  0.00  0.00    +0.000 C 
ATOM     11  C   UNL     1      -1.162  10.749  18.214  0.00  0.00    +0.000 A 
ATOM     12  C   UNL     1      -1.664  11.873  18.907  0.00  0.00    +0.000 A 
ATOM     13  N   UNL     1      -0.788  12.386  19.764  0.00  0.00    +0.000 NA
ATOM     14  N   UNL     1       0.276  11.569  19.666  0.00  0.00    +0.000 N 
ATOM     15  C   UNL     1       1.457  11.877  20.443  0.00  0.00    +0.000 C 
ATOM     16  C   UNL     1       0.115  10.559  18.740  0.00  0.00    +0.000 A 
ENDBRANCH   1  16
BRANCH   6  17
ATOM     17  C   UNL     1       4.769   5.739  17.767  0.00  0.00    +0.000 A 
ATOM     18  C   UNL     1       4.834   6.120  16.441  0.00  0.00    +0.000 A 
ATOM     19  C   UNL     1       5.961   5.563  15.773  0.00  0.00    +0.000 A 
ATOM     20  C   UNL     1       6.711   4.768  16.612  0.00  0.00    +0.000 A 
ATOM     21  S   UNL     1       6.092   4.757  18.208  0.00  0.00    +0.000 S 
ENDBRANCH   6  17
TORSDOF 2
ENDMDL
MODEL 6
REMARK VINA RESULT:      -6.4      2.790      7.500
REMARK  Name = 
REMARK  4 active torsions:
REMARK  status: ('A' for Active; 'I' for Inactive)
REMARK    1  A    between atoms: C_1  and  C_2
REMARK    2  A    between atoms: N_5  and  C_6
REMARK    3  A    between atoms: C_7  and  C_8
REMARK    4  A    between atoms: C_13  and  C_14
REMARK                            x       y       z     vdW  Elec       q    Type
REMARK                         _______ _______ _______ _____ _____    ______ ____
ROOT
ATOM      1  C   UNL     1       1.662   8.415  19.617  0.00  0.00    +0.000 C 
ATOM      2  O   UNL     1       2.227   8.605  18.543  0.00  0.00    +0.000 OA
ATOM      3  N   UNL     1       1.754   7.257  20.356  0.00  0.00    +0.000 N 
ATOM      4  C   UNL     1       2.537   6.221  19.927  0.00  0.00    +0.000 A 
ATOM      5  N   UNL     1       3.487   6.239  19.030  0.00  0.00    +0.000 NA
ATOM      6  C   UNL     1       3.933   4.954  18.787  0.00  0.00    +0.000 A 
ATOM      7  C   UNL     1       3.315   3.976  19.541  0.00  0.00    +0.000 A 
ATOM      8  S   UNL     1       2.203   4.706  20.635  0.00  0.00    +0.000 S 
ATOM      9  H   UNL     1       1.095   7.070  21.093  0.00  0.00    +0.000 HD
ENDROOT
BRANCH   1  16
ATOM     10  C   UNL     1      -0.735  10.203  18.143  0.00  0.00    +0.000 C 
ATOM     11  C   UNL     1      -0.274  10.160  19.551  0.00  0.00    +0.000 A 
ATOM     12  C   UNL     1      -0.859  10.872  20.622  0.00  0.00    +0.000 A 
ATOM     13  N   UNL     1      -0.261  10.639  21.786  0.00  0.00    +0.000 NA
ATOM     14  N   UNL     1       0.690   9.737  21.485  0.00  0.00    +0.000 N 
ATOM     15  C   UNL     1       1.581   9.296  22.537  0.00  0.00    +0.000 C 
ATOM     16  C   UNL     1       0.739   9.409  20.146  0.00  0.00    +0.000 A 
ENDBRANCH   1  16
BRANCH   6  17
ATOM     17  C   UNL     1       4.983   4.710  17.748  0.00  0.00    +0.000 A 
ATOM     18  C   UNL     1       4.696   4.138  16.524  0.00  0.00    +0.000 A 
ATOM     19  C   UNL     1       5.861   3.960  15.725  0.00  0.00    +0.000 A 
ATOM     20  C   UNL     1       6.997   4.394  16.373  0.00  0.00    +0.000 A 
ATOM     21  S   UNL     1       6.642   5.073  17.903  0.00  0.00    +0.000 S 
ENDBRANCH   6  17
TORSDOF 2
ENDMDL
MODEL 7
REMARK VINA RESULT:      -6.4      2.745      7.593
REMARK  Name = 
REMARK  4 active torsions:
REMARK  status: ('A' for Active; 'I' for Inactive)
REMARK    1  A    between atoms: C_1  and  C_2
REMARK    2  A    between atoms: N_5  and  C_6
REMARK    3  A    between atoms: C_7  and  C_8
REMARK    4  A    between atoms: C_13  and  C_14
REMARK                            x       y       z     vdW  Elec       q    Type
REMARK                         _______ _______ _______ _____ _____    ______ ____
ROOT
ATOM      1  C   UNL     1       1.741   8.301  19.619  0.00  0.00    +0.000 C 
ATOM      2  O   UNL     1       2.283   8.519  18.539  0.00  0.00    +0.000 OA
ATOM      3  N   UNL     1       1.866   7.131  20.336  0.00  0.00    +0.000 N 
ATOM      4  C   UNL     1       2.658   6.116  19.874  0.00  0.00    +0.000 A 
ATOM      5  N   UNL     1       3.591   6.167  18.961  0.00  0.00    +0.000 NA
ATOM      6  C   UNL     1       4.054   4.893  18.686  0.00  0.00    +0.000 A 
ATOM      7  C   UNL     1       3.466   3.892  19.434  0.00  0.00    +0.000 A 
ATOM      8  S   UNL     1       2.362   4.584  20.561  0.00  0.00    +0.000 S 
ATOM      9  H   UNL     1       1.223   6.920  21.082  0.00  0.00    +0.000 HD
ENDROOT
BRANCH   1  16
ATOM     10  C   UNL     1       1.235   9.300  22.759  0.00  0.00    +0.000 C 
ATOM     11  C   UNL     1       0.590   9.707  21.488  0.00  0.00    +0.000 A 
ATOM     12  C   UNL     1      -0.385  10.722  21.358  0.00  0.00    +0.000 A 
ATOM     13  N   UNL     1      -0.785  10.896  20.103  0.00  0.00    +0.000 NA
ATOM     14  N   UNL     1      -0.038  10.025  19.402  0.00  0.00    +0.000 N 
ATOM     15  C   UNL     1      -0.262   9.914  17.976  0.00  0.00    +0.000 C 
ATOM     16  C   UNL     1       0.811   9.269  20.183  0.00  0.00    +0.000 A 
ENDBRANCH   1  16
BRANCH   6  17
ATOM     17  C   UNL     1       5.088   4.686  17.625  0.00  0.00    +0.000 A 
ATOM     18  C   UNL     1       4.766   4.279  16.345  0.00  0.00    +0.000 A 
ATOM     19  C   UNL     1       5.918   4.101  15.528  0.00  0.00    +0.000 A 
ATOM     20  C   UNL     1       7.080   4.368  16.219  0.00  0.00    +0.000 A 
ATOM     21  S   UNL     1       6.770   4.898  17.816  0.00  0.00    +0.000 S 
ENDBRANCH   6  17
TORSDOF 2
ENDMDL
MODEL 8
REMARK VINA RESULT:      -6.3      3.260      7.960
REMARK  Name = 
REMARK  4 active torsions:
REMARK  status: ('A' for Active; 'I' for Inactive)
REMARK    1  A    between atoms: C_1  and  C_2
REMARK    2  A    between atoms: N_5  and  C_6
REMARK    3  A    between atoms: C_7  and  C_8
REMARK    4  A    between atoms: C_13  and  C_14
REMARK                            x       y       z     vdW  Elec       q    Type
REMARK                         _______ _______ _______ _____ _____    ______ ____
ROOT
ATOM      1  C   UNL     1       1.250   9.840  18.482  0.00  0.00    +0.000 C 
ATOM      2  O   UNL     1       1.683   9.688  17.343  0.00  0.00    +0.000 OA
ATOM      3  N   UNL     1       1.403   8.932  19.506  0.00  0.00    +0.000 N 
ATOM      4  C   UNL     1       2.100   7.773  19.306  0.00  0.00    +0.000 A 
ATOM      5  N   UNL     1       2.933   7.483  18.343  0.00  0.00    +0.000 NA
ATOM      6  C   UNL     1       3.313   6.157  18.428  0.00  0.00    +0.000 A 
ATOM      7  C   UNL     1       2.767   5.468  19.493  0.00  0.00    +0.000 A 
ATOM      8  S   UNL     1       1.817   6.540  20.450  0.00  0.00    +0.000 S 
ATOM      9  H   UNL     1       0.834   8.999  20.335  0.00  0.00    +0.000 HD
ENDROOT
BRANCH   1  16
ATOM     10  C   UNL     1       1.958  12.677  20.084  0.00  0.00    +0.000 C 
ATOM     11  C   UNL     1       0.701  12.192  19.465  0.00  0.00    +0.000 A 
ATOM     12  C   UNL     1      -0.499  12.931  19.372  0.00  0.00    +0.000 A 
ATOM     13  N   UNL     1      -1.469  12.266  18.753  0.00  0.00    +0.000 NA
ATOM     14  N   UNL     1      -0.889  11.106  18.398  0.00  0.00    +0.000 N 
ATOM     15  C   UNL     1      -1.697  10.104  17.737  0.00  0.00    +0.000 C 
ATOM     16  C   UNL     1       0.424  10.995  18.805  0.00  0.00    +0.000 A 
ENDBRANCH   1  16
BRANCH   6  17
ATOM     17  C   UNL     1       4.220   5.570  17.393  0.00  0.00    +0.000 A 
ATOM     18  C   UNL     1       4.918   6.350  16.490  0.00  0.00    +0.000 A 
ATOM     19  C   UNL     1       5.674   5.567  15.572  0.00  0.00    +0.000 A 
ATOM     20  C   UNL     1       5.518   4.217  15.801  0.00  0.00    +0.000 A 
ATOM     21  S   UNL     1       4.522   3.908  17.158  0.00  0.00    +0.000 S 
ENDBRANCH   6  17
TORSDOF 2
ENDMDL
MODEL 9
REMARK VINA RESULT:      -6.3      2.820      3.698
REMARK  Name = 
REMARK  4 active torsions:
REMARK  status: ('A' for Active; 'I' for Inactive)
REMARK    1  A    between atoms: C_1  and  C_2
REMARK    2  A    between atoms: N_5  and  C_6
REMARK    3  A    between atoms: C_7  and  C_8
REMARK    4  A    between atoms: C_13  and  C_14
REMARK                            x       y       z     vdW  Elec       q    Type
REMARK                         _______ _______ _______ _____ _____    ______ ____
ROOT
ATOM      1  C   UNL     1       4.843   6.280  17.616  0.00  0.00    +0.000 C 
ATOM      2  O   UNL     1       4.859   7.492  17.412  0.00  0.00    +0.000 OA
ATOM      3  N   UNL     1       3.950   5.637  18.444  0.00  0.00    +0.000 N 
ATOM      4  C   UNL     1       2.973   6.342  19.091  0.00  0.00    +0.000 A 
ATOM      5  N   UNL     1       2.535   7.545  18.834  0.00  0.00    +0.000 NA
ATOM      6  C   UNL     1       1.642   7.944  19.811  0.00  0.00    +0.000 A 
ATOM      7  C   UNL     1       1.401   7.001  20.791  0.00  0.00    +0.000 A 
ATOM      8  S   UNL     1       2.261   5.554  20.426  0.00  0.00    +0.000 S 
ATOM      9  H   UNL     1       4.130   4.696  18.753  0.00  0.00    +0.000 HD
ENDROOT
BRANCH   1  16
ATOM     10  C   UNL     1       4.984   4.608  14.736  0.00  0.00    +0.000 C 
ATOM     11  C   UNL     1       5.960   4.727  15.846  0.00  0.00    +0.000 A 
ATOM     12  C   UNL     1       7.257   4.166  15.854  0.00  0.00    +0.000 A 
ATOM     13  N   UNL     1       7.931   4.439  16.966  0.00  0.00    +0.000 NA
ATOM     14  N   UNL     1       7.091   5.219  17.669  0.00  0.00    +0.000 N 
ATOM     15  C   UNL     1       7.499   5.662  18.985  0.00  0.00    +0.000 C 
ATOM     16  C   UNL     1       5.877   5.427  17.048  0.00  0.00    +0.000 A 
ENDBRANCH   1  16
BRANCH   6  17
ATOM     17  C   UNL     1       1.047   9.316  19.766  0.00  0.00    +0.000 A 
ATOM     18  C   UNL     1       0.814   9.985  18.581  0.00  0.00    +0.000 A 
ATOM     19  C   UNL     1       0.291  11.293  18.792  0.00  0.00    +0.000 A 
ATOM     20  C   UNL     1       0.156  11.579  20.133  0.00  0.00    +0.000 A 
ATOM     21  S   UNL     1       0.590  10.249  21.120  0.00  0.00    +0.000 S 
ENDBRANCH   6  17
TORSDOF 2
ENDMDL
