MODEL 1
REMARK VINA RESULT:      -8.1      0.000      0.000
REMARK  Name = 
REMARK  6 active torsions:
REMARK  status: ('A' for Active; 'I' for Inactive)
REMARK    1  A    between atoms: C_1  and  C_2
REMARK    2  A    between atoms: C_2  and  O_3
REMARK    3  A    between atoms: O_3  and  C_4
REMARK    4  A    between atoms: C_8  and  C_9
REMARK    5  A    between atoms: C_9  and  C_10
REMARK    6  A    between atoms: C_15  and  C_16
REMARK                            x       y       z     vdW  Elec       q    Type
REMARK                         _______ _______ _______ _____ _____    ______ ____
ROOT
ATOM      1  C   UNL     1       2.533   5.375  19.834  0.00  0.00    +0.000 C 
ATOM      2  O   UNL     1       1.873   5.429  20.870  0.00  0.00    +0.000 OA
ATOM      3  N   UNL     1       2.736   6.393  18.924  0.00  0.00    +0.000 N 
ATOM      4  C   UNL     1       2.176   7.622  19.135  0.00  0.00    +0.000 A 
ATOM      5  N   UNL     1       1.606   8.055  20.221  0.00  0.00    +0.000 NA
ATOM      6  C   UNL     1       1.052   9.300  20.009  0.00  0.00    +0.000 A 
ATOM      7  C   UNL     1       1.257   9.806  18.739  0.00  0.00    +0.000 A 
ATOM      8  S   UNL     1       2.198   8.694  17.813  0.00  0.00    +0.000 S 
ATOM      9  H   UNL     1       3.145   6.214  18.019  0.00  0.00    +0.000 HD
ENDROOT
BRANCH   6  10
ATOM     10  C   UNL     1       0.300   9.941  21.080  0.00  0.00    +0.000 A 
ATOM     11  C   UNL     1      -0.003   9.293  22.282  0.00  0.00    +0.000 A 
ATOM     12  C   UNL     1      -0.756   9.946  23.264  0.00  0.00    +0.000 A 
ATOM     13  C   UNL     1      -1.210  11.249  23.054  0.00  0.00    +0.000 A 
ATOM     14  C   UNL     1      -0.914  11.905  21.863  0.00  0.00    +0.000 A 
ATOM     15  C   UNL     1      -0.167  11.253  20.882  0.00  0.00    +0.000 A 
ENDBRANCH   6  10
BRANCH   1  16
ATOM     16  C   UNL     1       3.190   4.075  19.430  0.00  0.00    +0.000 C 
BRANCH  16  21
ATOM     17  C   UNL     1       6.562   4.686  17.798  0.00  0.00    +0.000 A 
ATOM     18  C   UNL     1       6.311   4.361  16.466  0.00  0.00    +0.000 A 
ATOM     19  C   UNL     1       5.044   3.924  16.078  0.00  0.00    +0.000 A 
ATOM     20  C   UNL     1       4.015   3.826  17.018  0.00  0.00    +0.000 A 
ATOM     21  C   UNL     1       4.239   4.196  18.350  0.00  0.00    +0.000 A 
ATOM     22  C   UNL     1       5.524   4.619  18.727  0.00  0.00    +0.000 A 
BRANCH  17  23
ATOM     23  O   UNL     1       7.836   5.094  18.091  0.00  0.00    +0.000 OA
BRANCH  23  25
ATOM     24  C   UNL     1       7.798   7.476  17.865  0.00  0.00    +0.000 C 
ATOM     25  C   UNL     1       7.923   6.315  18.833  0.00  0.00    +0.000 C 
ENDBRANCH  23  25
ENDBRANCH  17  23
ENDBRANCH  16  21
ENDBRANCH   1  16
TORSDOF 5
ENDMDL
MODEL 2
REMARK VINA RESULT:      -8.0      1.100      2.346
REMARK  Name = 
REMARK  6 active torsions:
REMARK  status: ('A' for Active; 'I' for Inactive)
REMARK    1  A    between atoms: C_1  and  C_2
REMARK    2  A    between atoms: C_2  and  O_3
REMARK    3  A    between atoms: O_3  and  C_4
REMARK    4  A    between atoms: C_8  and  C_9
REMARK    5  A    between atoms: C_9  and  C_10
REMARK    6  A    between atoms: C_15  and  C_16
REMARK                            x       y       z     vdW  Elec       q    Type
REMARK                         _______ _______ _______ _____ _____    ______ ____
ROOT
ATOM      1  C   UNL     1       2.830   5.543  19.554  0.00  0.00    +0.000 C 
ATOM      2  O   UNL     1       2.197   5.516  20.608  0.00  0.00    +0.000 OA
ATOM      3  N   UNL     1       2.916   6.596  18.664  0.00  0.00    +0.000 N 
ATOM      4  C   UNL     1       2.257   7.765  18.921  0.00  0.00    +0.000 A 
ATOM      5  N   UNL     1       1.682   8.122  20.032  0.00  0.00    +0.000 NA
ATOM      6  C   UNL     1       1.016   9.317  19.866  0.00  0.00    +0.000 A 
ATOM      7  C   UNL     1       1.139   9.868  18.604  0.00  0.00    +0.000 A 
ATOM      8  S   UNL     1       2.148   8.865  17.626  0.00  0.00    +0.000 S 
ATOM      9  H   UNL     1       3.314   6.474  17.745  0.00  0.00    +0.000 HD
ENDROOT
BRANCH   6  10
ATOM     10  C   UNL     1       0.241   9.865  20.972  0.00  0.00    +0.000 A 
ATOM     11  C   UNL     1      -0.502  11.046  20.860  0.00  0.00    +0.000 A 
ATOM     12  C   UNL     1      -1.202  11.544  21.963  0.00  0.00    +0.000 A 
ATOM     13  C   UNL     1      -1.168  10.869  23.184  0.00  0.00    +0.000 A 
ATOM     14  C   UNL     1      -0.433   9.693  23.308  0.00  0.00    +0.000 A 
ATOM     15  C   UNL     1       0.269   9.198  22.210  0.00  0.00    +0.000 A 
ENDBRANCH   6  10
BRANCH   1  16
ATOM     16  C   UNL     1       3.587   4.317  19.100  0.00  0.00    +0.000 C 
BRANCH  16  21
ATOM     17  C   UNL     1       6.530   4.547  16.714  0.00  0.00    +0.000 A 
ATOM     18  C   UNL     1       7.521   5.108  17.519  0.00  0.00    +0.000 A 
ATOM     19  C   UNL     1       7.245   5.434  18.847  0.00  0.00    +0.000 A 
ATOM     20  C   UNL     1       5.980   5.185  19.384  0.00  0.00    +0.000 A 
ATOM     21  C   UNL     1       4.989   4.576  18.603  0.00  0.00    +0.000 A 
ATOM     22  C   UNL     1       5.278   4.269  17.263  0.00  0.00    +0.000 A 
BRANCH  17  23
ATOM     23  O   UNL     1       6.885   4.270  15.421  0.00  0.00    +0.000 OA
BRANCH  23  25
ATOM     24  C   UNL     1       6.125   3.663  13.235  0.00  0.00    +0.000 C 
ATOM     25  C   UNL     1       5.872   4.540  14.447  0.00  0.00    +0.000 C 
ENDBRANCH  23  25
ENDBRANCH  17  23
ENDBRANCH  16  21
ENDBRANCH   1  16
TORSDOF 5
ENDMDL
MODEL 3
REMARK VINA RESULT:      -7.6      0.502      1.119
REMARK  Name = 
REMARK  6 active torsions:
REMARK  status: ('A' for Active; 'I' for Inactive)
REMARK    1  A    between atoms: C_1  and  C_2
REMARK    2  A    between atoms: C_2  and  O_3
REMARK    3  A    between atoms: O_3  and  C_4
REMARK    4  A    between atoms: C_8  and  C_9
REMARK    5  A    between atoms: C_9  and  C_10
REMARK    6  A    between atoms: C_15  and  C_16
REMARK                            x       y       z     vdW  Elec       q    Type
REMARK                         _______ _______ _______ _____ _____    ______ ____
ROOT
ATOM      1  C   UNL     1       2.809   5.472  19.940  0.00  0.00    +0.000 C 
ATOM      2  O   UNL     1       2.142   5.513  20.972  0.00  0.00    +0.000 OA
ATOM      3  N   UNL     1       2.932   6.466  18.989  0.00  0.00    +0.000 N 
ATOM      4  C   UNL     1       2.272   7.652  19.150  0.00  0.00    +0.000 A 
ATOM      5  N   UNL     1       1.663   8.080  20.216  0.00  0.00    +0.000 NA
ATOM      6  C   UNL     1       1.010   9.265  19.953  0.00  0.00    +0.000 A 
ATOM      7  C   UNL     1       1.178   9.735  18.664  0.00  0.00    +0.000 A 
ATOM      8  S   UNL     1       2.212   8.668  17.786  0.00  0.00    +0.000 S 
ATOM      9  H   UNL     1       3.359   6.285  18.093  0.00  0.00    +0.000 HD
ENDROOT
BRANCH   6  10
ATOM     10  C   UNL     1       0.202   9.885  20.996  0.00  0.00    +0.000 A 
ATOM     11  C   UNL     1      -0.494  11.083  20.800  0.00  0.00    +0.000 A 
ATOM     12  C   UNL     1      -1.228  11.650  21.845  0.00  0.00    +0.000 A 
ATOM     13  C   UNL     1      -1.275  11.028  23.093  0.00  0.00    +0.000 A 
ATOM     14  C   UNL     1      -0.587   9.835  23.302  0.00  0.00    +0.000 A 
ATOM     15  C   UNL     1       0.149   9.271  22.261  0.00  0.00    +0.000 A 
ENDBRANCH   6  10
BRANCH   1  16
ATOM     16  C   UNL     1       3.574   4.216  19.589  0.00  0.00    +0.000 C 
BRANCH  16  21
ATOM     17  C   UNL     1       6.454   5.079  17.273  0.00  0.00    +0.000 A 
ATOM     18  C   UNL     1       6.084   4.443  16.089  0.00  0.00    +0.000 A 
ATOM     19  C   UNL     1       4.898   3.711  16.027  0.00  0.00    +0.000 A 
ATOM     20  C   UNL     1       4.066   3.625  17.147  0.00  0.00    +0.000 A 
ATOM     21  C   UNL     1       4.400   4.299  18.328  0.00  0.00    +0.000 A 
ATOM     22  C   UNL     1       5.605   5.019  18.378  0.00  0.00    +0.000 A 
BRANCH  17  23
ATOM     23  O   UNL     1       7.639   5.765  17.247  0.00  0.00    +0.000 OA
BRANCH  23  25
ATOM     24  C   UNL     1       8.278   7.734  18.446  0.00  0.00    +0.000 C 
ATOM     25  C   UNL     1       7.512   7.190  17.256  0.00  0.00    +0.000 C 
ENDBRANCH  23  25
ENDBRANCH  17  23
ENDBRANCH  16  21
ENDBRANCH   1  16
TORSDOF 5
ENDMDL
MODEL 4
REMARK VINA RESULT:      -7.5      2.821      8.580
REMARK  Name = 
REMARK  6 active torsions:
REMARK  status: ('A' for Active; 'I' for Inactive)
REMARK    1  A    between atoms: C_1  and  C_2
REMARK    2  A    between atoms: C_2  and  O_3
REMARK    3  A    between atoms: O_3  and  C_4
REMARK    4  A    between atoms: C_8  and  C_9
REMARK    5  A    between atoms: C_9  and  C_10
REMARK    6  A    between atoms: C_15  and  C_16
REMARK                            x       y       z     vdW  Elec       q    Type
REMARK                         _______ _______ _______ _____ _____    ______ ____
ROOT
ATOM      1  C   UNL     1       1.656   8.140  20.102  0.00  0.00    +0.000 C 
ATOM      2  O   UNL     1       2.258   8.473  19.083  0.00  0.00    +0.000 OA
ATOM      3  N   UNL     1       1.707   6.913  20.734  0.00  0.00    +0.000 N 
ATOM      4  C   UNL     1       2.494   5.916  20.231  0.00  0.00    +0.000 A 
ATOM      5  N   UNL     1       3.399   6.015  19.302  0.00  0.00    +0.000 NA
ATOM      6  C   UNL     1       3.894   4.770  18.978  0.00  0.00    +0.000 A 
ATOM      7  C   UNL     1       3.359   3.733  19.720  0.00  0.00    +0.000 A 
ATOM      8  S   UNL     1       2.236   4.360  20.871  0.00  0.00    +0.000 S 
ATOM      9  H   UNL     1       1.052   6.671  21.462  0.00  0.00    +0.000 HD
ENDROOT
BRANCH   6  10
ATOM     10  C   UNL     1       4.872   4.644  17.905  0.00  0.00    +0.000 A 
ATOM     11  C   UNL     1       4.510   4.367  16.582  0.00  0.00    +0.000 A 
ATOM     12  C   UNL     1       5.493   4.225  15.598  0.00  0.00    +0.000 A 
ATOM     13  C   UNL     1       6.843   4.360  15.925  0.00  0.00    +0.000 A 
ATOM     14  C   UNL     1       7.216   4.636  17.237  0.00  0.00    +0.000 A 
ATOM     15  C   UNL     1       6.237   4.773  18.220  0.00  0.00    +0.000 A 
ENDBRANCH   6  10
BRANCH   1  16
ATOM     16  C   UNL     1       0.711   9.113  20.767  0.00  0.00    +0.000 C 
BRANCH  16  21
ATOM     17  C   UNL     1      -1.510  11.063  18.386  0.00  0.00    +0.000 A 
ATOM     18  C   UNL     1      -0.848  12.287  18.297  0.00  0.00    +0.000 A 
ATOM     19  C   UNL     1       0.325  12.504  19.021  0.00  0.00    +0.000 A 
ATOM     20  C   UNL     1       0.851  11.491  19.826  0.00  0.00    +0.000 A 
ATOM     21  C   UNL     1       0.225  10.240  19.887  0.00  0.00    +0.000 A 
ATOM     22  C   UNL     1      -0.963  10.043  19.164  0.00  0.00    +0.000 A 
BRANCH  17  23
ATOM     23  O   UNL     1      -2.659  10.943  17.651  0.00  0.00    +0.000 OA
BRANCH  23  25
ATOM     24  C   UNL     1      -2.857  10.614  15.289  0.00  0.00    +0.000 C 
ATOM     25  C   UNL     1      -2.619   9.943  16.629  0.00  0.00    +0.000 C 
ENDBRANCH  23  25
ENDBRANCH  17  23
ENDBRANCH  16  21
ENDBRANCH   1  16
TORSDOF 5
ENDMDL
MODEL 5
REMARK VINA RESULT:      -7.5      2.735      8.517
REMARK  Name = 
REMARK  6 active torsions:
REMARK  status: ('A' for Active; 'I' for Inactive)
REMARK    1  A    between atoms: C_1  and  C_2
REMARK    2  A    between atoms: C_2  and  O_3
REMARK    3  A    between atoms: O_3  and  C_4
REMARK    4  A    between atoms: C_8  and  C_9
REMARK    5  A    between atoms: C_9  and  C_10
REMARK    6  A    between atoms: C_15  and  C_16
REMARK                            x       y       z     vdW  Elec       q    Type
REMARK                         _______ _______ _______ _____ _____    ______ ____
ROOT
ATOM      1  C   UNL     1       1.613   7.938  20.199  0.00  0.00    +0.000 C 
ATOM      2  O   UNL     1       2.232   8.307  19.203  0.00  0.00    +0.000 OA
ATOM      3  N   UNL     1       1.671   6.696  20.801  0.00  0.00    +0.000 N 
ATOM      4  C   UNL     1       2.485   5.725  20.290  0.00  0.00    +0.000 A 
ATOM      5  N   UNL     1       3.408   5.863  19.384  0.00  0.00    +0.000 NA
ATOM      6  C   UNL     1       3.930   4.635  19.039  0.00  0.00    +0.000 A 
ATOM      7  C   UNL     1       3.396   3.570  19.743  0.00  0.00    +0.000 A 
ATOM      8  S   UNL     1       2.238   4.149  20.884  0.00  0.00    +0.000 S 
ATOM      9  H   UNL     1       1.004   6.425  21.508  0.00  0.00    +0.000 HD
ENDROOT
BRANCH   6  10
ATOM     10  C   UNL     1       4.933   4.552  17.985  0.00  0.00    +0.000 A 
ATOM     11  C   UNL     1       6.300   4.717  18.230  0.00  0.00    +0.000 A 
ATOM     12  C   UNL     1       7.217   4.660  17.176  0.00  0.00    +0.000 A 
ATOM     13  C   UNL     1       6.777   4.435  15.871  0.00  0.00    +0.000 A 
ATOM     14  C   UNL     1       5.419   4.269  15.614  0.00  0.00    +0.000 A 
ATOM     15  C   UNL     1       4.504   4.331  16.664  0.00  0.00    +0.000 A 
ENDBRANCH   6  10
BRANCH   1  16
ATOM     16  C   UNL     1       0.638   8.879  20.869  0.00  0.00    +0.000 C 
BRANCH  16  21
ATOM     17  C   UNL     1      -1.019  11.336  18.496  0.00  0.00    +0.000 A 
ATOM     18  C   UNL     1      -0.306  12.509  18.739  0.00  0.00    +0.000 A 
ATOM     19  C   UNL     1       0.716  12.526  19.689  0.00  0.00    +0.000 A 
ATOM     20  C   UNL     1       1.043  11.362  20.389  0.00  0.00    +0.000 A 
ATOM     21  C   UNL     1       0.370  10.163  20.121  0.00  0.00    +0.000 A 
ATOM     22  C   UNL     1      -0.667  10.168  19.174  0.00  0.00    +0.000 A 
BRANCH  17  23
ATOM     23  O   UNL     1      -2.012  11.415  17.557  0.00  0.00    +0.000 OA
BRANCH  23  25
ATOM     24  C   UNL     1      -2.775   9.807  15.958  0.00  0.00    +0.000 C 
ATOM     25  C   UNL     1      -2.802  10.230  17.414  0.00  0.00    +0.000 C 
ENDBRANCH  23  25
ENDBRANCH  17  23
ENDBRANCH  16  21
ENDBRANCH   1  16
TORSDOF 5
ENDMDL
MODEL 6
REMARK VINA RESULT:      -7.5      3.230      5.258
REMARK  Name = 
REMARK  6 active torsions:
REMARK  status: ('A' for Active; 'I' for Inactive)
REMARK    1  A    between atoms: C_1  and  C_2
REMARK    2  A    between atoms: C_2  and  O_3
REMARK    3  A    between atoms: O_3  and  C_4
REMARK    4  A    between atoms: C_8  and  C_9
REMARK    5  A    between atoms: C_9  and  C_10
REMARK    6  A    between atoms: C_15  and  C_16
REMARK                            x       y       z     vdW  Elec       q    Type
REMARK                         _______ _______ _______ _____ _____    ______ ____
ROOT
ATOM      1  C   UNL     1       6.060   5.338  16.567  0.00  0.00    +0.000 C 
ATOM      2  O   UNL     1       6.038   6.565  16.484  0.00  0.00    +0.000 OA
ATOM      3  N   UNL     1       5.163   4.534  17.244  0.00  0.00    +0.000 N 
ATOM      4  C   UNL     1       4.112   5.094  17.912  0.00  0.00    +0.000 A 
ATOM      5  N   UNL     1       3.697   6.326  17.845  0.00  0.00    +0.000 NA
ATOM      6  C   UNL     1       2.688   6.543  18.759  0.00  0.00    +0.000 A 
ATOM      7  C   UNL     1       2.331   5.425  19.491  0.00  0.00    +0.000 A 
ATOM      8  S   UNL     1       3.270   4.071  18.981  0.00  0.00    +0.000 S 
ATOM      9  H   UNL     1       5.353   3.556  17.403  0.00  0.00    +0.000 HD
ENDROOT
BRANCH   6  10
ATOM     10  C   UNL     1       2.126   7.880  18.901  0.00  0.00    +0.000 A 
ATOM     11  C   UNL     1       1.552   8.335  20.093  0.00  0.00    +0.000 A 
ATOM     12  C   UNL     1       0.998   9.616  20.165  0.00  0.00    +0.000 A 
ATOM     13  C   UNL     1       1.013  10.454  19.049  0.00  0.00    +0.000 A 
ATOM     14  C   UNL     1       1.582  10.014  17.857  0.00  0.00    +0.000 A 
ATOM     15  C   UNL     1       2.130   8.734  17.784  0.00  0.00    +0.000 A 
ENDBRANCH   6  10
BRANCH   1  16
ATOM     16  C   UNL     1       7.180   4.562  15.915  0.00  0.00    +0.000 C 
BRANCH  16  21
ATOM     17  C   UNL     1       6.094   3.661  12.391  0.00  0.00    +0.000 A 
ATOM     18  C   UNL     1       6.915   4.474  11.610  0.00  0.00    +0.000 A 
ATOM     19  C   UNL     1       7.826   5.340  12.217  0.00  0.00    +0.000 A 
ATOM     20  C   UNL     1       7.933   5.384  13.609  0.00  0.00    +0.000 A 
ATOM     21  C   UNL     1       7.151   4.538  14.405  0.00  0.00    +0.000 A 
ATOM     22  C   UNL     1       6.228   3.684  13.779  0.00  0.00    +0.000 A 
BRANCH  17  23
ATOM     23  O   UNL     1       5.223   2.852  11.712  0.00  0.00    +0.000 OA
BRANCH  23  25
ATOM     24  C   UNL     1       3.537   3.678  10.229  0.00  0.00    +0.000 C 
ATOM     25  C   UNL     1       3.873   3.324  11.665  0.00  0.00    +0.000 C 
ENDBRANCH  23  25
ENDBRANCH  17  23
ENDBRANCH  16  21
ENDBRANCH   1  16
TORSDOF 5
ENDMDL
MODEL 7
REMARK VINA RESULT:      -7.4      1.295      2.156
REMARK  Name = 
REMARK  6 active torsions:
REMARK  status: ('A' for Active; 'I' for Inactive)
REMARK    1  A    between atoms: C_1  and  C_2
REMARK    2  A    between atoms: C_2  and  O_3
REMARK    3  A    between atoms: O_3  and  C_4
REMARK    4  A    between atoms: C_8  and  C_9
REMARK    5  A    between atoms: C_9  and  C_10
REMARK    6  A    between atoms: C_15  and  C_16
REMARK                            x       y       z     vdW  Elec       q    Type
REMARK                         _______ _______ _______ _____ _____    ______ ____
ROOT
ATOM      1  C   UNL     1       2.820   5.528  19.773  0.00  0.00    +0.000 C 
ATOM      2  O   UNL     1       2.175   5.524  20.819  0.00  0.00    +0.000 OA
ATOM      3  N   UNL     1       2.927   6.564  18.866  0.00  0.00    +0.000 N 
ATOM      4  C   UNL     1       2.277   7.744  19.095  0.00  0.00    +0.000 A 
ATOM      5  N   UNL     1       1.693   8.125  20.193  0.00  0.00    +0.000 NA
ATOM      6  C   UNL     1       1.041   9.324  19.999  0.00  0.00    +0.000 A 
ATOM      7  C   UNL     1       1.184   9.852  18.729  0.00  0.00    +0.000 A 
ATOM      8  S   UNL     1       2.193   8.822  17.780  0.00  0.00    +0.000 S 
ATOM      9  H   UNL     1       3.334   6.422  17.953  0.00  0.00    +0.000 HD
ENDROOT
BRANCH   6  10
ATOM     10  C   UNL     1       0.259   9.899  21.086  0.00  0.00    +0.000 A 
ATOM     11  C   UNL     1       0.076   9.247  22.311  0.00  0.00    +0.000 A 
ATOM     12  C   UNL     1      -0.710   9.831  23.309  0.00  0.00    +0.000 A 
ATOM     13  C   UNL     1      -1.319  11.068  23.093  0.00  0.00    +0.000 A 
ATOM     14  C   UNL     1      -1.144  11.727  21.879  0.00  0.00    +0.000 A 
ATOM     15  C   UNL     1      -0.364  11.143  20.882  0.00  0.00    +0.000 A 
ENDBRANCH   6  10
BRANCH   1  16
ATOM     16  C   UNL     1       3.570   4.286  19.348  0.00  0.00    +0.000 C 
BRANCH  16  21
ATOM     17  C   UNL     1       5.508   4.682  16.109  0.00  0.00    +0.000 A 
ATOM     18  C   UNL     1       6.774   5.050  16.564  0.00  0.00    +0.000 A 
ATOM     19  C   UNL     1       7.015   5.190  17.931  0.00  0.00    +0.000 A 
ATOM     20  C   UNL     1       5.995   4.945  18.853  0.00  0.00    +0.000 A 
ATOM     21  C   UNL     1       4.732   4.526  18.414  0.00  0.00    +0.000 A 
ATOM     22  C   UNL     1       4.502   4.406  17.034  0.00  0.00    +0.000 A 
BRANCH  17  23
ATOM     23  O   UNL     1       5.359   4.581  14.752  0.00  0.00    +0.000 OA
BRANCH  23  25
ATOM     24  C   UNL     1       6.836   4.429  12.875  0.00  0.00    +0.000 C 
ATOM     25  C   UNL     1       6.300   3.720  14.104  0.00  0.00    +0.000 C 
ENDBRANCH  23  25
ENDBRANCH  17  23
ENDBRANCH  16  21
ENDBRANCH   1  16
TORSDOF 5
ENDMDL
MODEL 8
REMARK VINA RESULT:      -7.4      2.689      8.485
REMARK  Name = 
REMARK  6 active torsions:
REMARK  status: ('A' for Active; 'I' for Inactive)
REMARK    1  A    between atoms: C_1  and  C_2
REMARK    2  A    between atoms: C_2  and  O_3
REMARK    3  A    between atoms: O_3  and  C_4
REMARK    4  A    between atoms: C_8  and  C_9
REMARK    5  A    between atoms: C_9  and  C_10
REMARK    6  A    between atoms: C_15  and  C_16
REMARK                            x       y       z     vdW  Elec       q    Type
REMARK                         _______ _______ _______ _____ _____    ______ ____
ROOT
ATOM      1  C   UNL     1       1.508   8.125  20.461  0.00  0.00    +0.000 C 
ATOM      2  O   UNL     1       1.968   8.578  19.415  0.00  0.00    +0.000 OA
ATOM      3  N   UNL     1       1.616   6.828  20.924  0.00  0.00    +0.000 N 
ATOM      4  C   UNL     1       2.297   5.895  20.194  0.00  0.00    +0.000 A 
ATOM      5  N   UNL     1       3.063   6.103  19.163  0.00  0.00    +0.000 NA
ATOM      6  C   UNL     1       3.473   4.904  18.620  0.00  0.00    +0.000 A 
ATOM      7  C   UNL     1       3.021   3.787  19.299  0.00  0.00    +0.000 A 
ATOM      8  S   UNL     1       2.090   4.274  20.667  0.00  0.00    +0.000 S 
ATOM      9  H   UNL     1       1.064   6.502  21.704  0.00  0.00    +0.000 HD
ENDROOT
BRANCH   6  10
ATOM     10  C   UNL     1       4.285   4.905  17.410  0.00  0.00    +0.000 A 
ATOM     11  C   UNL     1       4.827   3.737  16.864  0.00  0.00    +0.000 A 
ATOM     12  C   UNL     1       5.626   3.800  15.718  0.00  0.00    +0.000 A 
ATOM     13  C   UNL     1       5.889   5.027  15.108  0.00  0.00    +0.000 A 
ATOM     14  C   UNL     1       5.355   6.197  15.642  0.00  0.00    +0.000 A 
ATOM     15  C   UNL     1       4.562   6.135  16.787  0.00  0.00    +0.000 A 
ENDBRANCH   6  10
BRANCH   1  16
ATOM     16  C   UNL     1       0.693   9.015  21.371  0.00  0.00    +0.000 C 
BRANCH  16  21
ATOM     17  C   UNL     1      -1.441  11.153  19.073  0.00  0.00    +0.000 A 
ATOM     18  C   UNL     1      -1.115  12.445  19.482  0.00  0.00    +0.000 A 
ATOM     19  C   UNL     1      -0.206  12.644  20.522  0.00  0.00    +0.000 A 
ATOM     20  C   UNL     1       0.396  11.549  21.147  0.00  0.00    +0.000 A 
ATOM     21  C   UNL     1       0.116  10.247  20.715  0.00  0.00    +0.000 A 
ATOM     22  C   UNL     1      -0.813  10.064  19.677  0.00  0.00    +0.000 A 
BRANCH  17  23
ATOM     23  O   UNL     1      -2.351  11.053  18.054  0.00  0.00    +0.000 OA
BRANCH  23  25
ATOM     24  C   UNL     1      -2.695  10.419  15.773  0.00  0.00    +0.000 C 
ATOM     25  C   UNL     1      -2.076  10.023  17.100  0.00  0.00    +0.000 C 
ENDBRANCH  23  25
ENDBRANCH  17  23
ENDBRANCH  16  21
ENDBRANCH   1  16
TORSDOF 5
ENDMDL
MODEL 9
REMARK VINA RESULT:      -7.4      2.814      8.610
REMARK  Name = 
REMARK  6 active torsions:
REMARK  status: ('A' for Active; 'I' for Inactive)
REMARK    1  A    between atoms: C_1  and  C_2
REMARK    2  A    between atoms: C_2  and  O_3
REMARK    3  A    between atoms: O_3  and  C_4
REMARK    4  A    between atoms: C_8  and  C_9
REMARK    5  A    between atoms: C_9  and  C_10
REMARK    6  A    between atoms: C_15  and  C_16
REMARK                            x       y       z     vdW  Elec       q    Type
REMARK                         _______ _______ _______ _____ _____    ______ ____
ROOT
ATOM      1  C   UNL     1       1.381   8.401  20.242  0.00  0.00    +0.000 C 
ATOM      2  O   UNL     1       1.799   8.790  19.154  0.00  0.00    +0.000 OA
ATOM      3  N   UNL     1       1.580   7.159  20.815  0.00  0.00    +0.000 N 
ATOM      4  C   UNL     1       2.316   6.214  20.159  0.00  0.00    +0.000 A 
ATOM      5  N   UNL     1       3.058   6.381  19.102  0.00  0.00    +0.000 NA
ATOM      6  C   UNL     1       3.544   5.169  18.661  0.00  0.00    +0.000 A 
ATOM      7  C   UNL     1       3.175   4.088  19.440  0.00  0.00    +0.000 A 
ATOM      8  S   UNL     1       2.224   4.630  20.775  0.00  0.00    +0.000 S 
ATOM      9  H   UNL     1       1.059   6.867  21.628  0.00  0.00    +0.000 HD
ENDROOT
BRANCH   6  10
ATOM     10  C   UNL     1       4.343   5.118  17.443  0.00  0.00    +0.000 A 
ATOM     11  C   UNL     1       4.654   6.259  16.696  0.00  0.00    +0.000 A 
ATOM     12  C   UNL     1       5.399   6.149  15.518  0.00  0.00    +0.000 A 
ATOM     13  C   UNL     1       5.839   4.901  15.077  0.00  0.00    +0.000 A 
ATOM     14  C   UNL     1       5.537   3.757  15.811  0.00  0.00    +0.000 A 
ATOM     15  C   UNL     1       4.790   3.866  16.984  0.00  0.00    +0.000 A 
ENDBRANCH   6  10
BRANCH   1  16
ATOM     16  C   UNL     1       0.515   9.311  21.083  0.00  0.00    +0.000 C 
BRANCH  16  21
ATOM     17  C   UNL     1      -1.545  11.404  18.678  0.00  0.00    +0.000 A 
ATOM     18  C   UNL     1      -1.178  12.703  19.027  0.00  0.00    +0.000 A 
ATOM     19  C   UNL     1      -0.266  12.922  20.059  0.00  0.00    +0.000 A 
ATOM     20  C   UNL     1       0.300  11.840  20.738  0.00  0.00    +0.000 A 
ATOM     21  C   UNL     1      -0.021  10.528  20.367  0.00  0.00    +0.000 A 
ATOM     22  C   UNL     1      -0.953  10.326  19.336  0.00  0.00    +0.000 A 
BRANCH  17  23
ATOM     23  O   UNL     1      -2.455  11.284  17.662  0.00  0.00    +0.000 OA
BRANCH  23  25
ATOM     24  C   UNL     1      -2.857   9.930  15.732  0.00  0.00    +0.000 C 
ATOM     25  C   UNL     1      -2.716   9.942  17.242  0.00  0.00    +0.000 C 
ENDBRANCH  23  25
ENDBRANCH  17  23
ENDBRANCH  16  21
ENDBRANCH   1  16
TORSDOF 5
ENDMDL
