MODEL 1
REMARK VINA RESULT:      -8.5      0.000      0.000
REMARK  Name = 
REMARK  5 active torsions:
REMARK  status: ('A' for Active; 'I' for Inactive)
REMARK    1  A    between atoms: C_1  and  C_2
REMARK    2  A    between atoms: C_5  and  N_6
REMARK    3  A    between atoms: N_6  and  C_7
REMARK    4  A    between atoms: C_9  and  C_10
REMARK    5  A    between atoms: C_15  and  C_16
REMARK                            x       y       z     vdW  Elec       q    Type
REMARK                         _______ _______ _______ _____ _____    ______ ____
ROOT
ATOM      1  C   UNL     1       5.531   3.933  16.292  0.00  0.00    +0.000 C 
ATOM      2  C   UNL     1       6.531   4.523  17.300  0.00  0.00    +0.000 C 
ATOM      3  C   UNL     1       6.876   5.945  16.872  0.00  0.00    +0.000 C 
ATOM      4  C   UNL     1       7.756   6.633  17.913  0.00  0.00    +0.000 C 
ATOM      5  N   UNL     1       7.596   5.899  15.600  0.00  0.00    +0.000 N 
ATOM      6  C   UNL     1       7.016   5.107  14.594  0.00  0.00    +0.000 A 
ATOM      7  C   UNL     1       7.527   5.196  13.295  0.00  0.00    +0.000 A 
ATOM      8  C   UNL     1       7.089   4.336  12.284  0.00  0.00    +0.000 A 
ATOM      9  C   UNL     1       6.136   3.353  12.558  0.00  0.00    +0.000 A 
ATOM     10  C   UNL     1       5.711   2.377  11.502  0.00  0.00    +0.000 C 
ATOM     11  C   UNL     1       5.622   3.251  13.857  0.00  0.00    +0.000 A 
ATOM     12  C   UNL     1       6.067   4.108  14.881  0.00  0.00    +0.000 A 
ATOM     13  H   UNL     1       7.879   6.811  15.252  0.00  0.00    +0.000 HD
ENDROOT
BRANCH   1  14
ATOM     14  N   UNL     1       4.221   4.593  16.403  0.00  0.00    +0.000 N 
ATOM     15  H   UNL     1       3.772   4.774  15.509  0.00  0.00    +0.000 HD
BRANCH  14  20
ATOM     16  C   UNL     1       0.935   3.075  20.818  0.00  0.00    +0.000 C 
ATOM     17  C   UNL     1       1.696   3.487  19.593  0.00  0.00    +0.000 A 
ATOM     18  C   UNL     1       2.069   4.818  19.394  0.00  0.00    +0.000 A 
ATOM     19  C   UNL     1       2.858   5.171  18.291  0.00  0.00    +0.000 A 
ATOM     20  C   UNL     1       3.309   4.206  17.388  0.00  0.00    +0.000 A 
ATOM     21  C   UNL     1       2.825   2.904  17.528  0.00  0.00    +0.000 A 
ATOM     22  C   UNL     1       2.028   2.543  18.619  0.00  0.00    +0.000 A 
ENDBRANCH  14  20
ENDBRANCH   1  14
TORSDOF 2
ENDMDL
MODEL 2
REMARK VINA RESULT:      -8.2      3.564      5.408
REMARK  Name = 
REMARK  5 active torsions:
REMARK  status: ('A' for Active; 'I' for Inactive)
REMARK    1  A    between atoms: C_1  and  C_2
REMARK    2  A    between atoms: C_5  and  N_6
REMARK    3  A    between atoms: N_6  and  C_7
REMARK    4  A    between atoms: C_9  and  C_10
REMARK    5  A    between atoms: C_15  and  C_16
REMARK                            x       y       z     vdW  Elec       q    Type
REMARK                         _______ _______ _______ _____ _____    ______ ____
ROOT
ATOM      1  C   UNL     1       3.550   5.595  17.799  0.00  0.00    +0.000 C 
ATOM      2  C   UNL     1       3.161   4.131  17.533  0.00  0.00    +0.000 C 
ATOM      3  C   UNL     1       3.787   3.255  18.613  0.00  0.00    +0.000 C 
ATOM      4  C   UNL     1       3.320   1.807  18.482  0.00  0.00    +0.000 C 
ATOM      5  N   UNL     1       5.242   3.296  18.476  0.00  0.00    +0.000 N 
ATOM      6  C   UNL     1       5.812   4.575  18.354  0.00  0.00    +0.000 A 
ATOM      7  C   UNL     1       7.203   4.700  18.445  0.00  0.00    +0.000 A 
ATOM      8  C   UNL     1       7.838   5.918  18.194  0.00  0.00    +0.000 A 
ATOM      9  C   UNL     1       7.092   7.041  17.829  0.00  0.00    +0.000 A 
ATOM     10  C   UNL     1       7.767   8.336  17.486  0.00  0.00    +0.000 C 
ATOM     11  C   UNL     1       5.700   6.927  17.730  0.00  0.00    +0.000 A 
ATOM     12  C   UNL     1       5.055   5.698  17.972  0.00  0.00    +0.000 A 
ATOM     13  H   UNL     1       5.737   2.721  19.152  0.00  0.00    +0.000 HD
ENDROOT
BRANCH   1  14
ATOM     14  N   UNL     1       2.882   6.105  19.008  0.00  0.00    +0.000 N 
ATOM     15  H   UNL     1       3.376   5.896  19.871  0.00  0.00    +0.000 HD
BRANCH  14  20
ATOM     16  C   UNL     1      -0.007  11.028  19.115  0.00  0.00    +0.000 C 
ATOM     17  C   UNL     1       0.854   9.799  19.105  0.00  0.00    +0.000 A 
ATOM     18  C   UNL     1       1.045   9.048  20.267  0.00  0.00    +0.000 A 
ATOM     19  C   UNL     1       1.776   7.853  20.221  0.00  0.00    +0.000 A 
ATOM     20  C   UNL     1       2.303   7.375  19.019  0.00  0.00    +0.000 A 
ATOM     21  C   UNL     1       2.213   8.198  17.894  0.00  0.00    +0.000 A 
ATOM     22  C   UNL     1       1.495   9.397  17.932  0.00  0.00    +0.000 A 
ENDBRANCH  14  20
ENDBRANCH   1  14
TORSDOF 2
ENDMDL
MODEL 3
REMARK VINA RESULT:      -8.2      0.252      1.080
REMARK  Name = 
REMARK  5 active torsions:
REMARK  status: ('A' for Active; 'I' for Inactive)
REMARK    1  A    between atoms: C_1  and  C_2
REMARK    2  A    between atoms: C_5  and  N_6
REMARK    3  A    between atoms: N_6  and  C_7
REMARK    4  A    between atoms: C_9  and  C_10
REMARK    5  A    between atoms: C_15  and  C_16
REMARK                            x       y       z     vdW  Elec       q    Type
REMARK                         _______ _______ _______ _____ _____    ______ ____
ROOT
ATOM      1  C   UNL     1       5.665   3.815  16.227  0.00  0.00    +0.000 C 
ATOM      2  C   UNL     1       6.639   4.443  17.238  0.00  0.00    +0.000 C 
ATOM      3  C   UNL     1       6.895   5.892  16.835  0.00  0.00    +0.000 C 
ATOM      4  C   UNL     1       7.744   6.609  17.882  0.00  0.00    +0.000 C 
ATOM      5  N   UNL     1       7.603   5.914  15.556  0.00  0.00    +0.000 N 
ATOM      6  C   UNL     1       7.059   5.109  14.539  0.00  0.00    +0.000 A 
ATOM      7  C   UNL     1       7.550   5.254  13.237  0.00  0.00    +0.000 A 
ATOM      8  C   UNL     1       7.152   4.390  12.213  0.00  0.00    +0.000 A 
ATOM      9  C   UNL     1       6.262   3.347  12.476  0.00  0.00    +0.000 A 
ATOM     10  C   UNL     1       5.884   2.369  11.405  0.00  0.00    +0.000 C 
ATOM     11  C   UNL     1       5.769   3.189  13.778  0.00  0.00    +0.000 A 
ATOM     12  C   UNL     1       6.175   4.051  14.815  0.00  0.00    +0.000 A 
ATOM     13  H   UNL     1       7.827   6.848  15.224  0.00  0.00    +0.000 HD
ENDROOT
BRANCH   1  14
ATOM     14  N   UNL     1       4.319   4.395  16.365  0.00  0.00    +0.000 N 
ATOM     15  H   UNL     1       3.767   4.365  15.512  0.00  0.00    +0.000 HD
BRANCH  14  20
ATOM     16  C   UNL     1       0.772   3.154  20.662  0.00  0.00    +0.000 C 
ATOM     17  C   UNL     1       1.791   3.497  19.616  0.00  0.00    +0.000 A 
ATOM     18  C   UNL     1       2.517   2.496  18.967  0.00  0.00    +0.000 A 
ATOM     19  C   UNL     1       3.398   2.826  17.929  0.00  0.00    +0.000 A 
ATOM     20  C   UNL     1       3.551   4.148  17.505  0.00  0.00    +0.000 A 
ATOM     21  C   UNL     1       2.918   5.149  18.245  0.00  0.00    +0.000 A 
ATOM     22  C   UNL     1       2.044   4.830  19.289  0.00  0.00    +0.000 A 
ENDBRANCH  14  20
ENDBRANCH   1  14
TORSDOF 2
ENDMDL
MODEL 4
REMARK VINA RESULT:      -8.1      3.571      5.464
REMARK  Name = 
REMARK  5 active torsions:
REMARK  status: ('A' for Active; 'I' for Inactive)
REMARK    1  A    between atoms: C_1  and  C_2
REMARK    2  A    between atoms: C_5  and  N_6
REMARK    3  A    between atoms: N_6  and  C_7
REMARK    4  A    between atoms: C_9  and  C_10
REMARK    5  A    between atoms: C_15  and  C_16
REMARK                            x       y       z     vdW  Elec       q    Type
REMARK                         _______ _______ _______ _____ _____    ______ ____
ROOT
ATOM      1  C   UNL     1       3.588   5.652  17.872  0.00  0.00    +0.000 C 
ATOM      2  C   UNL     1       3.169   4.200  17.592  0.00  0.00    +0.000 C 
ATOM      3  C   UNL     1       3.809   3.296  18.641  0.00  0.00    +0.000 C 
ATOM      4  C   UNL     1       3.315   1.858  18.499  0.00  0.00    +0.000 C 
ATOM      5  N   UNL     1       5.261   3.316  18.467  0.00  0.00    +0.000 N 
ATOM      6  C   UNL     1       5.847   4.589  18.352  0.00  0.00    +0.000 A 
ATOM      7  C   UNL     1       7.242   4.690  18.409  0.00  0.00    +0.000 A 
ATOM      8  C   UNL     1       7.890   5.903  18.162  0.00  0.00    +0.000 A 
ATOM      9  C   UNL     1       7.153   7.043  17.835  0.00  0.00    +0.000 A 
ATOM     10  C   UNL     1       7.839   8.332  17.496  0.00  0.00    +0.000 C 
ATOM     11  C   UNL     1       5.757   6.952  17.770  0.00  0.00    +0.000 A 
ATOM     12  C   UNL     1       5.099   5.729  18.008  0.00  0.00    +0.000 A 
ATOM     13  H   UNL     1       5.764   2.722  19.121  0.00  0.00    +0.000 HD
ENDROOT
BRANCH   1  14
ATOM     14  N   UNL     1       2.959   6.152  19.106  0.00  0.00    +0.000 N 
ATOM     15  H   UNL     1       3.531   6.032  19.938  0.00  0.00    +0.000 HD
BRANCH  14  20
ATOM     16  C   UNL     1       0.624  11.361  19.065  0.00  0.00    +0.000 C 
ATOM     17  C   UNL     1       1.126   9.947  19.057  0.00  0.00    +0.000 A 
ATOM     18  C   UNL     1       1.626   9.371  17.887  0.00  0.00    +0.000 A 
ATOM     19  C   UNL     1       2.176   8.082  17.917  0.00  0.00    +0.000 A 
ATOM     20  C   UNL     1       2.260   7.361  19.110  0.00  0.00    +0.000 A 
ATOM     21  C   UNL     1       1.643   7.896  20.242  0.00  0.00    +0.000 A 
ATOM     22  C   UNL     1       1.083   9.178  20.220  0.00  0.00    +0.000 A 
ENDBRANCH  14  20
ENDBRANCH   1  14
TORSDOF 2
ENDMDL
MODEL 5
REMARK VINA RESULT:      -8.0      2.762      5.816
REMARK  Name = 
REMARK  5 active torsions:
REMARK  status: ('A' for Active; 'I' for Inactive)
REMARK    1  A    between atoms: C_1  and  C_2
REMARK    2  A    between atoms: C_5  and  N_6
REMARK    3  A    between atoms: N_6  and  C_7
REMARK    4  A    between atoms: C_9  and  C_10
REMARK    5  A    between atoms: C_15  and  C_16
REMARK                            x       y       z     vdW  Elec       q    Type
REMARK                         _______ _______ _______ _____ _____    ______ ____
ROOT
ATOM      1  C   UNL     1       4.116   5.755  18.530  0.00  0.00    +0.000 C 
ATOM      2  C   UNL     1       5.432   5.652  17.741  0.00  0.00    +0.000 C 
ATOM      3  C   UNL     1       5.196   4.792  16.504  0.00  0.00    +0.000 C 
ATOM      4  C   UNL     1       6.432   4.771  15.608  0.00  0.00    +0.000 C 
ATOM      5  N   UNL     1       4.894   3.424  16.925  0.00  0.00    +0.000 N 
ATOM      6  C   UNL     1       3.917   3.292  17.927  0.00  0.00    +0.000 A 
ATOM      7  C   UNL     1       3.423   2.015  18.215  0.00  0.00    +0.000 A 
ATOM      8  C   UNL     1       2.558   1.799  19.291  0.00  0.00    +0.000 A 
ATOM      9  C   UNL     1       2.180   2.860  20.116  0.00  0.00    +0.000 A 
ATOM     10  C   UNL     1       1.312   2.630  21.317  0.00  0.00    +0.000 C 
ATOM     11  C   UNL     1       2.674   4.142  19.841  0.00  0.00    +0.000 A 
ATOM     12  C   UNL     1       3.554   4.363  18.764  0.00  0.00    +0.000 A 
ATOM     13  H   UNL     1       4.739   2.780  16.154  0.00  0.00    +0.000 HD
ENDROOT
BRANCH   1  14
ATOM     14  N   UNL     1       3.128   6.565  17.799  0.00  0.00    +0.000 N 
ATOM     15  H   UNL     1       2.505   6.022  17.208  0.00  0.00    +0.000 HD
BRANCH  14  20
ATOM     16  C   UNL     1      -0.021  10.565  20.382  0.00  0.00    +0.000 C 
ATOM     17  C   UNL     1       0.905   9.580  19.732  0.00  0.00    +0.000 A 
ATOM     18  C   UNL     1       1.374   8.466  20.432  0.00  0.00    +0.000 A 
ATOM     19  C   UNL     1       2.163   7.507  19.783  0.00  0.00    +0.000 A 
ATOM     20  C   UNL     1       2.475   7.628  18.427  0.00  0.00    +0.000 A 
ATOM     21  C   UNL     1       2.109   8.807  17.774  0.00  0.00    +0.000 A 
ATOM     22  C   UNL     1       1.329   9.774  18.416  0.00  0.00    +0.000 A 
ENDBRANCH  14  20
ENDBRANCH   1  14
TORSDOF 2
ENDMDL
MODEL 6
REMARK VINA RESULT:      -7.9      2.693      5.711
REMARK  Name = 
REMARK  5 active torsions:
REMARK  status: ('A' for Active; 'I' for Inactive)
REMARK    1  A    between atoms: C_1  and  C_2
REMARK    2  A    between atoms: C_5  and  N_6
REMARK    3  A    between atoms: N_6  and  C_7
REMARK    4  A    between atoms: C_9  and  C_10
REMARK    5  A    between atoms: C_15  and  C_16
REMARK                            x       y       z     vdW  Elec       q    Type
REMARK                         _______ _______ _______ _____ _____    ______ ____
ROOT
ATOM      1  C   UNL     1       4.307   5.721  18.586  0.00  0.00    +0.000 C 
ATOM      2  C   UNL     1       5.650   5.571  17.852  0.00  0.00    +0.000 C 
ATOM      3  C   UNL     1       5.429   4.740  16.592  0.00  0.00    +0.000 C 
ATOM      4  C   UNL     1       6.700   4.676  15.749  0.00  0.00    +0.000 C 
ATOM      5  N   UNL     1       5.048   3.382  16.977  0.00  0.00    +0.000 N 
ATOM      6  C   UNL     1       4.025   3.279  17.935  0.00  0.00    +0.000 A 
ATOM      7  C   UNL     1       3.462   2.022  18.180  0.00  0.00    +0.000 A 
ATOM      8  C   UNL     1       2.543   1.829  19.215  0.00  0.00    +0.000 A 
ATOM      9  C   UNL     1       2.178   2.894  20.041  0.00  0.00    +0.000 A 
ATOM     10  C   UNL     1       1.250   2.686  21.200  0.00  0.00    +0.000 C 
ATOM     11  C   UNL     1       2.740   4.156  19.808  0.00  0.00    +0.000 A 
ATOM     12  C   UNL     1       3.674   4.353  18.774  0.00  0.00    +0.000 A 
ATOM     13  H   UNL     1       4.898   2.756  16.190  0.00  0.00    +0.000 HD
ENDROOT
BRANCH   1  14
ATOM     14  N   UNL     1       3.389   6.586  17.828  0.00  0.00    +0.000 N 
ATOM     15  H   UNL     1       2.937   6.122  17.044  0.00  0.00    +0.000 HD
BRANCH  14  20
ATOM     16  C   UNL     1       0.315  10.596  20.486  0.00  0.00    +0.000 C 
ATOM     17  C   UNL     1       1.020   9.478  19.775  0.00  0.00    +0.000 A 
ATOM     18  C   UNL     1       1.228   9.524  18.395  0.00  0.00    +0.000 A 
ATOM     19  C   UNL     1       1.968   8.518  17.761  0.00  0.00    +0.000 A 
ATOM     20  C   UNL     1       2.532   7.468  18.490  0.00  0.00    +0.000 A 
ATOM     21  C   UNL     1       2.209   7.366  19.845  0.00  0.00    +0.000 A 
ATOM     22  C   UNL     1       1.463   8.361  20.485  0.00  0.00    +0.000 A 
ENDBRANCH  14  20
ENDBRANCH   1  14
TORSDOF 2
ENDMDL
MODEL 7
REMARK VINA RESULT:      -7.8      3.643      6.197
REMARK  Name = 
REMARK  5 active torsions:
REMARK  status: ('A' for Active; 'I' for Inactive)
REMARK    1  A    between atoms: C_1  and  C_2
REMARK    2  A    between atoms: C_5  and  N_6
REMARK    3  A    between atoms: N_6  and  C_7
REMARK    4  A    between atoms: C_9  and  C_10
REMARK    5  A    between atoms: C_15  and  C_16
REMARK                            x       y       z     vdW  Elec       q    Type
REMARK                         _______ _______ _______ _____ _____    ______ ____
ROOT
ATOM      1  C   UNL     1       1.873   5.672  19.576  0.00  0.00    +0.000 C 
ATOM      2  C   UNL     1       1.251   4.439  20.252  0.00  0.00    +0.000 C 
ATOM      3  C   UNL     1       2.323   3.745  21.085  0.00  0.00    +0.000 C 
ATOM      4  C   UNL     1       1.729   2.594  21.893  0.00  0.00    +0.000 C 
ATOM      5  N   UNL     1       3.352   3.214  20.192  0.00  0.00    +0.000 N 
ATOM      6  C   UNL     1       3.846   4.107  19.225  0.00  0.00    +0.000 A 
ATOM      7  C   UNL     1       4.979   3.739  18.492  0.00  0.00    +0.000 A 
ATOM      8  C   UNL     1       5.435   4.516  17.424  0.00  0.00    +0.000 A 
ATOM      9  C   UNL     1       4.752   5.677  17.055  0.00  0.00    +0.000 A 
ATOM     10  C   UNL     1       5.187   6.482  15.867  0.00  0.00    +0.000 C 
ATOM     11  C   UNL     1       3.613   6.053  17.779  0.00  0.00    +0.000 A 
ATOM     12  C   UNL     1       3.144   5.267  18.850  0.00  0.00    +0.000 A 
ATOM     13  H   UNL     1       4.099   2.719  20.671  0.00  0.00    +0.000 HD
ENDROOT
BRANCH   1  14
ATOM     14  N   UNL     1       2.186   6.713  20.567  0.00  0.00    +0.000 N 
ATOM     15  H   UNL     1       3.168   6.753  20.828  0.00  0.00    +0.000 HD
BRANCH  14  20
ATOM     16  C   UNL     1      -0.701  11.629  20.264  0.00  0.00    +0.000 C 
ATOM     17  C   UNL     1       0.159  10.403  20.359  0.00  0.00    +0.000 A 
ATOM     18  C   UNL     1       0.328   9.739  21.576  0.00  0.00    +0.000 A 
ATOM     19  C   UNL     1       1.059   8.545  21.630  0.00  0.00    +0.000 A 
ATOM     20  C   UNL     1       1.608   7.981  20.476  0.00  0.00    +0.000 A 
ATOM     21  C   UNL     1       1.539   8.719  19.293  0.00  0.00    +0.000 A 
ATOM     22  C   UNL     1       0.820   9.917  19.230  0.00  0.00    +0.000 A 
ENDBRANCH  14  20
ENDBRANCH   1  14
TORSDOF 2
ENDMDL
MODEL 8
REMARK VINA RESULT:      -7.7      3.656      6.232
REMARK  Name = 
REMARK  5 active torsions:
REMARK  status: ('A' for Active; 'I' for Inactive)
REMARK    1  A    between atoms: C_1  and  C_2
REMARK    2  A    between atoms: C_5  and  N_6
REMARK    3  A    between atoms: N_6  and  C_7
REMARK    4  A    between atoms: C_9  and  C_10
REMARK    5  A    between atoms: C_15  and  C_16
REMARK                            x       y       z     vdW  Elec       q    Type
REMARK                         _______ _______ _______ _____ _____    ______ ____
ROOT
ATOM      1  C   UNL     1       1.910   5.698  19.545  0.00  0.00    +0.000 C 
ATOM      2  C   UNL     1       1.259   4.483  20.227  0.00  0.00    +0.000 C 
ATOM      3  C   UNL     1       2.317   3.759  21.053  0.00  0.00    +0.000 C 
ATOM      4  C   UNL     1       1.697   2.626  21.866  0.00  0.00    +0.000 C 
ATOM      5  N   UNL     1       3.324   3.199  20.152  0.00  0.00    +0.000 N 
ATOM      6  C   UNL     1       3.835   4.077  19.180  0.00  0.00    +0.000 A 
ATOM      7  C   UNL     1       4.952   3.676  18.438  0.00  0.00    +0.000 A 
ATOM      8  C   UNL     1       5.421   4.440  17.366  0.00  0.00    +0.000 A 
ATOM      9  C   UNL     1       4.769   5.620  17.003  0.00  0.00    +0.000 A 
ATOM     10  C   UNL     1       5.217   6.411  15.810  0.00  0.00    +0.000 C 
ATOM     11  C   UNL     1       3.647   6.028  17.735  0.00  0.00    +0.000 A 
ATOM     12  C   UNL     1       3.164   5.256  18.809  0.00  0.00    +0.000 A 
ATOM     13  H   UNL     1       4.060   2.683  20.625  0.00  0.00    +0.000 HD
ENDROOT
BRANCH   1  14
ATOM     14  N   UNL     1       2.261   6.730  20.534  0.00  0.00    +0.000 N 
ATOM     15  H   UNL     1       3.258   6.804  20.718  0.00  0.00    +0.000 HD
BRANCH  14  20
ATOM     16  C   UNL     1       0.214  12.057  20.385  0.00  0.00    +0.000 C 
ATOM     17  C   UNL     1       0.638  10.618  20.411  0.00  0.00    +0.000 A 
ATOM     18  C   UNL     1       1.063   9.975  19.246  0.00  0.00    +0.000 A 
ATOM     19  C   UNL     1       1.541   8.659  19.303  0.00  0.00    +0.000 A 
ATOM     20  C   UNL     1       1.629   7.975  20.518  0.00  0.00    +0.000 A 
ATOM     21  C   UNL     1       1.084   8.583  21.651  0.00  0.00    +0.000 A 
ATOM     22  C   UNL     1       0.594   9.892  21.602  0.00  0.00    +0.000 A 
ENDBRANCH  14  20
ENDBRANCH   1  14
TORSDOF 2
ENDMDL
MODEL 9
REMARK VINA RESULT:      -7.5      0.856      1.521
REMARK  Name = 
REMARK  5 active torsions:
REMARK  status: ('A' for Active; 'I' for Inactive)
REMARK    1  A    between atoms: C_1  and  C_2
REMARK    2  A    between atoms: C_5  and  N_6
REMARK    3  A    between atoms: N_6  and  C_7
REMARK    4  A    between atoms: C_9  and  C_10
REMARK    5  A    between atoms: C_15  and  C_16
REMARK                            x       y       z     vdW  Elec       q    Type
REMARK                         _______ _______ _______ _____ _____    ______ ____
ROOT
ATOM      1  C   UNL     1       5.463   3.959  16.181  0.00  0.00    +0.000 C 
ATOM      2  C   UNL     1       6.451   4.542  17.204  0.00  0.00    +0.000 C 
ATOM      3  C   UNL     1       6.850   5.944  16.757  0.00  0.00    +0.000 C 
ATOM      4  C   UNL     1       7.721   6.628  17.808  0.00  0.00    +0.000 C 
ATOM      5  N   UNL     1       7.603   5.851  15.507  0.00  0.00    +0.000 N 
ATOM      6  C   UNL     1       7.027   5.055  14.502  0.00  0.00    +0.000 A 
ATOM      7  C   UNL     1       7.577   5.101  13.215  0.00  0.00    +0.000 A 
ATOM      8  C   UNL     1       7.141   4.233  12.211  0.00  0.00    +0.000 A 
ATOM      9  C   UNL     1       6.153   3.284  12.478  0.00  0.00    +0.000 A 
ATOM     10  C   UNL     1       5.728   2.299  11.430  0.00  0.00    +0.000 C 
ATOM     11  C   UNL     1       5.600   3.225  13.764  0.00  0.00    +0.000 A 
ATOM     12  C   UNL     1       6.043   4.090  14.782  0.00  0.00    +0.000 A 
ATOM     13  H   UNL     1       7.922   6.747  15.148  0.00  0.00    +0.000 HD
ENDROOT
BRANCH   1  14
ATOM     14  N   UNL     1       4.170   4.660  16.242  0.00  0.00    +0.000 N 
ATOM     15  H   UNL     1       3.476   4.304  15.589  0.00  0.00    +0.000 HD
BRANCH  14  20
ATOM     16  C   UNL     1       1.360   5.969  21.035  0.00  0.00    +0.000 C 
ATOM     17  C   UNL     1       2.201   5.629  19.840  0.00  0.00    +0.000 A 
ATOM     18  C   UNL     1       2.416   4.300  19.469  0.00  0.00    +0.000 A 
ATOM     19  C   UNL     1       3.127   4.002  18.299  0.00  0.00    +0.000 A 
ATOM     20  C   UNL     1       3.611   5.017  17.470  0.00  0.00    +0.000 A 
ATOM     21  C   UNL     1       3.500   6.335  17.919  0.00  0.00    +0.000 A 
ATOM     22  C   UNL     1       2.800   6.642  19.090  0.00  0.00    +0.000 A 
ENDBRANCH  14  20
ENDBRANCH   1  14
TORSDOF 2
ENDMDL
