MODEL 1
REMARK VINA RESULT:      -7.9      0.000      0.000
REMARK  Name = 
REMARK  9 active torsions:
REMARK  status: ('A' for Active; 'I' for Inactive)
REMARK    1  A    between atoms: C_1  and  C_2
REMARK    2  A    between atoms: C_2  and  N_3
REMARK    3  A    between atoms: N_6  and  C_7
REMARK    4  A    between atoms: C_7  and  C_8
REMARK    5  A    between atoms: C_11  and  O_12
REMARK    6  A    between atoms: O_12  and  C_13
REMARK    7  A    between atoms: N_19  and  C_20
REMARK    8  A    between atoms: C_20  and  C_21
REMARK    9  A    between atoms: C_27  and  O_28
REMARK                            x       y       z     vdW  Elec       q    Type
REMARK                         _______ _______ _______ _____ _____    ______ ____
ROOT
ATOM      1  N   UNL     1       2.230   3.443  19.642  0.00  0.00    +0.000 N 
ATOM      2  C   UNL     1       2.251   4.784  19.857  0.00  0.00    +0.000 C 
ATOM      3  O   UNL     1       1.518   5.399  20.614  0.00  0.00    +0.000 OA
ATOM      4  N   UNL     1       3.269   5.339  19.087  0.00  0.00    +0.000 N 
ATOM      5  C   UNL     1       3.970   4.315  18.286  0.00  0.00    +0.000 C 
ATOM      6  C   UNL     1       5.420   4.117  18.692  0.00  0.00    +0.000 C 
ATOM      7  C   UNL     1       6.301   5.174  18.044  0.00  0.00    +0.000 C 
ATOM      8  N   UNL     1       6.227   5.187  16.579  0.00  0.00    +0.000 NA
ATOM      9  C   UNL     1       4.855   5.305  16.082  0.00  0.00    +0.000 C 
ATOM     10  C   UNL     1       3.822   4.398  16.758  0.00  0.00    +0.000 C 
ATOM     11  C   UNL     1       3.185   3.070  18.746  0.00  0.00    +0.000 C 
ATOM     12  O   UNL     1       3.398   1.923  18.375  0.00  0.00    +0.000 OA
ENDROOT
BRANCH   1  14
ATOM     13  C   UNL     1       1.849   2.472  21.844  0.00  0.00    +0.000 C 
ATOM     14  C   UNL     1       1.413   2.510  20.386  0.00  0.00    +0.000 C 
ENDBRANCH   1  14
BRANCH   4  15
ATOM     15  C   UNL     1       3.523   6.778  19.089  0.00  0.00    +0.000 C 
BRANCH  15  16
ATOM     16  C   UNL     1       2.344   7.738  18.975  0.00  0.00    +0.000 A 
ATOM     17  C   UNL     1       1.766   8.230  20.162  0.00  0.00    +0.000 A 
ATOM     18  C   UNL     1       0.883   9.319  20.151  0.00  0.00    +0.000 A 
ATOM     19  C   UNL     1       0.574   9.954  18.954  0.00  0.00    +0.000 A 
ATOM     20  C   UNL     1       1.052   9.421  17.760  0.00  0.00    +0.000 A 
ATOM     21  C   UNL     1       1.930   8.322  17.770  0.00  0.00    +0.000 A 
BRANCH  19  22
ATOM     22  O   UNL     1      -0.205  11.079  19.050  0.00  0.00    +0.000 OA
ATOM     23  C   UNL     1      -1.313  11.110  18.150  0.00  0.00    +0.000 C 
ENDBRANCH  19  22
ENDBRANCH  15  16
ENDBRANCH   4  15
BRANCH   8  24
ATOM     24  C   UNL     1       6.991   4.095  15.948  0.00  0.00    +0.000 C 
BRANCH  24  25
ATOM     25  C   UNL     1       6.948   4.196  14.432  0.00  0.00    +0.000 A 
ATOM     26  C   UNL     1       6.031   3.400  13.719  0.00  0.00    +0.000 A 
ATOM     27  C   UNL     1       5.856   3.579  12.349  0.00  0.00    +0.000 A 
ATOM     28 CL   UNL     1       4.691   2.635  11.505  0.00  0.00    +0.000 Cl
ATOM     29  C   UNL     1       6.598   4.538  11.664  0.00  0.00    +0.000 A 
ATOM     30  C   UNL     1       7.529   5.319  12.351  0.00  0.00    +0.000 A 
ATOM     31  C   UNL     1       7.696   5.146  13.726  0.00  0.00    +0.000 A 
BRANCH  31  32
ATOM     32  O   UNL     1       8.568   5.945  14.410  0.00  0.00    +0.000 OA
ATOM     33  H   UNL     1       8.112   6.331  15.176  0.00  0.00    +0.000 HD
ENDBRANCH  31  32
ENDBRANCH  24  25
ENDBRANCH   8  24
TORSDOF 7
ENDMDL
MODEL 2
REMARK VINA RESULT:      -7.8      1.338      1.654
REMARK  Name = 
REMARK  9 active torsions:
REMARK  status: ('A' for Active; 'I' for Inactive)
REMARK    1  A    between atoms: C_1  and  C_2
REMARK    2  A    between atoms: C_2  and  N_3
REMARK    3  A    between atoms: N_6  and  C_7
REMARK    4  A    between atoms: C_7  and  C_8
REMARK    5  A    between atoms: C_11  and  O_12
REMARK    6  A    between atoms: O_12  and  C_13
REMARK    7  A    between atoms: N_19  and  C_20
REMARK    8  A    between atoms: C_20  and  C_21
REMARK    9  A    between atoms: C_27  and  O_28
REMARK                            x       y       z     vdW  Elec       q    Type
REMARK                         _______ _______ _______ _____ _____    ______ ____
ROOT
ATOM      1  N   UNL     1       2.334   3.412  19.418  0.00  0.00    +0.000 N 
ATOM      2  C   UNL     1       2.227   4.703  19.825  0.00  0.00    +0.000 C 
ATOM      3  O   UNL     1       1.360   5.153  20.559  0.00  0.00    +0.000 OA
ATOM      4  N   UNL     1       3.287   5.426  19.289  0.00  0.00    +0.000 N 
ATOM      5  C   UNL     1       4.159   4.579  18.450  0.00  0.00    +0.000 C 
ATOM      6  C   UNL     1       5.557   4.402  19.015  0.00  0.00    +0.000 C 
ATOM      7  C   UNL     1       6.429   5.594  18.652  0.00  0.00    +0.000 C 
ATOM      8  N   UNL     1       6.538   5.828  17.208  0.00  0.00    +0.000 NA
ATOM      9  C   UNL     1       5.235   5.943  16.552  0.00  0.00    +0.000 C 
ATOM     10  C   UNL     1       4.196   4.887  16.944  0.00  0.00    +0.000 C 
ATOM     11  C   UNL     1       3.419   3.236  18.614  0.00  0.00    +0.000 C 
ATOM     12  O   UNL     1       3.763   2.173  18.113  0.00  0.00    +0.000 OA
ENDROOT
BRANCH   1  14
ATOM     13  C   UNL     1       0.395   2.031  18.902  0.00  0.00    +0.000 C 
ATOM     14  C   UNL     1       1.503   2.331  19.901  0.00  0.00    +0.000 C 
ENDBRANCH   1  14
BRANCH   4  15
ATOM     15  C   UNL     1       3.430   6.860  19.534  0.00  0.00    +0.000 C 
BRANCH  15  16
ATOM     16  C   UNL     1       2.251   7.781  19.240  0.00  0.00    +0.000 A 
ATOM     17  C   UNL     1       1.563   8.354  20.329  0.00  0.00    +0.000 A 
ATOM     18  C   UNL     1       0.669   9.418  20.152  0.00  0.00    +0.000 A 
ATOM     19  C   UNL     1       0.456   9.950  18.885  0.00  0.00    +0.000 A 
ATOM     20  C   UNL     1       1.046   9.333  17.784  0.00  0.00    +0.000 A 
ATOM     21  C   UNL     1       1.936   8.258  17.960  0.00  0.00    +0.000 A 
BRANCH  19  22
ATOM     22  O   UNL     1      -0.344  11.060  18.821  0.00  0.00    +0.000 OA
ATOM     23  C   UNL     1      -1.424  10.959  17.892  0.00  0.00    +0.000 C 
ENDBRANCH  19  22
ENDBRANCH  15  16
ENDBRANCH   4  15
BRANCH   8  24
ATOM     24  C   UNL     1       7.456   4.891  16.533  0.00  0.00    +0.000 C 
BRANCH  24  25
ATOM     25  C   UNL     1       7.071   4.693  15.077  0.00  0.00    +0.000 A 
ATOM     26  C   UNL     1       7.617   5.551  14.102  0.00  0.00    +0.000 A 
ATOM     27  C   UNL     1       7.411   5.302  12.747  0.00  0.00    +0.000 A 
ATOM     28 CL   UNL     1       8.133   6.328  11.570  0.00  0.00    +0.000 Cl
ATOM     29  C   UNL     1       6.647   4.212  12.340  0.00  0.00    +0.000 A 
ATOM     30  C   UNL     1       6.078   3.366  13.293  0.00  0.00    +0.000 A 
ATOM     31  C   UNL     1       6.294   3.609  14.651  0.00  0.00    +0.000 A 
BRANCH  31  32
ATOM     32  O   UNL     1       5.782   2.753  15.584  0.00  0.00    +0.000 OA
ATOM     33  H   UNL     1       5.525   1.924  15.148  0.00  0.00    +0.000 HD
ENDBRANCH  31  32
ENDBRANCH  24  25
ENDBRANCH   8  24
TORSDOF 7
ENDMDL
MODEL 3
REMARK VINA RESULT:      -7.7      3.221      7.972
REMARK  Name = 
REMARK  9 active torsions:
REMARK  status: ('A' for Active; 'I' for Inactive)
REMARK    1  A    between atoms: C_1  and  C_2
REMARK    2  A    between atoms: C_2  and  N_3
REMARK    3  A    between atoms: N_6  and  C_7
REMARK    4  A    between atoms: C_7  and  C_8
REMARK    5  A    between atoms: C_11  and  O_12
REMARK    6  A    between atoms: O_12  and  C_13
REMARK    7  A    between atoms: N_19  and  C_20
REMARK    8  A    between atoms: C_20  and  C_21
REMARK    9  A    between atoms: C_27  and  O_28
REMARK                            x       y       z     vdW  Elec       q    Type
REMARK                         _______ _______ _______ _____ _____    ______ ____
ROOT
ATOM      1  N   UNL     1       2.621   3.474  19.974  0.00  0.00    +0.000 N 
ATOM      2  C   UNL     1       3.877   3.890  19.666  0.00  0.00    +0.000 C 
ATOM      3  O   UNL     1       4.880   3.193  19.658  0.00  0.00    +0.000 OA
ATOM      4  N   UNL     1       3.828   5.241  19.336  0.00  0.00    +0.000 N 
ATOM      5  C   UNL     1       2.457   5.781  19.443  0.00  0.00    +0.000 C 
ATOM      6  C   UNL     1       1.870   6.213  18.111  0.00  0.00    +0.000 C 
ATOM      7  C   UNL     1       2.353   7.609  17.747  0.00  0.00    +0.000 C 
ATOM      8  N   UNL     1       2.024   8.627  18.751  0.00  0.00    +0.000 NA
ATOM      9  C   UNL     1       2.487   8.271  20.093  0.00  0.00    +0.000 C 
ATOM     10  C   UNL     1       2.202   6.831  20.536  0.00  0.00    +0.000 C 
ATOM     11  C   UNL     1       1.725   4.495  19.878  0.00  0.00    +0.000 C 
ATOM     12  O   UNL     1       0.522   4.403  20.088  0.00  0.00    +0.000 OA
ENDROOT
BRANCH   1  14
ATOM     13  C   UNL     1       1.829   1.431  18.912  0.00  0.00    +0.000 C 
ATOM     14  C   UNL     1       2.253   2.097  20.213  0.00  0.00    +0.000 C 
ENDBRANCH   1  14
BRANCH   4  15
ATOM     15  C   UNL     1       5.037   5.980  18.980  0.00  0.00    +0.000 C 
BRANCH  15  16
ATOM     16  C   UNL     1       5.676   5.739  17.616  0.00  0.00    +0.000 A 
ATOM     17  C   UNL     1       6.793   4.881  17.545  0.00  0.00    +0.000 A 
ATOM     18  C   UNL     1       7.257   4.384  16.320  0.00  0.00    +0.000 A 
ATOM     19  C   UNL     1       6.603   4.715  15.139  0.00  0.00    +0.000 A 
ATOM     20  C   UNL     1       5.563   5.640  15.176  0.00  0.00    +0.000 A 
ATOM     21  C   UNL     1       5.103   6.148  16.405  0.00  0.00    +0.000 A 
BRANCH  19  22
ATOM     22  O   UNL     1       7.053   4.093  14.002  0.00  0.00    +0.000 OA
ATOM     23  C   UNL     1       6.021   3.641  13.126  0.00  0.00    +0.000 C 
ENDBRANCH  19  22
ENDBRANCH  15  16
ENDBRANCH   4  15
BRANCH   8  24
ATOM     24  C   UNL     1       0.612   9.052  18.709  0.00  0.00    +0.000 C 
BRANCH  24  25
ATOM     25  C   UNL     1       0.385  10.297  19.549  0.00  0.00    +0.000 A 
ATOM     26  C   UNL     1      -0.375  10.197  20.731  0.00  0.00    +0.000 A 
ATOM     27  C   UNL     1      -0.471  11.279  21.603  0.00  0.00    +0.000 A 
ATOM     28 CL   UNL     1      -1.358  11.118  23.069  0.00  0.00    +0.000 Cl
ATOM     29  C   UNL     1       0.169  12.479  21.309  0.00  0.00    +0.000 A 
ATOM     30  C   UNL     1       0.905  12.604  20.130  0.00  0.00    +0.000 A 
ATOM     31  C   UNL     1       1.011  11.516  19.261  0.00  0.00    +0.000 A 
BRANCH  31  32
ATOM     32  O   UNL     1       1.774  11.619  18.133  0.00  0.00    +0.000 OA
ATOM     33  H   UNL     1       1.351  11.118  17.416  0.00  0.00    +0.000 HD
ENDBRANCH  31  32
ENDBRANCH  24  25
ENDBRANCH   8  24
TORSDOF 7
ENDMDL
MODEL 4
REMARK VINA RESULT:      -7.6      3.098      7.656
REMARK  Name = 
REMARK  9 active torsions:
REMARK  status: ('A' for Active; 'I' for Inactive)
REMARK    1  A    between atoms: C_1  and  C_2
REMARK    2  A    between atoms: C_2  and  N_3
REMARK    3  A    between atoms: N_6  and  C_7
REMARK    4  A    between atoms: C_7  and  C_8
REMARK    5  A    between atoms: C_11  and  O_12
REMARK    6  A    between atoms: O_12  and  C_13
REMARK    7  A    between atoms: N_19  and  C_20
REMARK    8  A    between atoms: C_20  and  C_21
REMARK    9  A    between atoms: C_27  and  O_28
REMARK                            x       y       z     vdW  Elec       q    Type
REMARK                         _______ _______ _______ _____ _____    ______ ____
ROOT
ATOM      1  N   UNL     1       2.516   3.437  20.090  0.00  0.00    +0.000 N 
ATOM      2  C   UNL     1       3.809   3.666  19.743  0.00  0.00    +0.000 C 
ATOM      3  O   UNL     1       4.729   2.871  19.847  0.00  0.00    +0.000 OA
ATOM      4  N   UNL     1       3.906   4.952  19.222  0.00  0.00    +0.000 N 
ATOM      5  C   UNL     1       2.603   5.647  19.233  0.00  0.00    +0.000 C 
ATOM      6  C   UNL     1       2.063   5.944  17.845  0.00  0.00    +0.000 C 
ATOM      7  C   UNL     1       2.693   7.213  17.292  0.00  0.00    +0.000 C 
ATOM      8  N   UNL     1       2.480   8.394  18.135  0.00  0.00    +0.000 NA
ATOM      9  C   UNL     1       2.906   8.187  19.520  0.00  0.00    +0.000 C 
ATOM     10  C   UNL     1       2.467   6.866  20.160  0.00  0.00    +0.000 C 
ATOM     11  C   UNL     1       1.736   4.525  19.837  0.00  0.00    +0.000 C 
ATOM     12  O   UNL     1       0.531   4.594  20.043  0.00  0.00    +0.000 OA
ENDROOT
BRANCH   1  14
ATOM     13  C   UNL     1       1.561   2.225  21.975  0.00  0.00    +0.000 C 
ATOM     14  C   UNL     1       2.000   2.156  20.519  0.00  0.00    +0.000 C 
ENDBRANCH   1  14
BRANCH   4  15
ATOM     15  C   UNL     1       5.188   5.497  18.779  0.00  0.00    +0.000 C 
BRANCH  15  16
ATOM     16  C   UNL     1       5.798   4.988  17.477  0.00  0.00    +0.000 A 
ATOM     17  C   UNL     1       4.964   4.295  16.576  0.00  0.00    +0.000 A 
ATOM     18  C   UNL     1       5.359   4.048  15.254  0.00  0.00    +0.000 A 
ATOM     19  C   UNL     1       6.589   4.507  14.796  0.00  0.00    +0.000 A 
ATOM     20  C   UNL     1       7.469   5.102  15.696  0.00  0.00    +0.000 A 
ATOM     21  C   UNL     1       7.076   5.341  17.026  0.00  0.00    +0.000 A 
BRANCH  19  22
ATOM     22  O   UNL     1       6.845   4.322  13.462  0.00  0.00    +0.000 OA
ATOM     23  C   UNL     1       5.840   3.588  12.762  0.00  0.00    +0.000 C 
ENDBRANCH  19  22
ENDBRANCH  15  16
ENDBRANCH   4  15
BRANCH   8  24
ATOM     24  C   UNL     1       1.123   8.960  18.014  0.00  0.00    +0.000 C 
BRANCH  24  25
ATOM     25  C   UNL     1       0.994  10.256  18.796  0.00  0.00    +0.000 A 
ATOM     26  C   UNL     1       0.227  10.270  19.977  0.00  0.00    +0.000 A 
ATOM     27  C   UNL     1       0.215  11.395  20.798  0.00  0.00    +0.000 A 
ATOM     28 CL   UNL     1      -0.683  11.372  22.266  0.00  0.00    +0.000 Cl
ATOM     29  C   UNL     1       0.947  12.527  20.453  0.00  0.00    +0.000 A 
ATOM     30  C   UNL     1       1.693  12.539  19.272  0.00  0.00    +0.000 A 
ATOM     31  C   UNL     1       1.714  11.408  18.455  0.00  0.00    +0.000 A 
BRANCH  31  32
ATOM     32  O   UNL     1       2.484  11.399  17.327  0.00  0.00    +0.000 OA
ATOM     33  H   UNL     1       2.016  10.914  16.627  0.00  0.00    +0.000 HD
ENDBRANCH  31  32
ENDBRANCH  24  25
ENDBRANCH   8  24
TORSDOF 7
ENDMDL
MODEL 5
REMARK VINA RESULT:      -7.5      5.714     11.946
REMARK  Name = 
REMARK  9 active torsions:
REMARK  status: ('A' for Active; 'I' for Inactive)
REMARK    1  A    between atoms: C_1  and  C_2
REMARK    2  A    between atoms: C_2  and  N_3
REMARK    3  A    between atoms: N_6  and  C_7
REMARK    4  A    between atoms: C_7  and  C_8
REMARK    5  A    between atoms: C_11  and  O_12
REMARK    6  A    between atoms: O_12  and  C_13
REMARK    7  A    between atoms: N_19  and  C_20
REMARK    8  A    between atoms: C_20  and  C_21
REMARK    9  A    between atoms: C_27  and  O_28
REMARK                            x       y       z     vdW  Elec       q    Type
REMARK                         _______ _______ _______ _____ _____    ______ ____
ROOT
ATOM      1  N   UNL     1       2.247  13.822  19.134  0.00  0.00    +0.000 N 
ATOM      2  C   UNL     1       2.056  12.580  18.618  0.00  0.00    +0.000 C 
ATOM      3  O   UNL     1       2.811  11.998  17.855  0.00  0.00    +0.000 OA
ATOM      4  N   UNL     1       0.865  12.069  19.125  0.00  0.00    +0.000 N 
ATOM      5  C   UNL     1       0.197  13.029  20.026  0.00  0.00    +0.000 C 
ATOM      6  C   UNL     1       0.128  12.559  21.469  0.00  0.00    +0.000 C 
ATOM      7  C   UNL     1      -1.048  11.615  21.663  0.00  0.00    +0.000 C 
ATOM      8  N   UNL     1      -2.343  12.203  21.305  0.00  0.00    +0.000 NA
ATOM      9  C   UNL     1      -2.361  12.752  19.948  0.00  0.00    +0.000 C 
ATOM     10  C   UNL     1      -1.149  13.607  19.560  0.00  0.00    +0.000 C 
ATOM     11  C   UNL     1       1.224  14.177  19.960  0.00  0.00    +0.000 C 
ATOM     12  O   UNL     1       1.141  15.236  20.569  0.00  0.00    +0.000 OA
ENDROOT
BRANCH   1  14
ATOM     13  C   UNL     1       3.295  15.565  17.794  0.00  0.00    +0.000 C 
ATOM     14  C   UNL     1       3.453  14.602  18.961  0.00  0.00    +0.000 C 
ENDBRANCH   1  14
BRANCH   4  15
ATOM     15  C   UNL     1       0.377  10.749  18.730  0.00  0.00    +0.000 C 
BRANCH  15  16
ATOM     16  C   UNL     1       1.228   9.523  19.041  0.00  0.00    +0.000 A 
ATOM     17  C   UNL     1       1.182   8.992  20.346  0.00  0.00    +0.000 A 
ATOM     18  C   UNL     1       1.697   7.721  20.638  0.00  0.00    +0.000 A 
ATOM     19  C   UNL     1       2.251   6.943  19.628  0.00  0.00    +0.000 A 
ATOM     20  C   UNL     1       2.400   7.489  18.356  0.00  0.00    +0.000 A 
ATOM     21  C   UNL     1       1.892   8.768  18.064  0.00  0.00    +0.000 A 
BRANCH  19  22
ATOM     22  O   UNL     1       2.625   5.672  19.980  0.00  0.00    +0.000 OA
ATOM     23  C   UNL     1       3.900   5.269  19.478  0.00  0.00    +0.000 C 
ENDBRANCH  19  22
ENDBRANCH  15  16
ENDBRANCH   4  15
BRANCH   8  24
ATOM     24  C   UNL     1      -2.862  13.134  22.324  0.00  0.00    +0.000 C 
BRANCH  24  25
ATOM     25  C   UNL     1      -4.369  13.008  22.471  0.00  0.00    +0.000 A 
ATOM     26  C   UNL     1      -5.137  12.635  21.351  0.00  0.00    +0.000 A 
ATOM     27  C   UNL     1      -6.495  12.359  21.487  0.00  0.00    +0.000 A 
ATOM     28 CL   UNL     1      -7.405  11.851  20.117  0.00  0.00    +0.000 Cl
ATOM     29  C   UNL     1      -7.115  12.465  22.728  0.00  0.00    +0.000 A 
ATOM     30  C   UNL     1      -6.374  12.858  23.844  0.00  0.00    +0.000 A 
ATOM     31  C   UNL     1      -5.009  13.124  23.711  0.00  0.00    +0.000 A 
BRANCH  31  32
ATOM     32  O   UNL     1      -4.272  13.457  24.810  0.00  0.00    +0.000 OA
ATOM     33  H   UNL     1      -4.472  14.374  25.061  0.00  0.00    +0.000 HD
ENDBRANCH  31  32
ENDBRANCH  24  25
ENDBRANCH   8  24
TORSDOF 7
ENDMDL
MODEL 6
REMARK VINA RESULT:      -7.5      0.630      1.053
REMARK  Name = 
REMARK  9 active torsions:
REMARK  status: ('A' for Active; 'I' for Inactive)
REMARK    1  A    between atoms: C_1  and  C_2
REMARK    2  A    between atoms: C_2  and  N_3
REMARK    3  A    between atoms: N_6  and  C_7
REMARK    4  A    between atoms: C_7  and  C_8
REMARK    5  A    between atoms: C_11  and  O_12
REMARK    6  A    between atoms: O_12  and  C_13
REMARK    7  A    between atoms: N_19  and  C_20
REMARK    8  A    between atoms: C_20  and  C_21
REMARK    9  A    between atoms: C_27  and  O_28
REMARK                            x       y       z     vdW  Elec       q    Type
REMARK                         _______ _______ _______ _____ _____    ______ ____
ROOT
ATOM      1  N   UNL     1       1.674   3.827  19.882  0.00  0.00    +0.000 N 
ATOM      2  C   UNL     1       1.914   5.147  20.097  0.00  0.00    +0.000 C 
ATOM      3  O   UNL     1       1.299   5.869  20.865  0.00  0.00    +0.000 OA
ATOM      4  N   UNL     1       2.997   5.533  19.313  0.00  0.00    +0.000 N 
ATOM      5  C   UNL     1       3.514   4.412  18.502  0.00  0.00    +0.000 C 
ATOM      6  C   UNL     1       4.918   3.982  18.887  0.00  0.00    +0.000 C 
ATOM      7  C   UNL     1       5.948   4.886  18.228  0.00  0.00    +0.000 C 
ATOM      8  N   UNL     1       5.857   4.915  16.764  0.00  0.00    +0.000 NA
ATOM      9  C   UNL     1       4.516   5.253  16.286  0.00  0.00    +0.000 C 
ATOM     10  C   UNL     1       3.359   4.522  16.977  0.00  0.00    +0.000 C 
ATOM     11  C   UNL     1       2.545   3.308  18.972  0.00  0.00    +0.000 C 
ATOM     12  O   UNL     1       2.566   2.142  18.598  0.00  0.00    +0.000 OA
ENDROOT
BRANCH   1  14
ATOM     13  C   UNL     1       1.392   2.467  21.883  0.00  0.00    +0.000 C 
ATOM     14  C   UNL     1       0.729   3.035  20.637  0.00  0.00    +0.000 C 
ENDBRANCH   1  14
BRANCH   4  15
ATOM     15  C   UNL     1       3.479   6.913  19.312  0.00  0.00    +0.000 C 
BRANCH  15  16
ATOM     16  C   UNL     1       2.476   8.046  19.125  0.00  0.00    +0.000 A 
ATOM     17  C   UNL     1       2.100   8.394  17.812  0.00  0.00    +0.000 A 
ATOM     18  C   UNL     1       0.989   9.212  17.561  0.00  0.00    +0.000 A 
ATOM     19  C   UNL     1       0.217   9.684  18.615  0.00  0.00    +0.000 A 
ATOM     20  C   UNL     1       0.631   9.438  19.922  0.00  0.00    +0.000 A 
ATOM     21  C   UNL     1       1.751   8.625  20.175  0.00  0.00    +0.000 A 
BRANCH  19  22
ATOM     22  O   UNL     1      -0.914  10.380  18.273  0.00  0.00    +0.000 OA
ATOM     23  C   UNL     1      -1.702   9.765  17.254  0.00  0.00    +0.000 C 
ENDBRANCH  19  22
ENDBRANCH  15  16
ENDBRANCH   4  15
BRANCH   8  24
ATOM     24  C   UNL     1       6.428   3.717  16.121  0.00  0.00    +0.000 C 
BRANCH  24  25
ATOM     25  C   UNL     1       6.642   3.937  14.633  0.00  0.00    +0.000 A 
ATOM     26  C   UNL     1       5.952   3.124  13.714  0.00  0.00    +0.000 A 
ATOM     27  C   UNL     1       6.003   3.399  12.350  0.00  0.00    +0.000 A 
ATOM     28 CL   UNL     1       5.108   2.427  11.247  0.00  0.00    +0.000 Cl
ATOM     29  C   UNL     1       6.752   4.473  11.875  0.00  0.00    +0.000 A 
ATOM     30  C   UNL     1       7.462   5.274  12.771  0.00  0.00    +0.000 A 
ATOM     31  C   UNL     1       7.402   5.005  14.140  0.00  0.00    +0.000 A 
BRANCH  31  32
ATOM     32  O   UNL     1       8.053   5.819  15.021  0.00  0.00    +0.000 OA
ATOM     33  H   UNL     1       7.819   5.559  15.927  0.00  0.00    +0.000 HD
ENDBRANCH  31  32
ENDBRANCH  24  25
ENDBRANCH   8  24
TORSDOF 7
ENDMDL
MODEL 7
REMARK VINA RESULT:      -7.5      4.547      8.498
REMARK  Name = 
REMARK  9 active torsions:
REMARK  status: ('A' for Active; 'I' for Inactive)
REMARK    1  A    between atoms: C_1  and  C_2
REMARK    2  A    between atoms: C_2  and  N_3
REMARK    3  A    between atoms: N_6  and  C_7
REMARK    4  A    between atoms: C_7  and  C_8
REMARK    5  A    between atoms: C_11  and  O_12
REMARK    6  A    between atoms: O_12  and  C_13
REMARK    7  A    between atoms: N_19  and  C_20
REMARK    8  A    between atoms: C_20  and  C_21
REMARK    9  A    between atoms: C_27  and  O_28
REMARK                            x       y       z     vdW  Elec       q    Type
REMARK                         _______ _______ _______ _____ _____    ______ ____
ROOT
ATOM      1  N   UNL     1       1.100  14.316  19.974  0.00  0.00    +0.000 N 
ATOM      2  C   UNL     1       0.054  14.092  19.137  0.00  0.00    +0.000 C 
ATOM      3  O   UNL     1      -0.625  14.950  18.595  0.00  0.00    +0.000 OA
ATOM      4  N   UNL     1      -0.099  12.718  18.978  0.00  0.00    +0.000 N 
ATOM      5  C   UNL     1       0.892  11.962  19.769  0.00  0.00    +0.000 C 
ATOM      6  C   UNL     1       1.881  11.184  18.919  0.00  0.00    +0.000 C 
ATOM      7  C   UNL     1       1.275   9.860  18.480  0.00  0.00    +0.000 C 
ATOM      8  N   UNL     1       0.850   9.006  19.595  0.00  0.00    +0.000 NA
ATOM      9  C   UNL     1      -0.057   9.690  20.518  0.00  0.00    +0.000 C 
ATOM     10  C   UNL     1       0.356  11.107  20.930  0.00  0.00    +0.000 C 
ATOM     11  C   UNL     1       1.652  13.146  20.399  0.00  0.00    +0.000 C 
ATOM     12  O   UNL     1       2.614  13.050  21.151  0.00  0.00    +0.000 OA
ENDROOT
BRANCH   1  14
ATOM     13  C   UNL     1       1.025  16.211  21.503  0.00  0.00    +0.000 C 
ATOM     14  C   UNL     1       1.659  15.620  20.252  0.00  0.00    +0.000 C 
ENDBRANCH   1  14
BRANCH   4  15
ATOM     15  C   UNL     1      -1.165  12.165  18.145  0.00  0.00    +0.000 C 
BRANCH  15  16
ATOM     16  C   UNL     1      -2.558  11.998  18.742  0.00  0.00    +0.000 A 
ATOM     17  C   UNL     1      -2.820  12.580  19.999  0.00  0.00    +0.000 A 
ATOM     18  C   UNL     1      -4.128  12.722  20.482  0.00  0.00    +0.000 A 
ATOM     19  C   UNL     1      -5.207  12.304  19.711  0.00  0.00    +0.000 A 
ATOM     20  C   UNL     1      -4.966  11.635  18.514  0.00  0.00    +0.000 A 
ATOM     21  C   UNL     1      -3.652  11.483  18.033  0.00  0.00    +0.000 A 
BRANCH  19  22
ATOM     22  O   UNL     1      -6.452  12.585  20.210  0.00  0.00    +0.000 OA
ATOM     23  C   UNL     1      -6.579  12.409  21.622  0.00  0.00    +0.000 C 
ENDBRANCH  19  22
ENDBRANCH  15  16
ENDBRANCH   4  15
BRANCH   8  24
ATOM     24  C   UNL     1       1.972   8.324  20.267  0.00  0.00    +0.000 C 
BRANCH  24  25
ATOM     25  C   UNL     1       2.154   6.911  19.740  0.00  0.00    +0.000 A 
ATOM     26  C   UNL     1       1.641   5.831  20.484  0.00  0.00    +0.000 A 
ATOM     27  C   UNL     1       1.652   4.542  19.957  0.00  0.00    +0.000 A 
ATOM     28 CL   UNL     1       0.969   3.244  20.858  0.00  0.00    +0.000 Cl
ATOM     29  C   UNL     1       2.186   4.301  18.694  0.00  0.00    +0.000 A 
ATOM     30  C   UNL     1       2.722   5.356  17.953  0.00  0.00    +0.000 A 
ATOM     31  C   UNL     1       2.701   6.651  18.477  0.00  0.00    +0.000 A 
BRANCH  31  32
ATOM     32  O   UNL     1       3.176   7.692  17.732  0.00  0.00    +0.000 OA
ATOM     33  H   UNL     1       3.128   7.458  16.791  0.00  0.00    +0.000 HD
ENDBRANCH  31  32
ENDBRANCH  24  25
ENDBRANCH   8  24
TORSDOF 7
ENDMDL
MODEL 8
REMARK VINA RESULT:      -7.5      0.986      1.326
REMARK  Name = 
REMARK  9 active torsions:
REMARK  status: ('A' for Active; 'I' for Inactive)
REMARK    1  A    between atoms: C_1  and  C_2
REMARK    2  A    between atoms: C_2  and  N_3
REMARK    3  A    between atoms: N_6  and  C_7
REMARK    4  A    between atoms: C_7  and  C_8
REMARK    5  A    between atoms: C_11  and  O_12
REMARK    6  A    between atoms: O_12  and  C_13
REMARK    7  A    between atoms: N_19  and  C_20
REMARK    8  A    between atoms: C_20  and  C_21
REMARK    9  A    between atoms: C_27  and  O_28
REMARK                            x       y       z     vdW  Elec       q    Type
REMARK                         _______ _______ _______ _____ _____    ______ ____
ROOT
ATOM      1  N   UNL     1       2.898   3.758  20.437  0.00  0.00    +0.000 N 
ATOM      2  C   UNL     1       2.137   4.792  19.994  0.00  0.00    +0.000 C 
ATOM      3  O   UNL     1       1.133   5.225  20.537  0.00  0.00    +0.000 OA
ATOM      4  N   UNL     1       2.708   5.295  18.829  0.00  0.00    +0.000 N 
ATOM      5  C   UNL     1       3.921   4.545  18.446  0.00  0.00    +0.000 C 
ATOM      6  C   UNL     1       5.193   5.371  18.522  0.00  0.00    +0.000 C 
ATOM      7  C   UNL     1       5.357   6.208  17.262  0.00  0.00    +0.000 C 
ATOM      8  N   UNL     1       5.391   5.417  16.028  0.00  0.00    +0.000 NA
ATOM      9  C   UNL     1       4.236   4.528  15.892  0.00  0.00    +0.000 C 
ATOM     10  C   UNL     1       3.859   3.730  17.144  0.00  0.00    +0.000 C 
ATOM     11  C   UNL     1       3.956   3.533  19.608  0.00  0.00    +0.000 C 
ATOM     12  O   UNL     1       4.810   2.670  19.770  0.00  0.00    +0.000 OA
ENDROOT
BRANCH   1  14
ATOM     13  C   UNL     1       1.369   2.367  21.724  0.00  0.00    +0.000 C 
ATOM     14  C   UNL     1       2.709   3.089  21.704  0.00  0.00    +0.000 C 
ENDBRANCH   1  14
BRANCH   4  15
ATOM     15  C   UNL     1       2.096   6.406  18.102  0.00  0.00    +0.000 C 
BRANCH  15  16
ATOM     16  C   UNL     1       1.953   7.755  18.797  0.00  0.00    +0.000 A 
ATOM     17  C   UNL     1       1.717   8.894  18.001  0.00  0.00    +0.000 A 
ATOM     18  C   UNL     1       1.293  10.106  18.564  0.00  0.00    +0.000 A 
ATOM     19  C   UNL     1       1.076  10.202  19.934  0.00  0.00    +0.000 A 
ATOM     20  C   UNL     1       1.401   9.121  20.749  0.00  0.00    +0.000 A 
ATOM     21  C   UNL     1       1.836   7.907  20.185  0.00  0.00    +0.000 A 
BRANCH  19  22
ATOM     22  O   UNL     1       0.554  11.387  20.383  0.00  0.00    +0.000 OA
ATOM     23  C   UNL     1      -0.866  11.490  20.269  0.00  0.00    +0.000 C 
ENDBRANCH  19  22
ENDBRANCH  15  16
ENDBRANCH   4  15
BRANCH   8  24
ATOM     24  C   UNL     1       6.684   4.741  15.805  0.00  0.00    +0.000 C 
BRANCH  24  25
ATOM     25  C   UNL     1       6.916   4.468  14.328  0.00  0.00    +0.000 A 
ATOM     26  C   UNL     1       6.111   3.515  13.673  0.00  0.00    +0.000 A 
ATOM     27  C   UNL     1       6.191   3.353  12.292  0.00  0.00    +0.000 A 
ATOM     28 CL   UNL     1       5.159   2.224  11.504  0.00  0.00    +0.000 Cl
ATOM     29  C   UNL     1       7.079   4.119  11.543  0.00  0.00    +0.000 A 
ATOM     30  C   UNL     1       7.902   5.051  12.180  0.00  0.00    +0.000 A 
ATOM     31  C   UNL     1       7.814   5.221  13.563  0.00  0.00    +0.000 A 
BRANCH  31  32
ATOM     32  O   UNL     1       8.580   6.168  14.180  0.00  0.00    +0.000 OA
ATOM     33  H   UNL     1       8.100   7.013  14.183  0.00  0.00    +0.000 HD
ENDBRANCH  31  32
ENDBRANCH  24  25
ENDBRANCH   8  24
TORSDOF 7
ENDMDL
MODEL 9
REMARK VINA RESULT:      -7.4      4.003      8.028
REMARK  Name = 
REMARK  9 active torsions:
REMARK  status: ('A' for Active; 'I' for Inactive)
REMARK    1  A    between atoms: C_1  and  C_2
REMARK    2  A    between atoms: C_2  and  N_3
REMARK    3  A    between atoms: N_6  and  C_7
REMARK    4  A    between atoms: C_7  and  C_8
REMARK    5  A    between atoms: C_11  and  O_12
REMARK    6  A    between atoms: O_12  and  C_13
REMARK    7  A    between atoms: N_19  and  C_20
REMARK    8  A    between atoms: C_20  and  C_21
REMARK    9  A    between atoms: C_27  and  O_28
REMARK                            x       y       z     vdW  Elec       q    Type
REMARK                         _______ _______ _______ _____ _____    ______ ____
ROOT
ATOM      1  N   UNL     1       0.370  13.765  20.460  0.00  0.00    +0.000 N 
ATOM      2  C   UNL     1      -0.873  13.327  20.131  0.00  0.00    +0.000 C 
ATOM      3  O   UNL     1      -1.855  14.030  19.951  0.00  0.00    +0.000 OA
ATOM      4  N   UNL     1      -0.835  11.942  20.005  0.00  0.00    +0.000 N 
ATOM      5  C   UNL     1       0.512  11.403  20.284  0.00  0.00    +0.000 C 
ATOM      6  C   UNL     1       1.174  10.771  19.072  0.00  0.00    +0.000 C 
ATOM      7  C   UNL     1       0.682   9.344  18.884  0.00  0.00    +0.000 C 
ATOM      8  N   UNL     1       0.919   8.480  20.045  0.00  0.00    +0.000 NA
ATOM      9  C   UNL     1       0.377   9.037  21.286  0.00  0.00    +0.000 C 
ATOM     10  C   UNL     1       0.669  10.521  21.533  0.00  0.00    +0.000 C 
ATOM     11  C   UNL     1       1.245  12.728  20.575  0.00  0.00    +0.000 C 
ATOM     12  O   UNL     1       2.434  12.832  20.852  0.00  0.00    +0.000 OA
ENDROOT
BRANCH   1  14
ATOM     13  C   UNL     1       1.166  15.651  19.140  0.00  0.00    +0.000 C 
ATOM     14  C   UNL     1       0.756  15.157  20.520  0.00  0.00    +0.000 C 
ENDBRANCH   1  14
BRANCH   4  15
ATOM     15  C   UNL     1      -2.036  11.177  19.678  0.00  0.00    +0.000 C 
BRANCH  15  16
ATOM     16  C   UNL     1      -2.514  11.133  18.230  0.00  0.00    +0.000 A 
ATOM     17  C   UNL     1      -1.843  10.279  17.332  0.00  0.00    +0.000 A 
ATOM     18  C   UNL     1      -2.385   9.963  16.078  0.00  0.00    +0.000 A 
ATOM     19  C   UNL     1      -3.620  10.478  15.701  0.00  0.00    +0.000 A 
ATOM     20  C   UNL     1      -4.250  11.403  16.530  0.00  0.00    +0.000 A 
ATOM     21  C   UNL     1      -3.702  11.728  17.784  0.00  0.00    +0.000 A 
BRANCH  19  22
ATOM     22  O   UNL     1      -4.126  10.027  14.510  0.00  0.00    +0.000 OA
ATOM     23  C   UNL     1      -3.158   9.895  13.468  0.00  0.00    +0.000 C 
ENDBRANCH  19  22
ENDBRANCH  15  16
ENDBRANCH   4  15
BRANCH   8  24
ATOM     24  C   UNL     1       2.319   8.033  20.163  0.00  0.00    +0.000 C 
BRANCH  24  25
ATOM     25  C   UNL     1       2.594   6.837  19.266  0.00  0.00    +0.000 A 
ATOM     26  C   UNL     1       3.455   6.991  18.163  0.00  0.00    +0.000 A 
ATOM     27  C   UNL     1       3.851   5.885  17.415  0.00  0.00    +0.000 A 
ATOM     28 CL   UNL     1       4.949   6.087  16.106  0.00  0.00    +0.000 Cl
ATOM     29  C   UNL     1       3.386   4.613  17.739  0.00  0.00    +0.000 A 
ATOM     30  C   UNL     1       2.511   4.446  18.814  0.00  0.00    +0.000 A 
ATOM     31  C   UNL     1       2.123   5.553  19.570  0.00  0.00    +0.000 A 
BRANCH  31  32
ATOM     32  O   UNL     1       1.310   5.384  20.654  0.00  0.00    +0.000 OA
ATOM     33  H   UNL     1       0.632   6.080  20.654  0.00  0.00    +0.000 HD
ENDBRANCH  31  32
ENDBRANCH  24  25
ENDBRANCH   8  24
TORSDOF 7
ENDMDL
