MODEL 1
REMARK VINA RESULT:      -6.9      0.000      0.000
REMARK  Name = 
REMARK  5 active torsions:
REMARK  status: ('A' for Active; 'I' for Inactive)
REMARK    1  A    between atoms: C_1  and  N_2
REMARK    2  A    between atoms: N_2  and  O_3
REMARK    3  A    between atoms: C_4  and  C_6
REMARK    4  A    between atoms: C_6  and  C_7
REMARK    5  A    between atoms: C_10  and  C_11
REMARK                            x       y       z     vdW  Elec       q    Type
REMARK                         _______ _______ _______ _____ _____    ______ ____
ROOT
ATOM      1  C   UNL     1       2.972   6.345  18.465  0.00  0.00    +0.000 A 
ATOM      2  C   UNL     1       2.560   5.986  19.754  0.00  0.00    +0.000 A 
ATOM      3  C   UNL     1       1.839   6.887  20.551  0.00  0.00    +0.000 A 
ATOM      4  C   UNL     1       1.512   8.177  20.089  0.00  0.00    +0.000 A 
ATOM      5  C   UNL     1       1.908   8.504  18.779  0.00  0.00    +0.000 A 
ATOM      6  C   UNL     1       2.619   7.603  17.978  0.00  0.00    +0.000 A 
ENDROOT
BRANCH   4   7
ATOM      7  C   UNL     1       0.814   9.166  20.948  0.00  0.00    +0.000 A 
ATOM      8  C   UNL     1       0.453  10.437  20.464  0.00  0.00    +0.000 A 
ATOM      9  C   UNL     1      -0.260  11.348  21.256  0.00  0.00    +0.000 A 
ATOM     10  C   UNL     1      -0.634  11.006  22.548  0.00  0.00    +0.000 A 
ATOM     11  C   UNL     1      -0.285   9.762  23.058  0.00  0.00    +0.000 A 
ATOM     12  C   UNL     1       0.438   8.860  22.271  0.00  0.00    +0.000 A 
ENDBRANCH   4   7
BRANCH   1  13
ATOM     13  C   UNL     1       3.760   5.387  17.605  0.00  0.00    +0.000 C 
BRANCH  13  16
ATOM     14  C   UNL     1       3.484   1.646  18.310  0.00  0.00    +0.000 C 
ATOM     15  N   UNL     1       4.029   2.958  18.031  0.00  0.00    +0.000 N 
ATOM     16  C   UNL     1       3.180   3.986  17.639  0.00  0.00    +0.000 C 
ATOM     17  O   UNL     1       2.023   3.770  17.263  0.00  0.00    +0.000 OA
BRANCH  15  18
ATOM     18  O   UNL     1       5.042   3.297  18.955  0.00  0.00    +0.000 OA
ATOM     19  H   UNL     1       5.715   2.617  18.760  0.00  0.00    +0.000 HD
ENDBRANCH  15  18
ENDBRANCH  13  16
ENDBRANCH   1  13
TORSDOF 4
ENDMDL
MODEL 2
REMARK VINA RESULT:      -6.9      0.166      1.606
REMARK  Name = 
REMARK  5 active torsions:
REMARK  status: ('A' for Active; 'I' for Inactive)
REMARK    1  A    between atoms: C_1  and  N_2
REMARK    2  A    between atoms: N_2  and  O_3
REMARK    3  A    between atoms: C_4  and  C_6
REMARK    4  A    between atoms: C_6  and  C_7
REMARK    5  A    between atoms: C_10  and  C_11
REMARK                            x       y       z     vdW  Elec       q    Type
REMARK                         _______ _______ _______ _____ _____    ______ ____
ROOT
ATOM      1  C   UNL     1       2.902   6.438  18.407  0.00  0.00    +0.000 A 
ATOM      2  C   UNL     1       2.554   7.712  17.941  0.00  0.00    +0.000 A 
ATOM      3  C   UNL     1       1.856   8.607  18.764  0.00  0.00    +0.000 A 
ATOM      4  C   UNL     1       1.476   8.259  20.074  0.00  0.00    +0.000 A 
ATOM      5  C   UNL     1       1.864   6.986  20.532  0.00  0.00    +0.000 A 
ATOM      6  C   UNL     1       2.570   6.093  19.717  0.00  0.00    +0.000 A 
ENDROOT
BRANCH   4   7
ATOM      7  C   UNL     1       0.674   9.169  20.930  0.00  0.00    +0.000 A 
ATOM      8  C   UNL     1       0.431   8.881  22.286  0.00  0.00    +0.000 A 
ATOM      9  C   UNL     1      -0.275   9.770  23.107  0.00  0.00    +0.000 A 
ATOM     10  C   UNL     1      -0.748  10.970  22.595  0.00  0.00    +0.000 A 
ATOM     11  C   UNL     1      -0.532  11.279  21.257  0.00  0.00    +0.000 A 
ATOM     12  C   UNL     1       0.161  10.384  20.436  0.00  0.00    +0.000 A 
ENDBRANCH   4   7
BRANCH   1  13
ATOM     13  C   UNL     1       3.640   5.461  17.524  0.00  0.00    +0.000 C 
BRANCH  13  16
ATOM     14  C   UNL     1       3.336   1.721  18.223  0.00  0.00    +0.000 C 
ATOM     15  N   UNL     1       3.887   3.024  17.917  0.00  0.00    +0.000 N 
ATOM     16  C   UNL     1       3.036   4.072  17.588  0.00  0.00    +0.000 C 
ATOM     17  O   UNL     1       1.852   3.881  17.286  0.00  0.00    +0.000 OA
BRANCH  15  18
ATOM     18  O   UNL     1       4.965   3.336  18.775  0.00  0.00    +0.000 OA
ATOM     19  H   UNL     1       4.494   3.585  19.594  0.00  0.00    +0.000 HD
ENDBRANCH  15  18
ENDBRANCH  13  16
ENDBRANCH   1  13
TORSDOF 4
ENDMDL
MODEL 3
REMARK VINA RESULT:      -6.9      3.159      4.630
REMARK  Name = 
REMARK  5 active torsions:
REMARK  status: ('A' for Active; 'I' for Inactive)
REMARK    1  A    between atoms: C_1  and  N_2
REMARK    2  A    between atoms: N_2  and  O_3
REMARK    3  A    between atoms: C_4  and  C_6
REMARK    4  A    between atoms: C_6  and  C_7
REMARK    5  A    between atoms: C_10  and  C_11
REMARK                            x       y       z     vdW  Elec       q    Type
REMARK                         _______ _______ _______ _____ _____    ______ ____
ROOT
ATOM      1  C   UNL     1       5.040   4.725  16.367  0.00  0.00    +0.000 A 
ATOM      2  C   UNL     1       5.342   6.092  16.365  0.00  0.00    +0.000 A 
ATOM      3  C   UNL     1       4.538   7.002  17.067  0.00  0.00    +0.000 A 
ATOM      4  C   UNL     1       3.405   6.579  17.788  0.00  0.00    +0.000 A 
ATOM      5  C   UNL     1       3.140   5.197  17.802  0.00  0.00    +0.000 A 
ATOM      6  C   UNL     1       3.945   4.285  17.110  0.00  0.00    +0.000 A 
ENDROOT
BRANCH   4   7
ATOM      7  C   UNL     1       2.505   7.539  18.475  0.00  0.00    +0.000 A 
ATOM      8  C   UNL     1       2.175   7.396  19.836  0.00  0.00    +0.000 A 
ATOM      9  C   UNL     1       1.375   8.336  20.498  0.00  0.00    +0.000 A 
ATOM     10  C   UNL     1       0.891   9.444  19.818  0.00  0.00    +0.000 A 
ATOM     11  C   UNL     1       1.191   9.610  18.471  0.00  0.00    +0.000 A 
ATOM     12  C   UNL     1       1.979   8.663  17.808  0.00  0.00    +0.000 A 
ENDBRANCH   4   7
BRANCH   1  13
ATOM     13  C   UNL     1       5.890   3.739  15.603  0.00  0.00    +0.000 C 
BRANCH  13  16
ATOM     14  C   UNL     1       7.347   4.836  12.249  0.00  0.00    +0.000 C 
ATOM     15  N   UNL     1       6.682   4.058  13.274  0.00  0.00    +0.000 N 
ATOM     16  C   UNL     1       6.801   4.431  14.607  0.00  0.00    +0.000 C 
ATOM     17  O   UNL     1       7.659   5.235  14.987  0.00  0.00    +0.000 OA
BRANCH  15  18
ATOM     18  O   UNL     1       5.400   3.645  12.849  0.00  0.00    +0.000 OA
ATOM     19  H   UNL     1       4.823   4.177  13.430  0.00  0.00    +0.000 HD
ENDBRANCH  15  18
ENDBRANCH  13  16
ENDBRANCH   1  13
TORSDOF 4
ENDMDL
MODEL 4
REMARK VINA RESULT:      -6.9      3.190      4.578
REMARK  Name = 
REMARK  5 active torsions:
REMARK  status: ('A' for Active; 'I' for Inactive)
REMARK    1  A    between atoms: C_1  and  N_2
REMARK    2  A    between atoms: N_2  and  O_3
REMARK    3  A    between atoms: C_4  and  C_6
REMARK    4  A    between atoms: C_6  and  C_7
REMARK    5  A    between atoms: C_10  and  C_11
REMARK                            x       y       z     vdW  Elec       q    Type
REMARK                         _______ _______ _______ _____ _____    ______ ____
ROOT
ATOM      1  C   UNL     1       5.083   4.685  16.308  0.00  0.00    +0.000 A 
ATOM      2  C   UNL     1       4.075   4.207  17.156  0.00  0.00    +0.000 A 
ATOM      3  C   UNL     1       3.225   5.097  17.827  0.00  0.00    +0.000 A 
ATOM      4  C   UNL     1       3.356   6.492  17.680  0.00  0.00    +0.000 A 
ATOM      5  C   UNL     1       4.355   6.948  16.800  0.00  0.00    +0.000 A 
ATOM      6  C   UNL     1       5.199   6.062  16.121  0.00  0.00    +0.000 A 
ENDROOT
BRANCH   4   7
ATOM      7  C   UNL     1       2.511   7.446  18.441  0.00  0.00    +0.000 A 
ATOM      8  C   UNL     1       2.217   7.246  19.803  0.00  0.00    +0.000 A 
ATOM      9  C   UNL     1       1.470   8.179  20.535  0.00  0.00    +0.000 A 
ATOM     10  C   UNL     1       1.005   9.335  19.925  0.00  0.00    +0.000 A 
ATOM     11  C   UNL     1       1.271   9.557  18.579  0.00  0.00    +0.000 A 
ATOM     12  C   UNL     1       2.005   8.619  17.847  0.00  0.00    +0.000 A 
ENDBRANCH   4   7
BRANCH   1  13
ATOM     13  C   UNL     1       6.013   3.736  15.593  0.00  0.00    +0.000 C 
BRANCH  13  16
ATOM     14  C   UNL     1       7.384   4.901  12.226  0.00  0.00    +0.000 C 
ATOM     15  N   UNL     1       6.752   4.099  13.253  0.00  0.00    +0.000 N 
ATOM     16  C   UNL     1       6.893   4.456  14.588  0.00  0.00    +0.000 C 
ATOM     17  O   UNL     1       7.746   5.269  14.961  0.00  0.00    +0.000 OA
BRANCH  15  18
ATOM     18  O   UNL     1       5.468   3.672  12.848  0.00  0.00    +0.000 OA
ATOM     19  H   UNL     1       5.104   4.492  12.465  0.00  0.00    +0.000 HD
ENDBRANCH  15  18
ENDBRANCH  13  16
ENDBRANCH   1  13
TORSDOF 4
ENDMDL
MODEL 5
REMARK VINA RESULT:      -6.9      0.250      1.158
REMARK  Name = 
REMARK  5 active torsions:
REMARK  status: ('A' for Active; 'I' for Inactive)
REMARK    1  A    between atoms: C_1  and  N_2
REMARK    2  A    between atoms: N_2  and  O_3
REMARK    3  A    between atoms: C_4  and  C_6
REMARK    4  A    between atoms: C_6  and  C_7
REMARK    5  A    between atoms: C_10  and  C_11
REMARK                            x       y       z     vdW  Elec       q    Type
REMARK                         _______ _______ _______ _____ _____    ______ ____
ROOT
ATOM      1  C   UNL     1       2.827   6.504  18.426  0.00  0.00    +0.000 A 
ATOM      2  C   UNL     1       2.456   7.766  17.945  0.00  0.00    +0.000 A 
ATOM      3  C   UNL     1       1.797   8.682  18.777  0.00  0.00    +0.000 A 
ATOM      4  C   UNL     1       1.480   8.368  20.113  0.00  0.00    +0.000 A 
ATOM      5  C   UNL     1       1.891   7.106  20.583  0.00  0.00    +0.000 A 
ATOM      6  C   UNL     1       2.557   6.193  19.759  0.00  0.00    +0.000 A 
ENDROOT
BRANCH   4   7
ATOM      7  C   UNL     1       0.719   9.300  20.981  0.00  0.00    +0.000 A 
ATOM      8  C   UNL     1       0.286  10.555  20.514  0.00  0.00    +0.000 A 
ATOM      9  C   UNL     1      -0.485  11.408  21.315  0.00  0.00    +0.000 A 
ATOM     10  C   UNL     1      -0.847  11.024  22.599  0.00  0.00    +0.000 A 
ATOM     11  C   UNL     1      -0.427   9.794  23.092  0.00  0.00    +0.000 A 
ATOM     12  C   UNL     1       0.354   8.950  22.296  0.00  0.00    +0.000 A 
ENDBRANCH   4   7
BRANCH   1  13
ATOM     13  C   UNL     1       3.523   5.505  17.535  0.00  0.00    +0.000 C 
BRANCH  13  16
ATOM     14  C   UNL     1       3.200   1.769  18.250  0.00  0.00    +0.000 C 
ATOM     15  N   UNL     1       3.753   3.064  17.910  0.00  0.00    +0.000 N 
ATOM     16  C   UNL     1       2.900   4.126  17.636  0.00  0.00    +0.000 C 
ATOM     17  O   UNL     1       1.697   3.956  17.408  0.00  0.00    +0.000 OA
BRANCH  15  18
ATOM     18  O   UNL     1       4.888   3.356  18.700  0.00  0.00    +0.000 OA
ATOM     19  H   UNL     1       4.986   2.529  19.209  0.00  0.00    +0.000 HD
ENDBRANCH  15  18
ENDBRANCH  13  16
ENDBRANCH   1  13
TORSDOF 4
ENDMDL
MODEL 6
REMARK VINA RESULT:      -6.9      0.132      1.128
REMARK  Name = 
REMARK  5 active torsions:
REMARK  status: ('A' for Active; 'I' for Inactive)
REMARK    1  A    between atoms: C_1  and  N_2
REMARK    2  A    between atoms: N_2  and  O_3
REMARK    3  A    between atoms: C_4  and  C_6
REMARK    4  A    between atoms: C_6  and  C_7
REMARK    5  A    between atoms: C_10  and  C_11
REMARK                            x       y       z     vdW  Elec       q    Type
REMARK                         _______ _______ _______ _____ _____    ______ ____
ROOT
ATOM      1  C   UNL     1       2.975   6.379  18.490  0.00  0.00    +0.000 A 
ATOM      2  C   UNL     1       2.541   6.025  19.774  0.00  0.00    +0.000 A 
ATOM      3  C   UNL     1       1.789   6.922  20.546  0.00  0.00    +0.000 A 
ATOM      4  C   UNL     1       1.451   8.202  20.065  0.00  0.00    +0.000 A 
ATOM      5  C   UNL     1       1.871   8.523  18.761  0.00  0.00    +0.000 A 
ATOM      6  C   UNL     1       2.614   7.627  17.984  0.00  0.00    +0.000 A 
ENDROOT
BRANCH   4   7
ATOM      7  C   UNL     1       0.719   9.188  20.899  0.00  0.00    +0.000 A 
ATOM      8  C   UNL     1       0.160   8.832  22.141  0.00  0.00    +0.000 A 
ATOM      9  C   UNL     1      -0.478   9.778  22.954  0.00  0.00    +0.000 A 
ATOM     10  C   UNL     1      -0.565  11.102  22.551  0.00  0.00    +0.000 A 
ATOM     11  C   UNL     1      -0.031  11.484  21.325  0.00  0.00    +0.000 A 
ATOM     12  C   UNL     1       0.594  10.536  20.509  0.00  0.00    +0.000 A 
ENDBRANCH   4   7
BRANCH   1  13
ATOM     13  C   UNL     1       3.797   5.426  17.657  0.00  0.00    +0.000 C 
BRANCH  13  16
ATOM     14  C   UNL     1       3.497   1.676  18.304  0.00  0.00    +0.000 C 
ATOM     15  N   UNL     1       4.050   2.991  18.057  0.00  0.00    +0.000 N 
ATOM     16  C   UNL     1       3.214   4.026  17.657  0.00  0.00    +0.000 C 
ATOM     17  O   UNL     1       2.066   3.817  17.248  0.00  0.00    +0.000 OA
BRANCH  15  18
ATOM     18  O   UNL     1       5.040   3.315  19.011  0.00  0.00    +0.000 OA
ATOM     19  H   UNL     1       4.814   2.703  19.738  0.00  0.00    +0.000 HD
ENDBRANCH  15  18
ENDBRANCH  13  16
ENDBRANCH   1  13
TORSDOF 4
ENDMDL
MODEL 7
REMARK VINA RESULT:      -6.9      3.167      4.496
REMARK  Name = 
REMARK  5 active torsions:
REMARK  status: ('A' for Active; 'I' for Inactive)
REMARK    1  A    between atoms: C_1  and  N_2
REMARK    2  A    between atoms: N_2  and  O_3
REMARK    3  A    between atoms: C_4  and  C_6
REMARK    4  A    between atoms: C_6  and  C_7
REMARK    5  A    between atoms: C_10  and  C_11
REMARK                            x       y       z     vdW  Elec       q    Type
REMARK                         _______ _______ _______ _____ _____    ______ ____
ROOT
ATOM      1  C   UNL     1       5.004   4.734  16.335  0.00  0.00    +0.000 A 
ATOM      2  C   UNL     1       5.276   6.104  16.232  0.00  0.00    +0.000 A 
ATOM      3  C   UNL     1       4.502   7.039  16.934  0.00  0.00    +0.000 A 
ATOM      4  C   UNL     1       3.430   6.640  17.755  0.00  0.00    +0.000 A 
ATOM      5  C   UNL     1       3.196   5.257  17.867  0.00  0.00    +0.000 A 
ATOM      6  C   UNL     1       3.972   4.319  17.176  0.00  0.00    +0.000 A 
ENDROOT
BRANCH   4   7
ATOM      7  C   UNL     1       2.558   7.623  18.445  0.00  0.00    +0.000 A 
ATOM      8  C   UNL     1       2.022   8.735  17.768  0.00  0.00    +0.000 A 
ATOM      9  C   UNL     1       1.150   9.628  18.405  0.00  0.00    +0.000 A 
ATOM     10  C   UNL     1       0.789   9.429  19.729  0.00  0.00    +0.000 A 
ATOM     11  C   UNL     1       1.309   8.345  20.428  0.00  0.00    +0.000 A 
ATOM     12  C   UNL     1       2.189   7.462  19.795  0.00  0.00    +0.000 A 
ENDBRANCH   4   7
BRANCH   1  13
ATOM     13  C   UNL     1       5.821   3.719  15.572  0.00  0.00    +0.000 C 
BRANCH  13  16
ATOM     14  C   UNL     1       7.325   4.747  12.217  0.00  0.00    +0.000 C 
ATOM     15  N   UNL     1       6.636   3.995  13.246  0.00  0.00    +0.000 N 
ATOM     16  C   UNL     1       6.755   4.379  14.575  0.00  0.00    +0.000 C 
ATOM     17  O   UNL     1       7.630   5.167  14.952  0.00  0.00    +0.000 OA
BRANCH  15  18
ATOM     18  O   UNL     1       5.346   3.608  12.816  0.00  0.00    +0.000 OA
ATOM     19  H   UNL     1       4.811   4.373  13.101  0.00  0.00    +0.000 HD
ENDBRANCH  15  18
ENDBRANCH  13  16
ENDBRANCH   1  13
TORSDOF 4
ENDMDL
MODEL 8
REMARK VINA RESULT:      -6.8      2.727      3.859
REMARK  Name = 
REMARK  5 active torsions:
REMARK  status: ('A' for Active; 'I' for Inactive)
REMARK    1  A    between atoms: C_1  and  N_2
REMARK    2  A    between atoms: N_2  and  O_3
REMARK    3  A    between atoms: C_4  and  C_6
REMARK    4  A    between atoms: C_6  and  C_7
REMARK    5  A    between atoms: C_10  and  C_11
REMARK                            x       y       z     vdW  Elec       q    Type
REMARK                         _______ _______ _______ _____ _____    ______ ____
ROOT
ATOM      1  C   UNL     1       4.601   4.757  16.877  0.00  0.00    +0.000 A 
ATOM      2  C   UNL     1       3.536   4.435  17.728  0.00  0.00    +0.000 A 
ATOM      3  C   UNL     1       2.751   5.444  18.304  0.00  0.00    +0.000 A 
ATOM      4  C   UNL     1       3.007   6.806  18.056  0.00  0.00    +0.000 A 
ATOM      5  C   UNL     1       4.062   7.105  17.174  0.00  0.00    +0.000 A 
ATOM      6  C   UNL     1       4.841   6.100  16.589  0.00  0.00    +0.000 A 
ENDROOT
BRANCH   4   7
ATOM      7  C   UNL     1       2.231   7.886  18.717  0.00  0.00    +0.000 A 
ATOM      8  C   UNL     1       1.789   9.016  18.005  0.00  0.00    +0.000 A 
ATOM      9  C   UNL     1       1.005  10.005  18.615  0.00  0.00    +0.000 A 
ATOM     10  C   UNL     1       0.639   9.884  19.948  0.00  0.00    +0.000 A 
ATOM     11  C   UNL     1       1.069   8.783  20.681  0.00  0.00    +0.000 A 
ATOM     12  C   UNL     1       1.862   7.804  20.074  0.00  0.00    +0.000 A 
ENDBRANCH   4   7
BRANCH   1  13
ATOM     13  C   UNL     1       5.460   3.679  16.264  0.00  0.00    +0.000 C 
BRANCH  13  16
ATOM     14  C   UNL     1       7.488   4.882  13.262  0.00  0.00    +0.000 C 
ATOM     15  N   UNL     1       6.548   4.150  14.085  0.00  0.00    +0.000 N 
ATOM     16  C   UNL     1       6.614   4.260  15.468  0.00  0.00    +0.000 C 
ATOM     17  O   UNL     1       7.599   4.740  16.039  0.00  0.00    +0.000 OA
BRANCH  15  18
ATOM     18  O   UNL     1       5.256   4.161  13.514  0.00  0.00    +0.000 OA
ATOM     19  H   UNL     1       5.326   3.435  12.865  0.00  0.00    +0.000 HD
ENDBRANCH  15  18
ENDBRANCH  13  16
ENDBRANCH   1  13
TORSDOF 4
ENDMDL
MODEL 9
REMARK VINA RESULT:      -6.8      1.754      2.452
REMARK  Name = 
REMARK  5 active torsions:
REMARK  status: ('A' for Active; 'I' for Inactive)
REMARK    1  A    between atoms: C_1  and  N_2
REMARK    2  A    between atoms: N_2  and  O_3
REMARK    3  A    between atoms: C_4  and  C_6
REMARK    4  A    between atoms: C_6  and  C_7
REMARK    5  A    between atoms: C_10  and  C_11
REMARK                            x       y       z     vdW  Elec       q    Type
REMARK                         _______ _______ _______ _____ _____    ______ ____
ROOT
ATOM      1  C   UNL     1       3.274   6.574  18.165  0.00  0.00    +0.000 A 
ATOM      2  C   UNL     1       2.850   6.098  19.412  0.00  0.00    +0.000 A 
ATOM      3  C   UNL     1       2.029   6.883  20.234  0.00  0.00    +0.000 A 
ATOM      4  C   UNL     1       1.610   8.169  19.843  0.00  0.00    +0.000 A 
ATOM      5  C   UNL     1       2.022   8.613  18.573  0.00  0.00    +0.000 A 
ATOM      6  C   UNL     1       2.833   7.829  17.745  0.00  0.00    +0.000 A 
ENDROOT
BRANCH   4   7
ATOM      7  C   UNL     1       0.802   9.039  20.734  0.00  0.00    +0.000 A 
ATOM      8  C   UNL     1       0.758   8.830  22.125  0.00  0.00    +0.000 A 
ATOM      9  C   UNL     1       0.043   9.688  22.972  0.00  0.00    +0.000 A 
ATOM     10  C   UNL     1      -0.637  10.778  22.450  0.00  0.00    +0.000 A 
ATOM     11  C   UNL     1      -0.620  11.006  21.079  0.00  0.00    +0.000 A 
ATOM     12  C   UNL     1       0.082  10.141  20.234  0.00  0.00    +0.000 A 
ENDBRANCH   4   7
BRANCH   1  13
ATOM     13  C   UNL     1       4.169   5.743  17.279  0.00  0.00    +0.000 C 
BRANCH  13  16
ATOM     14  C   UNL     1       7.768   5.489  18.525  0.00  0.00    +0.000 C 
ATOM     15  N   UNL     1       6.326   5.381  18.448  0.00  0.00    +0.000 N 
ATOM     16  C   UNL     1       5.634   6.087  17.473  0.00  0.00    +0.000 C 
ATOM     17  O   UNL     1       6.158   7.008  16.836  0.00  0.00    +0.000 OA
BRANCH  15  18
ATOM     18  O   UNL     1       5.902   4.054  18.684  0.00  0.00    +0.000 OA
ATOM     19  H   UNL     1       6.432   3.563  18.027  0.00  0.00    +0.000 HD
ENDBRANCH  15  18
ENDBRANCH  13  16
ENDBRANCH   1  13
TORSDOF 4
ENDMDL
