MODEL 1
REMARK VINA RESULT:      -7.9      0.000      0.000
REMARK  Name = 
REMARK  8 active torsions:
REMARK  status: ('A' for Active; 'I' for Inactive)
REMARK    1  A    between atoms: C_1  and  O_2
REMARK    2  A    between atoms: O_2  and  C_3
REMARK    3  A    between atoms: C_5  and  C_6
REMARK    4  A    between atoms: C_6  and  N_7
REMARK    5  A    between atoms: N_12  and  C_13
REMARK    6  A    between atoms: N_12  and  C_14
REMARK    7  A    between atoms: C_16  and  C_17
REMARK    8  A    between atoms: C_25  and  C_26
REMARK                            x       y       z     vdW  Elec       q    Type
REMARK                         _______ _______ _______ _____ _____    ______ ____
ROOT
ATOM      1  N   UNL     1       1.797   8.554  19.099  0.00  0.00    +0.000 N 
ATOM      2  C   UNL     1       1.187   8.141  20.249  0.00  0.00    +0.000 A 
ATOM      3  N   UNL     1       1.570   6.931  20.592  0.00  0.00    +0.000 NA
ATOM      4  C   UNL     1       2.474   6.533  19.618  0.00  0.00    +0.000 A 
ATOM      5  C   UNL     1       3.194   5.331  19.388  0.00  0.00    +0.000 A 
ATOM      6  N   UNL     1       3.084   4.157  20.113  0.00  0.00    +0.000 N 
ATOM      7  C   UNL     1       2.199   4.012  21.257  0.00  0.00    +0.000 C 
ATOM      8  C   UNL     1       4.046   3.086  19.905  0.00  0.00    +0.000 C 
ATOM      9  N   UNL     1       4.024   5.340  18.297  0.00  0.00    +0.000 NA
ATOM     10  C   UNL     1       4.124   6.420  17.473  0.00  0.00    +0.000 A 
ATOM     11  N   UNL     1       3.459   7.589  17.634  0.00  0.00    +0.000 NA
ATOM     12  C   UNL     1       2.656   7.564  18.705  0.00  0.00    +0.000 A 
ENDROOT
BRANCH  10  13
ATOM     13  C   UNL     1       5.015   6.294  16.231  0.00  0.00    +0.000 C 
ATOM     14  F   UNL     1       6.344   6.509  16.463  0.00  0.00    +0.000 F 
ATOM     15  F   UNL     1       4.946   5.050  15.659  0.00  0.00    +0.000 F 
ATOM     16  F   UNL     1       4.674   7.167  15.235  0.00  0.00    +0.000 F 
ENDBRANCH  10  13
BRANCH   1  17
ATOM     17  C   UNL     1       1.592   9.825  18.434  0.00  0.00    +0.000 C 
BRANCH  17  20
ATOM     18  C   UNL     1      -2.100  10.150  17.504  0.00  0.00    +0.000 A 
ATOM     19  C   UNL     1      -0.770   9.718  17.533  0.00  0.00    +0.000 A 
ATOM     20  C   UNL     1       0.144  10.250  18.458  0.00  0.00    +0.000 A 
ATOM     21  C   UNL     1      -0.310  11.191  19.389  0.00  0.00    +0.000 A 
ATOM     22  C   UNL     1      -1.634  11.628  19.368  0.00  0.00    +0.000 A 
ATOM     23  C   UNL     1      -2.537  11.126  18.418  0.00  0.00    +0.000 A 
ATOM     24  C   UNL     1      -3.949  11.642  18.383  0.00  0.00    +0.000 C 
BRANCH  18  26
ATOM     25  C   UNL     1      -2.877  10.228  15.259  0.00  0.00    +0.000 C 
ATOM     26  O   UNL     1      -3.030   9.734  16.584  0.00  0.00    +0.000 OA
ENDBRANCH  18  26
ENDBRANCH  17  20
ENDBRANCH   1  17
TORSDOF 4
ENDMDL
MODEL 2
REMARK VINA RESULT:      -7.8      0.829      1.177
REMARK  Name = 
REMARK  8 active torsions:
REMARK  status: ('A' for Active; 'I' for Inactive)
REMARK    1  A    between atoms: C_1  and  O_2
REMARK    2  A    between atoms: O_2  and  C_3
REMARK    3  A    between atoms: C_5  and  C_6
REMARK    4  A    between atoms: C_6  and  N_7
REMARK    5  A    between atoms: N_12  and  C_13
REMARK    6  A    between atoms: N_12  and  C_14
REMARK    7  A    between atoms: C_16  and  C_17
REMARK    8  A    between atoms: C_25  and  C_26
REMARK                            x       y       z     vdW  Elec       q    Type
REMARK                         _______ _______ _______ _____ _____    ______ ____
ROOT
ATOM      1  N   UNL     1       2.249   7.966  18.883  0.00  0.00    +0.000 N 
ATOM      2  C   UNL     1       1.649   7.648  20.068  0.00  0.00    +0.000 A 
ATOM      3  N   UNL     1       1.959   6.431  20.457  0.00  0.00    +0.000 NA
ATOM      4  C   UNL     1       2.802   5.928  19.476  0.00  0.00    +0.000 A 
ATOM      5  C   UNL     1       3.430   4.670  19.283  0.00  0.00    +0.000 A 
ATOM      6  N   UNL     1       3.263   3.539  20.065  0.00  0.00    +0.000 N 
ATOM      7  C   UNL     1       2.407   3.509  21.239  0.00  0.00    +0.000 C 
ATOM      8  C   UNL     1       4.143   2.395  19.881  0.00  0.00    +0.000 C 
ATOM      9  N   UNL     1       4.224   4.571  18.170  0.00  0.00    +0.000 NA
ATOM     10  C   UNL     1       4.371   5.603  17.293  0.00  0.00    +0.000 A 
ATOM     11  N   UNL     1       3.794   6.822  17.418  0.00  0.00    +0.000 NA
ATOM     12  C   UNL     1       3.025   6.902  18.511  0.00  0.00    +0.000 A 
ENDROOT
BRANCH  10  13
ATOM     13  C   UNL     1       5.212   5.360  16.033  0.00  0.00    +0.000 C 
ATOM     14  F   UNL     1       4.881   4.229  15.341  0.00  0.00    +0.000 F 
ATOM     15  F   UNL     1       5.104   6.381  15.125  0.00  0.00    +0.000 F 
ATOM     16  F   UNL     1       6.549   5.250  16.293  0.00  0.00    +0.000 F 
ENDBRANCH  10  13
BRANCH   1  17
ATOM     17  C   UNL     1       2.111   9.216  18.165  0.00  0.00    +0.000 C 
BRANCH  17  20
ATOM     18  C   UNL     1      -1.549  10.305  18.008  0.00  0.00    +0.000 A 
ATOM     19  C   UNL     1      -0.354   9.621  17.761  0.00  0.00    +0.000 A 
ATOM     20  C   UNL     1       0.812   9.914  18.487  0.00  0.00    +0.000 A 
ATOM     21  C   UNL     1       0.749  10.876  19.502  0.00  0.00    +0.000 A 
ATOM     22  C   UNL     1      -0.437  11.563  19.756  0.00  0.00    +0.000 A 
ATOM     23  C   UNL     1      -1.591  11.298  19.003  0.00  0.00    +0.000 A 
ATOM     24  C   UNL     1      -2.848  12.082  19.261  0.00  0.00    +0.000 C 
BRANCH  18  26
ATOM     25  C   UNL     1      -2.631  10.380  15.893  0.00  0.00    +0.000 C 
ATOM     26  O   UNL     1      -2.705  10.128  17.291  0.00  0.00    +0.000 OA
ENDBRANCH  18  26
ENDBRANCH  17  20
ENDBRANCH   1  17
TORSDOF 4
ENDMDL
MODEL 3
REMARK VINA RESULT:      -7.7      2.877      5.087
REMARK  Name = 
REMARK  8 active torsions:
REMARK  status: ('A' for Active; 'I' for Inactive)
REMARK    1  A    between atoms: C_1  and  O_2
REMARK    2  A    between atoms: O_2  and  C_3
REMARK    3  A    between atoms: C_5  and  C_6
REMARK    4  A    between atoms: C_6  and  N_7
REMARK    5  A    between atoms: N_12  and  C_13
REMARK    6  A    between atoms: N_12  and  C_14
REMARK    7  A    between atoms: C_16  and  C_17
REMARK    8  A    between atoms: C_25  and  C_26
REMARK                            x       y       z     vdW  Elec       q    Type
REMARK                         _______ _______ _______ _____ _____    ______ ____
ROOT
ATOM      1  N   UNL     1       3.907   5.178  18.213  0.00  0.00    +0.000 N 
ATOM      2  C   UNL     1       3.393   4.202  17.408  0.00  0.00    +0.000 A 
ATOM      3  N   UNL     1       4.132   4.020  16.336  0.00  0.00    +0.000 NA
ATOM      4  C   UNL     1       5.178   4.924  16.445  0.00  0.00    +0.000 A 
ATOM      5  C   UNL     1       6.269   5.259  15.599  0.00  0.00    +0.000 A 
ATOM      6  N   UNL     1       6.507   4.762  14.329  0.00  0.00    +0.000 N 
ATOM      7  C   UNL     1       5.646   3.782  13.689  0.00  0.00    +0.000 C 
ATOM      8  C   UNL     1       7.781   5.022  13.677  0.00  0.00    +0.000 C 
ATOM      9  N   UNL     1       7.120   6.218  16.085  0.00  0.00    +0.000 NA
ATOM     10  C   UNL     1       6.911   6.829  17.285  0.00  0.00    +0.000 A 
ATOM     11  N   UNL     1       5.888   6.560  18.131  0.00  0.00    +0.000 NA
ATOM     12  C   UNL     1       5.068   5.620  17.642  0.00  0.00    +0.000 A 
ENDROOT
BRANCH  10  13
ATOM     13  C   UNL     1       7.873   7.951  17.696  0.00  0.00    +0.000 C 
ATOM     14  F   UNL     1       8.779   8.300  16.735  0.00  0.00    +0.000 F 
ATOM     15  F   UNL     1       7.219   9.113  18.014  0.00  0.00    +0.000 F 
ATOM     16  F   UNL     1       8.616   7.642  18.801  0.00  0.00    +0.000 F 
ENDBRANCH  10  13
BRANCH   1  17
ATOM     17  C   UNL     1       3.337   5.641  19.462  0.00  0.00    +0.000 C 
BRANCH  17  20
ATOM     18  C   UNL     1       1.119   8.661  20.212  0.00  0.00    +0.000 A 
ATOM     19  C   UNL     1       1.867   7.491  20.369  0.00  0.00    +0.000 A 
ATOM     20  C   UNL     1       2.589   6.941  19.297  0.00  0.00    +0.000 A 
ATOM     21  C   UNL     1       2.586   7.614  18.069  0.00  0.00    +0.000 A 
ATOM     22  C   UNL     1       1.843   8.782  17.902  0.00  0.00    +0.000 A 
ATOM     23  C   UNL     1       1.091   9.308  18.963  0.00  0.00    +0.000 A 
ATOM     24  C   UNL     1       0.260  10.543  18.751  0.00  0.00    +0.000 C 
BRANCH  18  26
ATOM     25  C   UNL     1       0.911   9.331  22.483  0.00  0.00    +0.000 C 
ATOM     26  O   UNL     1       0.331   9.214  21.189  0.00  0.00    +0.000 OA
ENDBRANCH  18  26
ENDBRANCH  17  20
ENDBRANCH   1  17
TORSDOF 4
ENDMDL
MODEL 4
REMARK VINA RESULT:      -7.6      1.462      2.200
REMARK  Name = 
REMARK  8 active torsions:
REMARK  status: ('A' for Active; 'I' for Inactive)
REMARK    1  A    between atoms: C_1  and  O_2
REMARK    2  A    between atoms: O_2  and  C_3
REMARK    3  A    between atoms: C_5  and  C_6
REMARK    4  A    between atoms: C_6  and  N_7
REMARK    5  A    between atoms: N_12  and  C_13
REMARK    6  A    between atoms: N_12  and  C_14
REMARK    7  A    between atoms: C_16  and  C_17
REMARK    8  A    between atoms: C_25  and  C_26
REMARK                            x       y       z     vdW  Elec       q    Type
REMARK                         _______ _______ _______ _____ _____    ______ ____
ROOT
ATOM      1  N   UNL     1       2.214   8.079  18.891  0.00  0.00    +0.000 N 
ATOM      2  C   UNL     1       1.583   7.825  20.076  0.00  0.00    +0.000 A 
ATOM      3  N   UNL     1       1.846   6.614  20.514  0.00  0.00    +0.000 NA
ATOM      4  C   UNL     1       2.688   6.047  19.568  0.00  0.00    +0.000 A 
ATOM      5  C   UNL     1       3.277   4.762  19.432  0.00  0.00    +0.000 A 
ATOM      6  N   UNL     1       3.059   3.668  20.252  0.00  0.00    +0.000 N 
ATOM      7  C   UNL     1       2.183   3.709  21.411  0.00  0.00    +0.000 C 
ATOM      8  C   UNL     1       3.903   2.490  20.125  0.00  0.00    +0.000 C 
ATOM      9  N   UNL     1       4.085   4.596  18.337  0.00  0.00    +0.000 NA
ATOM     10  C   UNL     1       4.282   5.590  17.426  0.00  0.00    +0.000 A 
ATOM     11  N   UNL     1       3.744   6.831  17.497  0.00  0.00    +0.000 NA
ATOM     12  C   UNL     1       2.959   6.977  18.572  0.00  0.00    +0.000 A 
ENDROOT
BRANCH  10  13
ATOM     13  C   UNL     1       5.135   5.273  16.192  0.00  0.00    +0.000 C 
ATOM     14  F   UNL     1       6.465   5.106  16.450  0.00  0.00    +0.000 F 
ATOM     15  F   UNL     1       4.742   4.119  15.565  0.00  0.00    +0.000 F 
ATOM     16  F   UNL     1       5.070   6.244  15.231  0.00  0.00    +0.000 F 
ENDBRANCH  10  13
BRANCH   1  17
ATOM     17  C   UNL     1       2.129   9.305  18.125  0.00  0.00    +0.000 C 
BRANCH  17  20
ATOM     18  C   UNL     1      -0.408  11.771  19.570  0.00  0.00    +0.000 A 
ATOM     19  C   UNL     1       0.794  11.120  19.279  0.00  0.00    +0.000 A 
ATOM     20  C   UNL     1       0.837  10.043  18.378  0.00  0.00    +0.000 A 
ATOM     21  C   UNL     1      -0.344   9.659  17.732  0.00  0.00    +0.000 A 
ATOM     22  C   UNL     1      -1.548  10.303  18.014  0.00  0.00    +0.000 A 
ATOM     23  C   UNL     1      -1.597  11.352  18.945  0.00  0.00    +0.000 A 
ATOM     24  C   UNL     1      -2.912  12.004  19.270  0.00  0.00    +0.000 C 
BRANCH  18  26
ATOM     25  C   UNL     1      -0.270  12.436  21.847  0.00  0.00    +0.000 C 
ATOM     26  O   UNL     1      -0.541  12.777  20.493  0.00  0.00    +0.000 OA
ENDBRANCH  18  26
ENDBRANCH  17  20
ENDBRANCH   1  17
TORSDOF 4
ENDMDL
MODEL 5
REMARK VINA RESULT:      -7.5      4.373      7.740
REMARK  Name = 
REMARK  8 active torsions:
REMARK  status: ('A' for Active; 'I' for Inactive)
REMARK    1  A    between atoms: C_1  and  O_2
REMARK    2  A    between atoms: O_2  and  C_3
REMARK    3  A    between atoms: C_5  and  C_6
REMARK    4  A    between atoms: C_6  and  N_7
REMARK    5  A    between atoms: N_12  and  C_13
REMARK    6  A    between atoms: N_12  and  C_14
REMARK    7  A    between atoms: C_16  and  C_17
REMARK    8  A    between atoms: C_25  and  C_26
REMARK                            x       y       z     vdW  Elec       q    Type
REMARK                         _______ _______ _______ _____ _____    ______ ____
ROOT
ATOM      1  N   UNL     1       1.914   8.481  18.923  0.00  0.00    +0.000 N 
ATOM      2  C   UNL     1       1.722   8.951  17.655  0.00  0.00    +0.000 A 
ATOM      3  N   UNL     1       0.782   9.870  17.617  0.00  0.00    +0.000 NA
ATOM      4  C   UNL     1       0.337  10.005  18.924  0.00  0.00    +0.000 A 
ATOM      5  C   UNL     1      -0.684  10.783  19.531  0.00  0.00    +0.000 A 
ATOM      6  N   UNL     1      -1.593  11.598  18.878  0.00  0.00    +0.000 N 
ATOM      7  C   UNL     1      -1.599  11.780  17.436  0.00  0.00    +0.000 C 
ATOM      8  C   UNL     1      -2.430  12.507  19.645  0.00  0.00    +0.000 C 
ATOM      9  N   UNL     1      -0.801  10.647  20.890  0.00  0.00    +0.000 NA
ATOM     10  C   UNL     1      -0.010   9.796  21.602  0.00  0.00    +0.000 A 
ATOM     11  N   UNL     1       0.973   9.024  21.082  0.00  0.00    +0.000 NA
ATOM     12  C   UNL     1       1.075   9.171  19.755  0.00  0.00    +0.000 A 
ENDROOT
BRANCH  10  13
ATOM     13  C   UNL     1      -0.282   9.653  23.105  0.00  0.00    +0.000 C 
ATOM     14  F   UNL     1      -0.902  10.730  23.673  0.00  0.00    +0.000 F 
ATOM     15  F   UNL     1      -1.086   8.581  23.394  0.00  0.00    +0.000 F 
ATOM     16  F   UNL     1       0.854   9.458  23.840  0.00  0.00    +0.000 F 
ENDBRANCH  10  13
BRANCH   1  17
ATOM     17  C   UNL     1       2.858   7.455  19.319  0.00  0.00    +0.000 C 
BRANCH  17  20
ATOM     18  C   UNL     1       1.403   4.013  20.118  0.00  0.00    +0.000 A 
ATOM     19  C   UNL     1       1.870   5.324  20.259  0.00  0.00    +0.000 A 
ATOM     20  C   UNL     1       2.293   6.067  19.144  0.00  0.00    +0.000 A 
ATOM     21  C   UNL     1       2.195   5.488  17.873  0.00  0.00    +0.000 A 
ATOM     22  C   UNL     1       1.730   4.183  17.722  0.00  0.00    +0.000 A 
ATOM     23  C   UNL     1       1.346   3.427  18.840  0.00  0.00    +0.000 A 
ATOM     24  C   UNL     1       0.890   2.005  18.661  0.00  0.00    +0.000 C 
BRANCH  18  26
ATOM     25  C   UNL     1       2.108   2.631  21.918  0.00  0.00    +0.000 C 
ATOM     26  O   UNL     1       1.045   3.201  21.164  0.00  0.00    +0.000 OA
ENDBRANCH  18  26
ENDBRANCH  17  20
ENDBRANCH   1  17
TORSDOF 4
ENDMDL
MODEL 6
REMARK VINA RESULT:      -7.5      1.208      1.455
REMARK  Name = 
REMARK  8 active torsions:
REMARK  status: ('A' for Active; 'I' for Inactive)
REMARK    1  A    between atoms: C_1  and  O_2
REMARK    2  A    between atoms: O_2  and  C_3
REMARK    3  A    between atoms: C_5  and  C_6
REMARK    4  A    between atoms: C_6  and  N_7
REMARK    5  A    between atoms: N_12  and  C_13
REMARK    6  A    between atoms: N_12  and  C_14
REMARK    7  A    between atoms: C_16  and  C_17
REMARK    8  A    between atoms: C_25  and  C_26
REMARK                            x       y       z     vdW  Elec       q    Type
REMARK                         _______ _______ _______ _____ _____    ______ ____
ROOT
ATOM      1  N   UNL     1       2.321   7.686  18.818  0.00  0.00    +0.000 N 
ATOM      2  C   UNL     1       1.681   7.419  19.995  0.00  0.00    +0.000 A 
ATOM      3  N   UNL     1       1.978   6.220  20.445  0.00  0.00    +0.000 NA
ATOM      4  C   UNL     1       2.852   5.676  19.516  0.00  0.00    +0.000 A 
ATOM      5  C   UNL     1       3.485   4.411  19.397  0.00  0.00    +0.000 A 
ATOM      6  N   UNL     1       3.291   3.315  20.221  0.00  0.00    +0.000 N 
ATOM      7  C   UNL     1       2.397   3.334  21.366  0.00  0.00    +0.000 C 
ATOM      8  C   UNL     1       4.175   2.165  20.114  0.00  0.00    +0.000 C 
ATOM      9  N   UNL     1       4.314   4.265  18.315  0.00  0.00    +0.000 NA
ATOM     10  C   UNL     1       4.491   5.259  17.400  0.00  0.00    +0.000 A 
ATOM     11  N   UNL     1       3.911   6.482  17.454  0.00  0.00    +0.000 NA
ATOM     12  C   UNL     1       3.107   6.608  18.517  0.00  0.00    +0.000 A 
ENDROOT
BRANCH  10  13
ATOM     13  C   UNL     1       5.372   4.962  16.180  0.00  0.00    +0.000 C 
ATOM     14  F   UNL     1       5.865   6.072  15.554  0.00  0.00    +0.000 F 
ATOM     15  F   UNL     1       6.473   4.210  16.498  0.00  0.00    +0.000 F 
ATOM     16  F   UNL     1       4.722   4.255  15.208  0.00  0.00    +0.000 F 
ENDBRANCH  10  13
BRANCH   1  17
ATOM     17  C   UNL     1       2.207   8.905  18.042  0.00  0.00    +0.000 C 
BRANCH  17  20
ATOM     18  C   UNL     1      -1.221  10.586  18.209  0.00  0.00    +0.000 A 
ATOM     19  C   UNL     1      -0.170   9.747  17.827  0.00  0.00    +0.000 A 
ATOM     20  C   UNL     1       1.059   9.767  18.508  0.00  0.00    +0.000 A 
ATOM     21  C   UNL     1       1.202  10.614  19.613  0.00  0.00    +0.000 A 
ATOM     22  C   UNL     1       0.160  11.455  20.002  0.00  0.00    +0.000 A 
ATOM     23  C   UNL     1      -1.053  11.462  19.297  0.00  0.00    +0.000 A 
ATOM     24  C   UNL     1      -2.149  12.409  19.704  0.00  0.00    +0.000 C 
BRANCH  18  26
ATOM     25  C   UNL     1      -3.271   9.539  17.619  0.00  0.00    +0.000 C 
ATOM     26  O   UNL     1      -2.420  10.677  17.549  0.00  0.00    +0.000 OA
ENDBRANCH  18  26
ENDBRANCH  17  20
ENDBRANCH   1  17
TORSDOF 4
ENDMDL
MODEL 7
REMARK VINA RESULT:      -7.3      4.265      8.027
REMARK  Name = 
REMARK  8 active torsions:
REMARK  status: ('A' for Active; 'I' for Inactive)
REMARK    1  A    between atoms: C_1  and  O_2
REMARK    2  A    between atoms: O_2  and  C_3
REMARK    3  A    between atoms: C_5  and  C_6
REMARK    4  A    between atoms: C_6  and  N_7
REMARK    5  A    between atoms: N_12  and  C_13
REMARK    6  A    between atoms: N_12  and  C_14
REMARK    7  A    between atoms: C_16  and  C_17
REMARK    8  A    between atoms: C_25  and  C_26
REMARK                            x       y       z     vdW  Elec       q    Type
REMARK                         _______ _______ _______ _____ _____    ______ ____
ROOT
ATOM      1  N   UNL     1       4.788   5.080  17.223  0.00  0.00    +0.000 N 
ATOM      2  C   UNL     1       4.783   6.330  16.672  0.00  0.00    +0.000 A 
ATOM      3  N   UNL     1       4.006   7.151  17.343  0.00  0.00    +0.000 NA
ATOM      4  C   UNL     1       3.475   6.400  18.382  0.00  0.00    +0.000 A 
ATOM      5  C   UNL     1       2.540   6.685  19.412  0.00  0.00    +0.000 A 
ATOM      6  N   UNL     1       1.830   7.862  19.574  0.00  0.00    +0.000 N 
ATOM      7  C   UNL     1       1.978   9.004  18.688  0.00  0.00    +0.000 C 
ATOM      8  C   UNL     1       1.082   8.093  20.800  0.00  0.00    +0.000 C 
ATOM      9  N   UNL     1       2.285   5.654  20.279  0.00  0.00    +0.000 NA
ATOM     10  C   UNL     1       2.867   4.430  20.139  0.00  0.00    +0.000 A 
ATOM     11  N   UNL     1       3.759   4.096  19.176  0.00  0.00    +0.000 NA
ATOM     12  C   UNL     1       3.998   5.114  18.340  0.00  0.00    +0.000 A 
ENDROOT
BRANCH  10  13
ATOM     13  C   UNL     1       2.447   3.320  21.110  0.00  0.00    +0.000 C 
ATOM     14  F   UNL     1       1.303   2.662  20.757  0.00  0.00    +0.000 F 
ATOM     15  F   UNL     1       3.400   2.343  21.235  0.00  0.00    +0.000 F 
ATOM     16  F   UNL     1       2.228   3.773  22.381  0.00  0.00    +0.000 F 
ENDBRANCH  10  13
BRANCH   1  17
ATOM     17  C   UNL     1       5.522   3.933  16.728  0.00  0.00    +0.000 C 
BRANCH  17  20
ATOM     18  C   UNL     1       5.828   3.595  12.934  0.00  0.00    +0.000 A 
ATOM     19  C   UNL     1       5.361   3.469  14.246  0.00  0.00    +0.000 A 
ATOM     20  C   UNL     1       5.996   4.132  15.309  0.00  0.00    +0.000 A 
ATOM     21  C   UNL     1       7.084   4.966  15.028  0.00  0.00    +0.000 A 
ATOM     22  C   UNL     1       7.558   5.099  13.724  0.00  0.00    +0.000 A 
ATOM     23  C   UNL     1       6.947   4.405  12.668  0.00  0.00    +0.000 A 
ATOM     24  C   UNL     1       7.501   4.526  11.275  0.00  0.00    +0.000 C 
BRANCH  18  26
ATOM     25  C   UNL     1       4.033   3.348  11.396  0.00  0.00    +0.000 C 
ATOM     26  O   UNL     1       5.309   2.921  11.858  0.00  0.00    +0.000 OA
ENDBRANCH  18  26
ENDBRANCH  17  20
ENDBRANCH   1  17
TORSDOF 4
ENDMDL
MODEL 8
REMARK VINA RESULT:      -7.3      2.636      3.798
REMARK  Name = 
REMARK  8 active torsions:
REMARK  status: ('A' for Active; 'I' for Inactive)
REMARK    1  A    between atoms: C_1  and  O_2
REMARK    2  A    between atoms: O_2  and  C_3
REMARK    3  A    between atoms: C_5  and  C_6
REMARK    4  A    between atoms: C_6  and  N_7
REMARK    5  A    between atoms: N_12  and  C_13
REMARK    6  A    between atoms: N_12  and  C_14
REMARK    7  A    between atoms: C_16  and  C_17
REMARK    8  A    between atoms: C_25  and  C_26
REMARK                            x       y       z     vdW  Elec       q    Type
REMARK                         _______ _______ _______ _____ _____    ______ ____
ROOT
ATOM      1  N   UNL     1       1.847   8.051  19.567  0.00  0.00    +0.000 N 
ATOM      2  C   UNL     1       2.345   8.719  18.485  0.00  0.00    +0.000 A 
ATOM      3  N   UNL     1       3.078   7.934  17.726  0.00  0.00    +0.000 NA
ATOM      4  C   UNL     1       3.060   6.692  18.345  0.00  0.00    +0.000 A 
ATOM      5  C   UNL     1       3.690   5.452  18.060  0.00  0.00    +0.000 A 
ATOM      6  N   UNL     1       4.605   5.209  17.050  0.00  0.00    +0.000 N 
ATOM      7  C   UNL     1       5.032   6.228  16.107  0.00  0.00    +0.000 C 
ATOM      8  C   UNL     1       4.991   3.841  16.738  0.00  0.00    +0.000 C 
ATOM      9  N   UNL     1       3.396   4.429  18.924  0.00  0.00    +0.000 NA
ATOM     10  C   UNL     1       2.579   4.603  20.000  0.00  0.00    +0.000 A 
ATOM     11  N   UNL     1       1.956   5.760  20.328  0.00  0.00    +0.000 NA
ATOM     12  C   UNL     1       2.252   6.748  19.474  0.00  0.00    +0.000 A 
ENDROOT
BRANCH  10  13
ATOM     13  C   UNL     1       2.386   3.417  20.953  0.00  0.00    +0.000 C 
ATOM     14  F   UNL     1       3.360   2.462  20.874  0.00  0.00    +0.000 F 
ATOM     15  F   UNL     1       2.362   3.799  22.269  0.00  0.00    +0.000 F 
ATOM     16  F   UNL     1       1.208   2.752  20.750  0.00  0.00    +0.000 F 
ENDBRANCH  10  13
BRANCH   1  17
ATOM     17  C   UNL     1       1.017   8.616  20.611  0.00  0.00    +0.000 C 
BRANCH  17  20
ATOM     18  C   UNL     1      -0.863  11.469  18.898  0.00  0.00    +0.000 A 
ATOM     19  C   UNL     1      -0.451  10.187  19.276  0.00  0.00    +0.000 A 
ATOM     20  C   UNL     1       0.533  10.003  20.261  0.00  0.00    +0.000 A 
ATOM     21  C   UNL     1       1.065  11.129  20.900  0.00  0.00    +0.000 A 
ATOM     22  C   UNL     1       0.661  12.411  20.531  0.00  0.00    +0.000 A 
ATOM     23  C   UNL     1      -0.293  12.596  19.518  0.00  0.00    +0.000 A 
ATOM     24  C   UNL     1      -0.682  13.987  19.103  0.00  0.00    +0.000 C 
BRANCH  18  26
ATOM     25  C   UNL     1      -2.169  10.621  17.102  0.00  0.00    +0.000 C 
ATOM     26  O   UNL     1      -1.760  11.730  17.893  0.00  0.00    +0.000 OA
ENDBRANCH  18  26
ENDBRANCH  17  20
ENDBRANCH   1  17
TORSDOF 4
ENDMDL
MODEL 9
REMARK VINA RESULT:      -7.3      3.123      4.430
REMARK  Name = 
REMARK  8 active torsions:
REMARK  status: ('A' for Active; 'I' for Inactive)
REMARK    1  A    between atoms: C_1  and  O_2
REMARK    2  A    between atoms: O_2  and  C_3
REMARK    3  A    between atoms: C_5  and  C_6
REMARK    4  A    between atoms: C_6  and  N_7
REMARK    5  A    between atoms: N_12  and  C_13
REMARK    6  A    between atoms: N_12  and  C_14
REMARK    7  A    between atoms: C_16  and  C_17
REMARK    8  A    between atoms: C_25  and  C_26
REMARK                            x       y       z     vdW  Elec       q    Type
REMARK                         _______ _______ _______ _____ _____    ______ ____
ROOT
ATOM      1  N   UNL     1       1.866   7.910  19.676  0.00  0.00    +0.000 N 
ATOM      2  C   UNL     1       2.315   8.639  18.612  0.00  0.00    +0.000 A 
ATOM      3  N   UNL     1       3.052   7.911  17.803  0.00  0.00    +0.000 NA
ATOM      4  C   UNL     1       3.088   6.644  18.368  0.00  0.00    +0.000 A 
ATOM      5  C   UNL     1       3.749   5.438  18.014  0.00  0.00    +0.000 A 
ATOM      6  N   UNL     1       4.645   5.267  16.973  0.00  0.00    +0.000 N 
ATOM      7  C   UNL     1       5.017   6.339  16.065  0.00  0.00    +0.000 C 
ATOM      8  C   UNL     1       5.065   3.927  16.592  0.00  0.00    +0.000 C 
ATOM      9  N   UNL     1       3.509   4.370  18.839  0.00  0.00    +0.000 NA
ATOM     10  C   UNL     1       2.714   4.472  19.942  0.00  0.00    +0.000 A 
ATOM     11  N   UNL     1       2.064   5.593  20.334  0.00  0.00    +0.000 NA
ATOM     12  C   UNL     1       2.308   6.626  19.517  0.00  0.00    +0.000 A 
ENDROOT
BRANCH  10  13
ATOM     13  C   UNL     1       2.581   3.240  20.846  0.00  0.00    +0.000 C 
ATOM     14  F   UNL     1       3.698   2.456  20.903  0.00  0.00    +0.000 F 
ATOM     15  F   UNL     1       2.308   3.573  22.148  0.00  0.00    +0.000 F 
ATOM     16  F   UNL     1       1.568   2.404  20.468  0.00  0.00    +0.000 F 
ENDBRANCH  10  13
BRANCH   1  17
ATOM     17  C   UNL     1       1.044   8.404  20.763  0.00  0.00    +0.000 C 
BRANCH  17  20
ATOM     18  C   UNL     1       0.646  12.203  20.857  0.00  0.00    +0.000 A 
ATOM     19  C   UNL     1       1.156  10.916  21.048  0.00  0.00    +0.000 A 
ATOM     20  C   UNL     1       0.521   9.793  20.492  0.00  0.00    +0.000 A 
ATOM     21  C   UNL     1      -0.614   9.988  19.696  0.00  0.00    +0.000 A 
ATOM     22  C   UNL     1      -1.131  11.268  19.499  0.00  0.00    +0.000 A 
ATOM     23  C   UNL     1      -0.519  12.384  20.088  0.00  0.00    +0.000 A 
ATOM     24  C   UNL     1      -1.117  13.751  19.901  0.00  0.00    +0.000 C 
BRANCH  18  26
ATOM     25  C   UNL     1       2.407  13.799  20.909  0.00  0.00    +0.000 C 
ATOM     26  O   UNL     1       1.166  13.337  21.429  0.00  0.00    +0.000 OA
ENDBRANCH  18  26
ENDBRANCH  17  20
ENDBRANCH   1  17
TORSDOF 4
ENDMDL
