MODEL 1
REMARK VINA RESULT:      -6.1      0.000      0.000
REMARK  Name = 
REMARK  9 active torsions:
REMARK  status: ('A' for Active; 'I' for Inactive)
REMARK    1  A    between atoms: C_1  and  C_2
REMARK    2  A    between atoms: C_2  and  O_3
REMARK    3  A    between atoms: O_3  and  C_4
REMARK    4  A    between atoms: C_4  and  C_6
REMARK    5  A    between atoms: C_6  and  C_7
REMARK    6  A    between atoms: C_11  and  C_12
REMARK    7  A    between atoms: C_16  and  C_17
REMARK    8  A    between atoms: N_26  and  C_27
REMARK    9  A    between atoms: C_32  and  N_33
REMARK                            x       y       z     vdW  Elec       q    Type
REMARK                         _______ _______ _______ _____ _____    ______ ____
ROOT
ATOM      1  C   UNL     1      -4.957  13.531  21.884  0.00  0.00    +0.000 C 
ATOM      2  C   UNL     1      -6.346  13.436  21.197  0.00  0.00    +0.000 C 
ATOM      3  C   UNL     1      -5.129  13.036  23.340  0.00  0.00    +0.000 C 
ATOM      4  C   UNL     1      -3.836  12.803  24.133  0.00  0.00    +0.000 C 
ATOM      5  C   UNL     1      -2.673  12.116  23.379  0.00  0.00    +0.000 C 
ATOM      6  C   UNL     1      -2.446  12.657  21.931  0.00  0.00    +0.000 C 
ATOM      7  C   UNL     1      -1.929  14.094  22.121  0.00  0.00    +0.000 C 
ATOM      8  C   UNL     1      -1.362  11.782  21.122  0.00  0.00    +0.000 C 
ATOM      9  C   UNL     1       0.152  11.905  21.585  0.00  0.00    +0.000 C 
ATOM     10  C   UNL     1       1.262  11.363  20.610  0.00  0.00    +0.000 C 
ATOM     11  C   UNL     1       0.911  11.565  19.121  0.00  0.00    +0.000 C 
ATOM     12  C   UNL     1       1.838  10.911  18.107  0.00  0.00    +0.000 C 
ATOM     13  C   UNL     1      -0.506  10.921  18.929  0.00  0.00    +0.000 C 
ATOM     14  C   UNL     1      -1.461  11.984  19.564  0.00  0.00    +0.000 C 
ATOM     15  C   UNL     1      -2.858  11.787  19.022  0.00  0.00    +0.000 C 
ATOM     16  C   UNL     1      -3.860  12.702  19.687  0.00  0.00    +0.000 C 
ATOM     17  C   UNL     1      -3.873  12.595  21.220  0.00  0.00    +0.000 C 
ATOM     18  C   UNL     1      -0.767  13.239  19.115  0.00  0.00    +0.000 A 
ATOM     19  C   UNL     1      -0.930  14.617  19.039  0.00  0.00    +0.000 A 
ATOM     20  N   UNL     1       0.259  15.233  19.014  0.00  0.00    +0.000 NA
ATOM     21  N   UNL     1       1.178  14.230  19.019  0.00  0.00    +0.000 N 
ATOM     22  C   UNL     1       0.569  13.009  18.883  0.00  0.00    +0.000 A 
ENDROOT
BRANCH  21  23
ATOM     23  C   UNL     1       2.536  14.538  19.195  0.00  0.00    +0.000 A 
ATOM     24  C   UNL     1       3.450  14.239  18.180  0.00  0.00    +0.000 A 
ATOM     25  C   UNL     1       4.786  14.620  18.307  0.00  0.00    +0.000 A 
ATOM     26  C   UNL     1       5.234  15.290  19.445  0.00  0.00    +0.000 A 
ATOM     27  C   UNL     1       4.333  15.594  20.478  0.00  0.00    +0.000 A 
ATOM     28  C   UNL     1       2.984  15.230  20.335  0.00  0.00    +0.000 A 
BRANCH  28  29
ATOM     29  N   UNL     1       2.145  15.412  21.514  0.00  0.00    +0.000 N 
ATOM     30  O   UNL     1       2.097  14.471  22.317  0.00  0.00    +0.000 OA
ATOM     31  O   UNL     1       1.664  16.541  21.696  0.00  0.00    +0.000 OA
ENDBRANCH  28  29
ENDBRANCH  21  23
BRANCH   1  32
ATOM     32  C   UNL     1      -4.638  15.034  21.711  0.00  0.00    +0.000 C 
ATOM     33  O   UNL     1      -4.375  15.549  20.629  0.00  0.00    +0.000 OA
BRANCH  32  34
ATOM     34  O   UNL     1      -4.712  15.737  22.874  0.00  0.00    +0.000 OA
BRANCH  34  36
ATOM     35  C   UNL     1      -6.993  16.384  23.418  0.00  0.00    +0.000 C 
ATOM     36  C   UNL     1      -5.651  16.830  22.866  0.00  0.00    +0.000 C 
ENDBRANCH  34  36
ENDBRANCH  32  34
ENDBRANCH   1  32
TORSDOF 5
ENDMDL
MODEL 2
REMARK VINA RESULT:      -5.9      1.557      1.883
REMARK  Name = 
REMARK  9 active torsions:
REMARK  status: ('A' for Active; 'I' for Inactive)
REMARK    1  A    between atoms: C_1  and  C_2
REMARK    2  A    between atoms: C_2  and  O_3
REMARK    3  A    between atoms: O_3  and  C_4
REMARK    4  A    between atoms: C_4  and  C_6
REMARK    5  A    between atoms: C_6  and  C_7
REMARK    6  A    between atoms: C_11  and  C_12
REMARK    7  A    between atoms: C_16  and  C_17
REMARK    8  A    between atoms: N_26  and  C_27
REMARK    9  A    between atoms: C_32  and  N_33
REMARK                            x       y       z     vdW  Elec       q    Type
REMARK                         _______ _______ _______ _____ _____    ______ ____
ROOT
ATOM      1  C   UNL     1      -5.447  13.720  22.447  0.00  0.00    +0.000 C 
ATOM      2  C   UNL     1      -6.783  13.777  21.660  0.00  0.00    +0.000 C 
ATOM      3  C   UNL     1      -5.735  13.007  23.791  0.00  0.00    +0.000 C 
ATOM      4  C   UNL     1      -4.509  12.611  24.624  0.00  0.00    +0.000 C 
ATOM      5  C   UNL     1      -3.307  12.016  23.852  0.00  0.00    +0.000 C 
ATOM      6  C   UNL     1      -2.964  12.770  22.528  0.00  0.00    +0.000 C 
ATOM      7  C   UNL     1      -2.434  14.142  22.981  0.00  0.00    +0.000 C 
ATOM      8  C   UNL     1      -1.842  12.000  21.667  0.00  0.00    +0.000 C 
ATOM      9  C   UNL     1      -0.363  12.001  22.248  0.00  0.00    +0.000 C 
ATOM     10  C   UNL     1       0.804  11.585  21.279  0.00  0.00    +0.000 C 
ATOM     11  C   UNL     1       0.568  12.030  19.820  0.00  0.00    +0.000 C 
ATOM     12  C   UNL     1       1.553  11.516  18.781  0.00  0.00    +0.000 C 
ATOM     13  C   UNL     1      -0.845  11.470  19.429  0.00  0.00    +0.000 C 
ATOM     14  C   UNL     1      -1.822  12.449  20.158  0.00  0.00    +0.000 C 
ATOM     15  C   UNL     1      -3.178  12.383  19.496  0.00  0.00    +0.000 C 
ATOM     16  C   UNL     1      -4.208  13.213  20.228  0.00  0.00    +0.000 C 
ATOM     17  C   UNL     1      -4.336  12.866  21.719  0.00  0.00    +0.000 C 
ATOM     18  C   UNL     1      -1.072  13.736  19.965  0.00  0.00    +0.000 A 
ATOM     19  C   UNL     1      -1.201  15.113  20.098  0.00  0.00    +0.000 A 
ATOM     20  N   UNL     1      -0.001  15.688  20.255  0.00  0.00    +0.000 NA
ATOM     21  N   UNL     1       0.895  14.669  20.163  0.00  0.00    +0.000 N 
ATOM     22  C   UNL     1       0.273  13.504  19.792  0.00  0.00    +0.000 A 
ENDROOT
BRANCH  21  23
ATOM     23  C   UNL     1       2.242  14.902  20.480  0.00  0.00    +0.000 A 
ATOM     24  C   UNL     1       2.667  14.805  21.808  0.00  0.00    +0.000 A 
ATOM     25  C   UNL     1       4.018  14.947  22.122  0.00  0.00    +0.000 A 
ATOM     26  C   UNL     1       4.962  15.198  21.127  0.00  0.00    +0.000 A 
ATOM     27  C   UNL     1       4.555  15.305  19.787  0.00  0.00    +0.000 A 
ATOM     28  C   UNL     1       3.196  15.136  19.473  0.00  0.00    +0.000 A 
BRANCH  28  29
ATOM     29  N   UNL     1       2.818  15.437  18.097  0.00  0.00    +0.000 N 
ATOM     30  O   UNL     1       2.683  14.474  17.331  0.00  0.00    +0.000 OA
ATOM     31  O   UNL     1       2.520  16.613  17.837  0.00  0.00    +0.000 OA
ENDBRANCH  28  29
ENDBRANCH  21  23
BRANCH   1  32
ATOM     32  C   UNL     1      -5.086  15.220  22.540  0.00  0.00    +0.000 C 
ATOM     33  O   UNL     1      -4.708  15.884  21.579  0.00  0.00    +0.000 OA
BRANCH  32  34
ATOM     34  O   UNL     1      -5.263  15.741  23.784  0.00  0.00    +0.000 OA
BRANCH  34  36
ATOM     35  C   UNL     1      -3.666  16.842  25.253  0.00  0.00    +0.000 C 
ATOM     36  C   UNL     1      -4.561  16.974  24.033  0.00  0.00    +0.000 C 
ENDBRANCH  34  36
ENDBRANCH  32  34
ENDBRANCH   1  32
TORSDOF 5
ENDMDL
MODEL 3
REMARK VINA RESULT:      -5.9      2.819      7.591
REMARK  Name = 
REMARK  9 active torsions:
REMARK  status: ('A' for Active; 'I' for Inactive)
REMARK    1  A    between atoms: C_1  and  C_2
REMARK    2  A    between atoms: C_2  and  O_3
REMARK    3  A    between atoms: O_3  and  C_4
REMARK    4  A    between atoms: C_4  and  C_6
REMARK    5  A    between atoms: C_6  and  C_7
REMARK    6  A    between atoms: C_11  and  C_12
REMARK    7  A    between atoms: C_16  and  C_17
REMARK    8  A    between atoms: N_26  and  C_27
REMARK    9  A    between atoms: C_32  and  N_33
REMARK                            x       y       z     vdW  Elec       q    Type
REMARK                         _______ _______ _______ _____ _____    ______ ____
ROOT
ATOM      1  C   UNL     1       1.902  16.499  20.127  0.00  0.00    +0.000 C 
ATOM      2  C   UNL     1       2.625  17.755  20.685  0.00  0.00    +0.000 C 
ATOM      3  C   UNL     1       2.986  15.580  19.513  0.00  0.00    +0.000 C 
ATOM      4  C   UNL     1       2.536  14.165  19.127  0.00  0.00    +0.000 C 
ATOM      5  C   UNL     1       1.600  13.439  20.123  0.00  0.00    +0.000 C 
ATOM      6  C   UNL     1       0.460  14.339  20.697  0.00  0.00    +0.000 C 
ATOM      7  C   UNL     1      -0.465  14.618  19.499  0.00  0.00    +0.000 C 
ATOM      8  C   UNL     1      -0.361  13.600  21.870  0.00  0.00    +0.000 C 
ATOM      9  C   UNL     1      -1.301  12.394  21.441  0.00  0.00    +0.000 C 
ATOM     10  C   UNL     1      -2.372  11.896  22.479  0.00  0.00    +0.000 C 
ATOM     11  C   UNL     1      -2.956  13.035  23.340  0.00  0.00    +0.000 C 
ATOM     12  C   UNL     1      -3.863  12.625  24.491  0.00  0.00    +0.000 C 
ATOM     13  C   UNL     1      -1.719  13.767  23.970  0.00  0.00    +0.000 C 
ATOM     14  C   UNL     1      -1.166  14.608  22.773  0.00  0.00    +0.000 C 
ATOM     15  C   UNL     1      -0.320  15.739  23.309  0.00  0.00    +0.000 C 
ATOM     16  C   UNL     1       0.350  16.520  22.202  0.00  0.00    +0.000 C 
ATOM     17  C   UNL     1       1.183  15.651  21.247  0.00  0.00    +0.000 C 
ATOM     18  C   UNL     1      -2.464  15.018  22.138  0.00  0.00    +0.000 A 
ATOM     19  C   UNL     1      -2.995  15.868  21.176  0.00  0.00    +0.000 A 
ATOM     20  N   UNL     1      -4.161  15.393  20.717  0.00  0.00    +0.000 NA
ATOM     21  N   UNL     1      -4.391  14.263  21.438  0.00  0.00    +0.000 N 
ATOM     22  C   UNL     1      -3.466  14.126  22.441  0.00  0.00    +0.000 A 
ENDROOT
BRANCH  21  23
ATOM     23  C   UNL     1      -5.443  13.410  21.069  0.00  0.00    +0.000 A 
ATOM     24  C   UNL     1      -5.232  12.437  20.087  0.00  0.00    +0.000 A 
ATOM     25  C   UNL     1      -6.242  11.527  19.776  0.00  0.00    +0.000 A 
ATOM     26  C   UNL     1      -7.476  11.577  20.424  0.00  0.00    +0.000 A 
ATOM     27  C   UNL     1      -7.710  12.550  21.409  0.00  0.00    +0.000 A 
ATOM     28  C   UNL     1      -6.681  13.449  21.736  0.00  0.00    +0.000 A 
BRANCH  28  29
ATOM     29  N   UNL     1      -7.048  14.540  22.631  0.00  0.00    +0.000 N 
ATOM     30  O   UNL     1      -6.822  14.375  23.838  0.00  0.00    +0.000 OA
ATOM     31  O   UNL     1      -7.420  15.601  22.106  0.00  0.00    +0.000 OA
ENDBRANCH  28  29
ENDBRANCH  21  23
BRANCH   1  32
ATOM     32  C   UNL     1       0.911  17.140  19.129  0.00  0.00    +0.000 C 
ATOM     33  O   UNL     1      -0.105  17.734  19.474  0.00  0.00    +0.000 OA
BRANCH  32  34
ATOM     34  O   UNL     1       1.295  17.010  17.830  0.00  0.00    +0.000 OA
BRANCH  34  36
ATOM     35  C   UNL     1       0.338  18.454  16.121  0.00  0.00    +0.000 C 
ATOM     36  C   UNL     1       1.465  18.251  17.118  0.00  0.00    +0.000 C 
ENDBRANCH  34  36
ENDBRANCH  32  34
ENDBRANCH   1  32
TORSDOF 5
ENDMDL
MODEL 4
REMARK VINA RESULT:      -5.9      2.890      7.433
REMARK  Name = 
REMARK  9 active torsions:
REMARK  status: ('A' for Active; 'I' for Inactive)
REMARK    1  A    between atoms: C_1  and  C_2
REMARK    2  A    between atoms: C_2  and  O_3
REMARK    3  A    between atoms: O_3  and  C_4
REMARK    4  A    between atoms: C_4  and  C_6
REMARK    5  A    between atoms: C_6  and  C_7
REMARK    6  A    between atoms: C_11  and  C_12
REMARK    7  A    between atoms: C_16  and  C_17
REMARK    8  A    between atoms: N_26  and  C_27
REMARK    9  A    between atoms: C_32  and  N_33
REMARK                            x       y       z     vdW  Elec       q    Type
REMARK                         _______ _______ _______ _____ _____    ______ ____
ROOT
ATOM      1  C   UNL     1       0.645  11.338  19.621  0.00  0.00    +0.000 C 
ATOM      2  C   UNL     1       1.937  11.648  18.819  0.00  0.00    +0.000 C 
ATOM      3  C   UNL     1       0.768   9.888  20.149  0.00  0.00    +0.000 C 
ATOM      4  C   UNL     1      -0.280   9.452  21.182  0.00  0.00    +0.000 C 
ATOM      5  C   UNL     1      -0.645  10.482  22.277  0.00  0.00    +0.000 C 
ATOM      6  C   UNL     1      -0.839  11.937  21.745  0.00  0.00    +0.000 C 
ATOM      7  C   UNL     1      -2.118  11.879  20.891  0.00  0.00    +0.000 C 
ATOM      8  C   UNL     1      -1.021  13.000  22.942  0.00  0.00    +0.000 C 
ATOM      9  C   UNL     1      -2.382  12.938  23.758  0.00  0.00    +0.000 C 
ATOM     10  C   UNL     1      -2.743  14.166  24.673  0.00  0.00    +0.000 C 
ATOM     11  C   UNL     1      -2.278  15.515  24.087  0.00  0.00    +0.000 C 
ATOM     12  C   UNL     1      -2.422  16.735  24.984  0.00  0.00    +0.000 C 
ATOM     13  C   UNL     1      -0.747  15.342  23.790  0.00  0.00    +0.000 C 
ATOM     14  C   UNL     1      -0.740  14.480  22.485  0.00  0.00    +0.000 C 
ATOM     15  C   UNL     1       0.587  14.649  21.784  0.00  0.00    +0.000 C 
ATOM     16  C   UNL     1       0.711  13.746  20.579  0.00  0.00    +0.000 C 
ATOM     17  C   UNL     1       0.469  12.261  20.890  0.00  0.00    +0.000 C 
ATOM     18  C   UNL     1      -1.922  15.085  21.783  0.00  0.00    +0.000 A 
ATOM     19  C   UNL     1      -2.576  15.112  20.557  0.00  0.00    +0.000 A 
ATOM     20  N   UNL     1      -3.866  15.436  20.716  0.00  0.00    +0.000 NA
ATOM     21  N   UNL     1      -4.011  15.670  22.048  0.00  0.00    +0.000 N 
ATOM     22  C   UNL     1      -2.795  15.652  22.682  0.00  0.00    +0.000 A 
ENDROOT
BRANCH  21  23
ATOM     23  C   UNL     1      -5.296  15.845  22.583  0.00  0.00    +0.000 A 
ATOM     24  C   UNL     1      -5.657  17.082  23.126  0.00  0.00    +0.000 A 
ATOM     25  C   UNL     1      -6.958  17.293  23.581  0.00  0.00    +0.000 A 
ATOM     26  C   UNL     1      -7.915  16.281  23.512  0.00  0.00    +0.000 A 
ATOM     27  C   UNL     1      -7.571  15.029  22.975  0.00  0.00    +0.000 A 
ATOM     28  C   UNL     1      -6.265  14.829  22.497  0.00  0.00    +0.000 A 
BRANCH  28  29
ATOM     29  N   UNL     1      -5.927  13.461  22.121  0.00  0.00    +0.000 N 
ATOM     30  O   UNL     1      -5.561  12.705  23.032  0.00  0.00    +0.000 OA
ATOM     31  O   UNL     1      -6.169  13.119  20.954  0.00  0.00    +0.000 OA
ENDBRANCH  28  29
ENDBRANCH  21  23
BRANCH   1  32
ATOM     32  C   UNL     1      -0.442  11.579  18.548  0.00  0.00    +0.000 C 
ATOM     33  O   UNL     1      -0.801  12.697  18.190  0.00  0.00    +0.000 OA
BRANCH  32  34
ATOM     34  O   UNL     1      -0.936  10.430  18.014  0.00  0.00    +0.000 OA
BRANCH  34  36
ATOM     35  C   UNL     1      -2.552   9.789  16.312  0.00  0.00    +0.000 C 
ATOM     36  C   UNL     1      -2.328  10.479  17.645  0.00  0.00    +0.000 C 
ENDBRANCH  34  36
ENDBRANCH  32  34
ENDBRANCH   1  32
TORSDOF 5
ENDMDL
MODEL 5
REMARK VINA RESULT:      -5.8      2.827      4.755
REMARK  Name = 
REMARK  9 active torsions:
REMARK  status: ('A' for Active; 'I' for Inactive)
REMARK    1  A    between atoms: C_1  and  C_2
REMARK    2  A    between atoms: C_2  and  O_3
REMARK    3  A    between atoms: O_3  and  C_4
REMARK    4  A    between atoms: C_4  and  C_6
REMARK    5  A    between atoms: C_6  and  C_7
REMARK    6  A    between atoms: C_11  and  C_12
REMARK    7  A    between atoms: C_16  and  C_17
REMARK    8  A    between atoms: N_26  and  C_27
REMARK    9  A    between atoms: C_32  and  N_33
REMARK                            x       y       z     vdW  Elec       q    Type
REMARK                         _______ _______ _______ _____ _____    ______ ____
ROOT
ATOM      1  C   UNL     1      -6.173  13.649  23.195  0.00  0.00    +0.000 C 
ATOM      2  C   UNL     1      -6.302  12.506  24.239  0.00  0.00    +0.000 C 
ATOM      3  C   UNL     1      -7.455  14.510  23.295  0.00  0.00    +0.000 C 
ATOM      4  C   UNL     1      -7.437  15.843  22.535  0.00  0.00    +0.000 C 
ATOM      5  C   UNL     1      -6.130  16.667  22.611  0.00  0.00    +0.000 C 
ATOM      6  C   UNL     1      -4.830  15.817  22.443  0.00  0.00    +0.000 C 
ATOM      7  C   UNL     1      -4.853  15.346  20.978  0.00  0.00    +0.000 C 
ATOM      8  C   UNL     1      -3.501  16.682  22.725  0.00  0.00    +0.000 C 
ATOM      9  C   UNL     1      -3.119  17.786  21.648  0.00  0.00    +0.000 C 
ATOM     10  C   UNL     1      -1.666  18.386  21.699  0.00  0.00    +0.000 C 
ATOM     11  C   UNL     1      -0.601  17.358  22.133  0.00  0.00    +0.000 C 
ATOM     12  C   UNL     1       0.801  17.892  22.385  0.00  0.00    +0.000 C 
ATOM     13  C   UNL     1      -1.116  16.761  23.490  0.00  0.00    +0.000 C 
ATOM     14  C   UNL     1      -2.247  15.783  23.034  0.00  0.00    +0.000 C 
ATOM     15  C   UNL     1      -2.493  14.765  24.122  0.00  0.00    +0.000 C 
ATOM     16  C   UNL     1      -3.662  13.862  23.801  0.00  0.00    +0.000 C 
ATOM     17  C   UNL     1      -4.961  14.618  23.487  0.00  0.00    +0.000 C 
ATOM     18  C   UNL     1      -1.618  15.246  21.779  0.00  0.00    +0.000 A 
ATOM     19  C   UNL     1      -1.762  14.254  20.816  0.00  0.00    +0.000 A 
ATOM     20  N   UNL     1      -1.179  14.623  19.668  0.00  0.00    +0.000 NA
ATOM     21  N   UNL     1      -0.615  15.833  19.928  0.00  0.00    +0.000 N 
ATOM     22  C   UNL     1      -0.706  16.137  21.262  0.00  0.00    +0.000 A 
ENDROOT
BRANCH  21  23
ATOM     23  C   UNL     1      -0.087  16.591  18.872  0.00  0.00    +0.000 A 
ATOM     24  C   UNL     1      -0.919  17.465  18.165  0.00  0.00    +0.000 A 
ATOM     25  C   UNL     1      -0.386  18.288  17.173  0.00  0.00    +0.000 A 
ATOM     26  C   UNL     1       0.972  18.247  16.862  0.00  0.00    +0.000 A 
ATOM     27  C   UNL     1       1.823  17.372  17.556  0.00  0.00    +0.000 A 
ATOM     28  C   UNL     1       1.287  16.563  18.571  0.00  0.00    +0.000 A 
BRANCH  28  29
ATOM     29  N   UNL     1       2.184  15.555  19.124  0.00  0.00    +0.000 N 
ATOM     30  O   UNL     1       2.197  14.450  18.565  0.00  0.00    +0.000 OA
ATOM     31  O   UNL     1       2.967  15.922  20.014  0.00  0.00    +0.000 OA
ENDBRANCH  28  29
ENDBRANCH  21  23
BRANCH   1  32
ATOM     32  C   UNL     1      -5.996  12.844  21.887  0.00  0.00    +0.000 C 
ATOM     33  O   UNL     1      -4.963  12.251  21.594  0.00  0.00    +0.000 OA
BRANCH  32  34
ATOM     34  O   UNL     1      -7.112  12.829  21.109  0.00  0.00    +0.000 OA
BRANCH  34  36
ATOM     35  C   UNL     1      -7.534  12.845  18.713  0.00  0.00    +0.000 C 
ATOM     36  C   UNL     1      -6.998  12.059  19.897  0.00  0.00    +0.000 C 
ENDBRANCH  34  36
ENDBRANCH  32  34
ENDBRANCH   1  32
TORSDOF 5
ENDMDL
MODEL 6
REMARK VINA RESULT:      -5.7      1.574      2.030
REMARK  Name = 
REMARK  9 active torsions:
REMARK  status: ('A' for Active; 'I' for Inactive)
REMARK    1  A    between atoms: C_1  and  C_2
REMARK    2  A    between atoms: C_2  and  O_3
REMARK    3  A    between atoms: O_3  and  C_4
REMARK    4  A    between atoms: C_4  and  C_6
REMARK    5  A    between atoms: C_6  and  C_7
REMARK    6  A    between atoms: C_11  and  C_12
REMARK    7  A    between atoms: C_16  and  C_17
REMARK    8  A    between atoms: N_26  and  C_27
REMARK    9  A    between atoms: C_32  and  N_33
REMARK                            x       y       z     vdW  Elec       q    Type
REMARK                         _______ _______ _______ _____ _____    ______ ____
ROOT
ATOM      1  C   UNL     1      -5.565  13.729  22.460  0.00  0.00    +0.000 C 
ATOM      2  C   UNL     1      -6.893  13.790  21.659  0.00  0.00    +0.000 C 
ATOM      3  C   UNL     1      -5.866  13.006  23.795  0.00  0.00    +0.000 C 
ATOM      4  C   UNL     1      -4.649  12.606  24.639  0.00  0.00    +0.000 C 
ATOM      5  C   UNL     1      -3.438  12.019  23.876  0.00  0.00    +0.000 C 
ATOM      6  C   UNL     1      -3.082  12.784  22.561  0.00  0.00    +0.000 C 
ATOM      7  C   UNL     1      -2.559  14.153  23.030  0.00  0.00    +0.000 C 
ATOM      8  C   UNL     1      -1.949  12.022  21.707  0.00  0.00    +0.000 C 
ATOM      9  C   UNL     1      -0.477  12.021  22.303  0.00  0.00    +0.000 C 
ATOM     10  C   UNL     1       0.702  11.614  21.344  0.00  0.00    +0.000 C 
ATOM     11  C   UNL     1       0.481  12.069  19.886  0.00  0.00    +0.000 C 
ATOM     12  C   UNL     1       1.478  11.565  18.854  0.00  0.00    +0.000 C 
ATOM     13  C   UNL     1      -0.926  11.509  19.476  0.00  0.00    +0.000 C 
ATOM     14  C   UNL     1      -1.913  12.481  20.201  0.00  0.00    +0.000 C 
ATOM     15  C   UNL     1      -3.262  12.418  19.524  0.00  0.00    +0.000 C 
ATOM     16  C   UNL     1      -4.301  13.241  20.251  0.00  0.00    +0.000 C 
ATOM     17  C   UNL     1      -4.445  12.883  21.738  0.00  0.00    +0.000 C 
ATOM     18  C   UNL     1      -1.163  13.771  20.026  0.00  0.00    +0.000 A 
ATOM     19  C   UNL     1      -1.297  15.147  20.167  0.00  0.00    +0.000 A 
ATOM     20  N   UNL     1      -0.100  15.723  20.341  0.00  0.00    +0.000 NA
ATOM     21  N   UNL     1       0.799  14.706  20.252  0.00  0.00    +0.000 N 
ATOM     22  C   UNL     1       0.184  13.543  19.866  0.00  0.00    +0.000 A 
ENDROOT
BRANCH  21  23
ATOM     23  C   UNL     1       2.143  14.939  20.585  0.00  0.00    +0.000 A 
ATOM     24  C   UNL     1       2.548  14.857  21.920  0.00  0.00    +0.000 A 
ATOM     25  C   UNL     1       3.895  15.000  22.252  0.00  0.00    +0.000 A 
ATOM     26  C   UNL     1       4.854  15.235  21.267  0.00  0.00    +0.000 A 
ATOM     27  C   UNL     1       4.466  15.327  19.921  0.00  0.00    +0.000 A 
ATOM     28  C   UNL     1       3.112  15.158  19.589  0.00  0.00    +0.000 A 
BRANCH  28  29
ATOM     29  N   UNL     1       2.754  15.443  18.204  0.00  0.00    +0.000 N 
ATOM     30  O   UNL     1       2.716  14.480  17.427  0.00  0.00    +0.000 OA
ATOM     31  O   UNL     1       2.376  16.595  17.944  0.00  0.00    +0.000 OA
ENDBRANCH  28  29
ENDBRANCH  21  23
BRANCH   1  32
ATOM     32  C   UNL     1      -5.208  15.230  22.567  0.00  0.00    +0.000 C 
ATOM     33  O   UNL     1      -5.151  15.835  23.633  0.00  0.00    +0.000 OA
BRANCH  32  34
ATOM     34  O   UNL     1      -4.932  15.805  21.366  0.00  0.00    +0.000 OA
BRANCH  34  36
ATOM     35  C   UNL     1      -4.097  17.770  20.199  0.00  0.00    +0.000 C 
ATOM     36  C   UNL     1      -4.904  17.246  21.373  0.00  0.00    +0.000 C 
ENDBRANCH  34  36
ENDBRANCH  32  34
ENDBRANCH   1  32
TORSDOF 5
ENDMDL
MODEL 7
REMARK VINA RESULT:      -5.6      4.787     10.584
REMARK  Name = 
REMARK  9 active torsions:
REMARK  status: ('A' for Active; 'I' for Inactive)
REMARK    1  A    between atoms: C_1  and  C_2
REMARK    2  A    between atoms: C_2  and  O_3
REMARK    3  A    between atoms: O_3  and  C_4
REMARK    4  A    between atoms: C_4  and  C_6
REMARK    5  A    between atoms: C_6  and  C_7
REMARK    6  A    between atoms: C_11  and  C_12
REMARK    7  A    between atoms: C_16  and  C_17
REMARK    8  A    between atoms: N_26  and  C_27
REMARK    9  A    between atoms: C_32  and  N_33
REMARK                            x       y       z     vdW  Elec       q    Type
REMARK                         _______ _______ _______ _____ _____    ______ ____
ROOT
ATOM      1  C   UNL     1      10.258  14.881  20.282  0.00  0.00    +0.000 C 
ATOM      2  C   UNL     1      11.573  15.704  20.239  0.00  0.00    +0.000 C 
ATOM      3  C   UNL     1      10.601  13.500  20.892  0.00  0.00    +0.000 C 
ATOM      4  C   UNL     1       9.408  12.610  21.265  0.00  0.00    +0.000 C 
ATOM      5  C   UNL     1       8.208  13.308  21.948  0.00  0.00    +0.000 C 
ATOM      6  C   UNL     1       7.810  14.671  21.297  0.00  0.00    +0.000 C 
ATOM      7  C   UNL     1       7.247  14.299  19.913  0.00  0.00    +0.000 C 
ATOM      8  C   UNL     1       6.692  15.448  22.157  0.00  0.00    +0.000 C 
ATOM      9  C   UNL     1       5.228  14.831  22.161  0.00  0.00    +0.000 C 
ATOM     10  C   UNL     1       4.052  15.739  22.677  0.00  0.00    +0.000 C 
ATOM     11  C   UNL     1       4.239  17.230  22.326  0.00  0.00    +0.000 C 
ATOM     12  C   UNL     1       3.246  18.205  22.939  0.00  0.00    +0.000 C 
ATOM     13  C   UNL     1       5.658  17.618  22.870  0.00  0.00    +0.000 C 
ATOM     14  C   UNL     1       6.622  16.983  21.814  0.00  0.00    +0.000 C 
ATOM     15  C   UNL     1       7.963  17.674  21.885  0.00  0.00    +0.000 C 
ATOM     16  C   UNL     1       8.984  17.027  20.977  0.00  0.00    +0.000 C 
ATOM     17  C   UNL     1       9.158  15.520  21.216  0.00  0.00    +0.000 C 
ATOM     18  C   UNL     1       5.827  17.244  20.566  0.00  0.00    +0.000 A 
ATOM     19  C   UNL     1       5.916  17.208  19.180  0.00  0.00    +0.000 A 
ATOM     20  N   UNL     1       4.703  17.060  18.632  0.00  0.00    +0.000 NA
ATOM     21  N   UNL     1       3.838  17.059  19.681  0.00  0.00    +0.000 N 
ATOM     22  C   UNL     1       4.486  17.365  20.850  0.00  0.00    +0.000 A 
ENDROOT
BRANCH  21  23
ATOM     23  C   UNL     1       2.491  16.724  19.467  0.00  0.00    +0.000 A 
ATOM     24  C   UNL     1       1.516  17.724  19.502  0.00  0.00    +0.000 A 
ATOM     25  C   UNL     1       0.189  17.417  19.204  0.00  0.00    +0.000 A 
ATOM     26  C   UNL     1      -0.190  16.116  18.879  0.00  0.00    +0.000 A 
ATOM     27  C   UNL     1       0.774  15.095  18.844  0.00  0.00    +0.000 A 
ATOM     28  C   UNL     1       2.114  15.413  19.121  0.00  0.00    +0.000 A 
BRANCH  28  29
ATOM     29  N   UNL     1       3.026  14.282  19.244  0.00  0.00    +0.000 N 
ATOM     30  O   UNL     1       2.882  13.552  20.234  0.00  0.00    +0.000 OA
ATOM     31  O   UNL     1       3.774  14.053  18.281  0.00  0.00    +0.000 OA
ENDBRANCH  28  29
ENDBRANCH  21  23
BRANCH   1  32
ATOM     32  C   UNL     1       9.853  14.881  18.790  0.00  0.00    +0.000 C 
ATOM     33  O   UNL     1       9.514  15.892  18.183  0.00  0.00    +0.000 OA
BRANCH  32  34
ATOM     34  O   UNL     1       9.944  13.656  18.206  0.00  0.00    +0.000 OA
BRANCH  34  36
ATOM     35  C   UNL     1      12.216  13.089  17.546  0.00  0.00    +0.000 C 
ATOM     36  C   UNL     1      10.852  13.578  17.091  0.00  0.00    +0.000 C 
ENDBRANCH  34  36
ENDBRANCH  32  34
ENDBRANCH   1  32
TORSDOF 5
ENDMDL
MODEL 8
REMARK VINA RESULT:      -5.5      2.614      4.831
REMARK  Name = 
REMARK  9 active torsions:
REMARK  status: ('A' for Active; 'I' for Inactive)
REMARK    1  A    between atoms: C_1  and  C_2
REMARK    2  A    between atoms: C_2  and  O_3
REMARK    3  A    between atoms: O_3  and  C_4
REMARK    4  A    between atoms: C_4  and  C_6
REMARK    5  A    between atoms: C_6  and  C_7
REMARK    6  A    between atoms: C_11  and  C_12
REMARK    7  A    between atoms: C_16  and  C_17
REMARK    8  A    between atoms: N_26  and  C_27
REMARK    9  A    between atoms: C_32  and  N_33
REMARK                            x       y       z     vdW  Elec       q    Type
REMARK                         _______ _______ _______ _____ _____    ______ ____
ROOT
ATOM      1  C   UNL     1      -4.720  16.829  22.933  0.00  0.00    +0.000 C 
ATOM      2  C   UNL     1      -5.043  17.426  24.329  0.00  0.00    +0.000 C 
ATOM      3  C   UNL     1      -5.289  17.803  21.873  0.00  0.00    +0.000 C 
ATOM      4  C   UNL     1      -4.867  17.546  20.420  0.00  0.00    +0.000 C 
ATOM      5  C   UNL     1      -3.384  17.173  20.185  0.00  0.00    +0.000 C 
ATOM      6  C   UNL     1      -2.817  16.138  21.208  0.00  0.00    +0.000 C 
ATOM      7  C   UNL     1      -3.555  14.824  20.892  0.00  0.00    +0.000 C 
ATOM      8  C   UNL     1      -1.228  15.933  21.044  0.00  0.00    +0.000 C 
ATOM      9  C   UNL     1      -0.732  15.169  19.743  0.00  0.00    +0.000 C 
ATOM     10  C   UNL     1       0.749  14.639  19.725  0.00  0.00    +0.000 C 
ATOM     11  C   UNL     1       1.239  14.164  21.109  0.00  0.00    +0.000 C 
ATOM     12  C   UNL     1       2.713  13.805  21.226  0.00  0.00    +0.000 C 
ATOM     13  C   UNL     1       0.980  15.364  22.085  0.00  0.00    +0.000 C 
ATOM     14  C   UNL     1      -0.564  15.295  22.321  0.00  0.00    +0.000 C 
ATOM     15  C   UNL     1      -0.905  16.024  23.600  0.00  0.00    +0.000 C 
ATOM     16  C   UNL     1      -2.397  16.104  23.827  0.00  0.00    +0.000 C 
ATOM     17  C   UNL     1      -3.170  16.721  22.651  0.00  0.00    +0.000 C 
ATOM     18  C   UNL     1      -0.741  13.804  22.362  0.00  0.00    +0.000 A 
ATOM     19  C   UNL     1      -1.667  12.816  22.675  0.00  0.00    +0.000 A 
ATOM     20  N   UNL     1      -1.398  11.687  22.007  0.00  0.00    +0.000 NA
ATOM     21  N   UNL     1      -0.260  11.950  21.310  0.00  0.00    +0.000 N 
ATOM     22  C   UNL     1       0.261  13.168  21.666  0.00  0.00    +0.000 A 
ENDROOT
BRANCH  21  23
ATOM     23  C   UNL     1       0.190  11.033  20.348  0.00  0.00    +0.000 A 
ATOM     24  C   UNL     1       0.112  11.360  18.991  0.00  0.00    +0.000 A 
ATOM     25  C   UNL     1       0.635  10.494  18.031  0.00  0.00    +0.000 A 
ATOM     26  C   UNL     1       1.232   9.290  18.402  0.00  0.00    +0.000 A 
ATOM     27  C   UNL     1       1.315   8.940  19.760  0.00  0.00    +0.000 A 
ATOM     28  C   UNL     1       0.808   9.826  20.724  0.00  0.00    +0.000 A 
BRANCH  28  29
ATOM     29  N   UNL     1       0.764   9.323  22.092  0.00  0.00    +0.000 N 
ATOM     30  O   UNL     1      -0.222   8.642  22.406  0.00  0.00    +0.000 OA
ATOM     31  O   UNL     1       1.776   9.491  22.789  0.00  0.00    +0.000 OA
ENDBRANCH  28  29
ENDBRANCH  21  23
BRANCH   1  32
ATOM     32  C   UNL     1      -5.411  15.449  23.027  0.00  0.00    +0.000 C 
ATOM     33  O   UNL     1      -6.342  15.110  22.303  0.00  0.00    +0.000 OA
BRANCH  32  34
ATOM     34  O   UNL     1      -4.862  14.635  23.969  0.00  0.00    +0.000 OA
BRANCH  34  36
ATOM     35  C   UNL     1      -4.491  12.400  24.856  0.00  0.00    +0.000 C 
ATOM     36  C   UNL     1      -5.340  13.276  23.952  0.00  0.00    +0.000 C 
ENDBRANCH  34  36
ENDBRANCH  32  34
ENDBRANCH   1  32
TORSDOF 5
ENDMDL
MODEL 9
REMARK VINA RESULT:      -5.5      5.823     11.153
REMARK  Name = 
REMARK  9 active torsions:
REMARK  status: ('A' for Active; 'I' for Inactive)
REMARK    1  A    between atoms: C_1  and  C_2
REMARK    2  A    between atoms: C_2  and  O_3
REMARK    3  A    between atoms: O_3  and  C_4
REMARK    4  A    between atoms: C_4  and  C_6
REMARK    5  A    between atoms: C_6  and  C_7
REMARK    6  A    between atoms: C_11  and  C_12
REMARK    7  A    between atoms: C_16  and  C_17
REMARK    8  A    between atoms: N_26  and  C_27
REMARK    9  A    between atoms: C_32  and  N_33
REMARK                            x       y       z     vdW  Elec       q    Type
REMARK                         _______ _______ _______ _____ _____    ______ ____
ROOT
ATOM      1  C   UNL     1      10.916  13.389  19.461  0.00  0.00    +0.000 C 
ATOM      2  C   UNL     1      12.333  13.910  19.100  0.00  0.00    +0.000 C 
ATOM      3  C   UNL     1      10.974  11.843  19.434  0.00  0.00    +0.000 C 
ATOM      4  C   UNL     1       9.753  11.109  20.007  0.00  0.00    +0.000 C 
ATOM      5  C   UNL     1       9.146  11.684  21.308  0.00  0.00    +0.000 C 
ATOM      6  C   UNL     1       9.019  13.241  21.318  0.00  0.00    +0.000 C 
ATOM      7  C   UNL     1       7.939  13.557  20.268  0.00  0.00    +0.000 C 
ATOM      8  C   UNL     1       8.569  13.802  22.760  0.00  0.00    +0.000 C 
ATOM      9  C   UNL     1       7.075  13.510  23.211  0.00  0.00    +0.000 C 
ATOM     10  C   UNL     1       6.501  14.335  24.421  0.00  0.00    +0.000 C 
ATOM     11  C   UNL     1       7.034  15.782  24.474  0.00  0.00    +0.000 C 
ATOM     12  C   UNL     1       6.677  16.597  25.709  0.00  0.00    +0.000 C 
ATOM     13  C   UNL     1       8.598  15.659  24.443  0.00  0.00    +0.000 C 
ATOM     14  C   UNL     1       8.892  15.332  22.943  0.00  0.00    +0.000 C 
ATOM     15  C   UNL     1      10.328  15.683  22.629  0.00  0.00    +0.000 C 
ATOM     16  C   UNL     1      10.717  15.276  21.226  0.00  0.00    +0.000 C 
ATOM     17  C   UNL     1      10.462  13.793  20.918  0.00  0.00    +0.000 C 
ATOM     18  C   UNL     1       7.857  16.206  22.292  0.00  0.00    +0.000 A 
ATOM     19  C   UNL     1       7.462  16.707  21.058  0.00  0.00    +0.000 A 
ATOM     20  N   UNL     1       6.158  17.011  21.067  0.00  0.00    +0.000 NA
ATOM     21  N   UNL     1       5.742  16.750  22.335  0.00  0.00    +0.000 N 
ATOM     22  C   UNL     1       6.805  16.445  23.145  0.00  0.00    +0.000 A 
ENDROOT
BRANCH  21  23
ATOM     23  C   UNL     1       4.370  16.778  22.632  0.00  0.00    +0.000 A 
ATOM     24  C   UNL     1       3.859  17.792  23.448  0.00  0.00    +0.000 A 
ATOM     25  C   UNL     1       2.487  17.879  23.677  0.00  0.00    +0.000 A 
ATOM     26  C   UNL     1       1.605  16.959  23.111  0.00  0.00    +0.000 A 
ATOM     27  C   UNL     1       2.099  15.929  22.294  0.00  0.00    +0.000 A 
ATOM     28  C   UNL     1       3.480  15.859  22.045  0.00  0.00    +0.000 A 
BRANCH  28  29
ATOM     29  N   UNL     1       3.942  14.669  21.341  0.00  0.00    +0.000 N 
ATOM     30  O   UNL     1       4.014  13.622  21.999  0.00  0.00    +0.000 OA
ATOM     31  O   UNL     1       4.086  14.760  20.112  0.00  0.00    +0.000 OA
ENDBRANCH  28  29
ENDBRANCH  21  23
BRANCH   1  32
ATOM     32  C   UNL     1      10.060  14.055  18.359  0.00  0.00    +0.000 C 
ATOM     33  O   UNL     1       9.217  13.451  17.702  0.00  0.00    +0.000 OA
BRANCH  32  34
ATOM     34  O   UNL     1      10.310  15.384  18.211  0.00  0.00    +0.000 OA
BRANCH  34  36
ATOM     35  C   UNL     1       9.395  17.637  18.136  0.00  0.00    +0.000 C 
ATOM     36  C   UNL     1       9.180  16.173  17.793  0.00  0.00    +0.000 C 
ENDBRANCH  34  36
ENDBRANCH  32  34
ENDBRANCH   1  32
TORSDOF 5
ENDMDL
