MODEL 1
REMARK VINA RESULT:      -7.0      0.000      0.000
REMARK  Name = 
REMARK  7 active torsions:
REMARK  status: ('A' for Active; 'I' for Inactive)
REMARK    1  A    between atoms: C_1  and  C_2
REMARK    2  A    between atoms: C_2  and  C_3
REMARK    3  A    between atoms: C_3  and  C_4
REMARK    4  A    between atoms: C_4  and  N_5
REMARK    5  A    between atoms: N_5  and  C_6
REMARK    6  A    between atoms: C_16  and  S_17
REMARK    7  A    between atoms: S_17  and  C_18
REMARK                            x       y       z     vdW  Elec       q    Type
REMARK                         _______ _______ _______ _____ _____    ______ ____
ROOT
ATOM      1  C   UNL     1       6.510   4.732  17.729  0.00  0.00    +0.000 A 
ATOM      2  N   UNL     1       5.762   4.495  18.834  0.00  0.00    +0.000 NA
ATOM      3  C   UNL     1       4.521   4.017  18.667  0.00  0.00    +0.000 A 
ATOM      4  C   UNL     1       3.745   3.757  19.788  0.00  0.00    +0.000 A 
ATOM      5  C   UNL     1       2.471   3.212  19.655  0.00  0.00    +0.000 A 
ATOM      6 BR   UNL     1       1.443   2.844  21.197  0.00  0.00    +0.000 Br
ATOM      7  C   UNL     1       1.954   2.933  18.396  0.00  0.00    +0.000 A 
ATOM      8  C   UNL     1       2.725   3.216  17.266  0.00  0.00    +0.000 A 
ATOM      9  C   UNL     1       3.997   3.760  17.379  0.00  0.00    +0.000 A 
ATOM     10  N   UNL     1       4.707   4.022  16.270  0.00  0.00    +0.000 NA
ATOM     11  C   UNL     1       5.954   4.528  16.445  0.00  0.00    +0.000 A 
ENDROOT
BRANCH   1  12
ATOM     12  N   UNL     1       7.812   5.253  17.901  0.00  0.00    +0.000 N 
ATOM     13  H   UNL     1       8.352   4.603  18.471  0.00  0.00    +0.000 HD
BRANCH  12  14
ATOM     14  C   UNL     1       7.820   6.614  18.441  0.00  0.00    +0.000 C 
BRANCH  14  15
ATOM     15  C   UNL     1       7.473   7.633  17.354  0.00  0.00    +0.000 C 
BRANCH  15  17
ATOM     16  C   UNL     1       8.854   9.037  18.922  0.00  0.00    +0.000 C 
ATOM     17  C   UNL     1       7.952   9.044  17.698  0.00  0.00    +0.000 C 
ENDBRANCH  15  17
ENDBRANCH  14  15
ENDBRANCH  12  14
ENDBRANCH   1  12
BRANCH  11  18
ATOM     18  S   UNL     1       6.911   4.837  14.959  0.00  0.00    +0.000 S 
ATOM     19  C   UNL     1       5.996   3.819  13.769  0.00  0.00    +0.000 C 
ENDBRANCH  11  18
TORSDOF 5
ENDMDL
MODEL 2
REMARK VINA RESULT:      -6.8      1.141      1.245
REMARK  Name = 
REMARK  7 active torsions:
REMARK  status: ('A' for Active; 'I' for Inactive)
REMARK    1  A    between atoms: C_1  and  C_2
REMARK    2  A    between atoms: C_2  and  C_3
REMARK    3  A    between atoms: C_3  and  C_4
REMARK    4  A    between atoms: C_4  and  N_5
REMARK    5  A    between atoms: N_5  and  C_6
REMARK    6  A    between atoms: C_16  and  S_17
REMARK    7  A    between atoms: S_17  and  C_18
REMARK                            x       y       z     vdW  Elec       q    Type
REMARK                         _______ _______ _______ _____ _____    ______ ____
ROOT
ATOM      1  C   UNL     1       6.475   5.830  16.870  0.00  0.00    +0.000 A 
ATOM      2  N   UNL     1       5.711   5.891  17.987  0.00  0.00    +0.000 NA
ATOM      3  C   UNL     1       4.633   5.096  18.061  0.00  0.00    +0.000 A 
ATOM      4  C   UNL     1       3.846   5.137  19.202  0.00  0.00    +0.000 A 
ATOM      5  C   UNL     1       2.749   4.290  19.336  0.00  0.00    +0.000 A 
ATOM      6 BR   UNL     1       1.706   4.347  20.910  0.00  0.00    +0.000 Br
ATOM      7  C   UNL     1       2.422   3.399  18.321  0.00  0.00    +0.000 A 
ATOM      8  C   UNL     1       3.201   3.373  17.161  0.00  0.00    +0.000 A 
ATOM      9  C   UNL     1       4.296   4.212  17.010  0.00  0.00    +0.000 A 
ATOM     10  N   UNL     1       5.019   4.161  15.880  0.00  0.00    +0.000 NA
ATOM     11  C   UNL     1       6.094   4.986  15.802  0.00  0.00    +0.000 A 
ENDROOT
BRANCH   1  12
ATOM     12  N   UNL     1       7.600   6.679  16.781  0.00  0.00    +0.000 N 
ATOM     13  H   UNL     1       8.402   6.129  16.473  0.00  0.00    +0.000 HD
BRANCH  12  14
ATOM     14  C   UNL     1       7.866   7.413  18.020  0.00  0.00    +0.000 C 
BRANCH  14  15
ATOM     15  C   UNL     1       8.002   8.912  17.748  0.00  0.00    +0.000 C 
BRANCH  15  17
ATOM     16  C   UNL     1       9.281  11.007  18.304  0.00  0.00    +0.000 C 
ATOM     17  C   UNL     1       8.879   9.619  18.780  0.00  0.00    +0.000 C 
ENDBRANCH  15  17
ENDBRANCH  14  15
ENDBRANCH  12  14
ENDBRANCH   1  12
BRANCH  11  18
ATOM     18  S   UNL     1       7.078   4.882  14.304  0.00  0.00    +0.000 S 
ATOM     19  C   UNL     1       6.053   3.751  13.323  0.00  0.00    +0.000 C 
ENDBRANCH  11  18
TORSDOF 5
ENDMDL
MODEL 3
REMARK VINA RESULT:      -6.6      3.075      5.121
REMARK  Name = 
REMARK  7 active torsions:
REMARK  status: ('A' for Active; 'I' for Inactive)
REMARK    1  A    between atoms: C_1  and  C_2
REMARK    2  A    between atoms: C_2  and  C_3
REMARK    3  A    between atoms: C_3  and  C_4
REMARK    4  A    between atoms: C_4  and  N_5
REMARK    5  A    between atoms: N_5  and  C_6
REMARK    6  A    between atoms: C_16  and  S_17
REMARK    7  A    between atoms: S_17  and  C_18
REMARK                            x       y       z     vdW  Elec       q    Type
REMARK                         _______ _______ _______ _____ _____    ______ ____
ROOT
ATOM      1  C   UNL     1       4.513   4.508  18.808  0.00  0.00    +0.000 A 
ATOM      2  N   UNL     1       3.683   5.131  19.680  0.00  0.00    +0.000 NA
ATOM      3  C   UNL     1       3.140   6.300  19.311  0.00  0.00    +0.000 A 
ATOM      4  C   UNL     1       2.279   6.946  20.186  0.00  0.00    +0.000 A 
ATOM      5  C   UNL     1       1.656   8.136  19.817  0.00  0.00    +0.000 A 
ATOM      6 BR   UNL     1       0.469   8.984  21.016  0.00  0.00    +0.000 Br
ATOM      7  C   UNL     1       1.900   8.698  18.570  0.00  0.00    +0.000 A 
ATOM      8  C   UNL     1       2.785   8.060  17.697  0.00  0.00    +0.000 A 
ATOM      9  C   UNL     1       3.415   6.875  18.049  0.00  0.00    +0.000 A 
ATOM     10  N   UNL     1       4.262   6.293  17.185  0.00  0.00    +0.000 NA
ATOM     11  C   UNL     1       4.827   5.122  17.574  0.00  0.00    +0.000 A 
ENDROOT
BRANCH   1  12
ATOM     12  N   UNL     1       5.102   3.285  19.201  0.00  0.00    +0.000 N 
ATOM     13  H   UNL     1       5.695   2.950  18.443  0.00  0.00    +0.000 HD
BRANCH  12  14
ATOM     14  C   UNL     1       4.120   2.287  19.630  0.00  0.00    +0.000 C 
BRANCH  14  15
ATOM     15  C   UNL     1       3.457   1.622  18.423  0.00  0.00    +0.000 C 
BRANCH  15  17
ATOM     16  C   UNL     1       1.295   2.429  19.429  0.00  0.00    +0.000 C 
ATOM     17  C   UNL     1       2.061   2.179  18.140  0.00  0.00    +0.000 C 
ENDBRANCH  15  17
ENDBRANCH  14  15
ENDBRANCH  12  14
ENDBRANCH   1  12
BRANCH  11  18
ATOM     18  S   UNL     1       5.927   4.331  16.397  0.00  0.00    +0.000 S 
ATOM     19  C   UNL     1       7.527   4.636  17.196  0.00  0.00    +0.000 C 
ENDBRANCH  11  18
TORSDOF 5
ENDMDL
MODEL 4
REMARK VINA RESULT:      -6.3      3.463      5.543
REMARK  Name = 
REMARK  7 active torsions:
REMARK  status: ('A' for Active; 'I' for Inactive)
REMARK    1  A    between atoms: C_1  and  C_2
REMARK    2  A    between atoms: C_2  and  C_3
REMARK    3  A    between atoms: C_3  and  C_4
REMARK    4  A    between atoms: C_4  and  N_5
REMARK    5  A    between atoms: N_5  and  C_6
REMARK    6  A    between atoms: C_16  and  S_17
REMARK    7  A    between atoms: S_17  and  C_18
REMARK                            x       y       z     vdW  Elec       q    Type
REMARK                         _______ _______ _______ _____ _____    ______ ____
ROOT
ATOM      1  C   UNL     1       3.973   4.767  19.077  0.00  0.00    +0.000 A 
ATOM      2  N   UNL     1       3.153   5.509  19.861  0.00  0.00    +0.000 NA
ATOM      3  C   UNL     1       2.732   6.693  19.394  0.00  0.00    +0.000 A 
ATOM      4  C   UNL     1       1.883   7.460  20.178  0.00  0.00    +0.000 A 
ATOM      5  C   UNL     1       1.385   8.672  19.706  0.00  0.00    +0.000 A 
ATOM      6 BR   UNL     1       0.211   9.687  20.783  0.00  0.00    +0.000 Br
ATOM      7  C   UNL     1       1.743   9.134  18.445  0.00  0.00    +0.000 A 
ATOM      8  C   UNL     1       2.616   8.373  17.664  0.00  0.00    +0.000 A 
ATOM      9  C   UNL     1       3.123   7.164  18.120  0.00  0.00    +0.000 A 
ATOM     10  N   UNL     1       3.963   6.462  17.341  0.00  0.00    +0.000 NA
ATOM     11  C   UNL     1       4.404   5.275  17.830  0.00  0.00    +0.000 A 
ENDROOT
BRANCH   1  12
ATOM     12  N   UNL     1       4.433   3.527  19.573  0.00  0.00    +0.000 N 
ATOM     13  H   UNL     1       5.158   3.174  18.950  0.00  0.00    +0.000 HD
BRANCH  12  14
ATOM     14  C   UNL     1       3.356   2.559  19.788  0.00  0.00    +0.000 C 
BRANCH  14  15
ATOM     15  C   UNL     1       2.911   2.553  21.251  0.00  0.00    +0.000 C 
BRANCH  15  17
ATOM     16  C   UNL     1       0.746   3.044  20.065  0.00  0.00    +0.000 C 
ATOM     17  C   UNL     1       1.407   2.777  21.408  0.00  0.00    +0.000 C 
ENDBRANCH  15  17
ENDBRANCH  14  15
ENDBRANCH  12  14
ENDBRANCH   1  12
BRANCH  11  18
ATOM     18  S   UNL     1       5.494   4.325  16.767  0.00  0.00    +0.000 S 
ATOM     19  C   UNL     1       7.103   4.763  17.482  0.00  0.00    +0.000 C 
ENDBRANCH  11  18
TORSDOF 5
ENDMDL
MODEL 5
REMARK VINA RESULT:      -6.3      1.688      4.485
REMARK  Name = 
REMARK  7 active torsions:
REMARK  status: ('A' for Active; 'I' for Inactive)
REMARK    1  A    between atoms: C_1  and  C_2
REMARK    2  A    between atoms: C_2  and  C_3
REMARK    3  A    between atoms: C_3  and  C_4
REMARK    4  A    between atoms: C_4  and  N_5
REMARK    5  A    between atoms: N_5  and  C_6
REMARK    6  A    between atoms: C_16  and  S_17
REMARK    7  A    between atoms: S_17  and  C_18
REMARK                            x       y       z     vdW  Elec       q    Type
REMARK                         _______ _______ _______ _____ _____    ______ ____
ROOT
ATOM      1  C   UNL     1       5.724   5.293  16.147  0.00  0.00    +0.000 A 
ATOM      2  N   UNL     1       4.704   4.408  16.262  0.00  0.00    +0.000 NA
ATOM      3  C   UNL     1       3.997   4.404  17.402  0.00  0.00    +0.000 A 
ATOM      4  C   UNL     1       2.942   3.513  17.533  0.00  0.00    +0.000 A 
ATOM      5  C   UNL     1       2.154   3.514  18.681  0.00  0.00    +0.000 A 
ATOM      6 BR   UNL     1       0.708   2.308  18.827  0.00  0.00    +0.000 Br
ATOM      7  C   UNL     1       2.421   4.402  19.716  0.00  0.00    +0.000 A 
ATOM      8  C   UNL     1       3.498   5.285  19.593  0.00  0.00    +0.000 A 
ATOM      9  C   UNL     1       4.295   5.296  18.458  0.00  0.00    +0.000 A 
ATOM     10  N   UNL     1       5.323   6.156  18.378  0.00  0.00    +0.000 NA
ATOM     11  C   UNL     1       6.050   6.138  17.232  0.00  0.00    +0.000 A 
ENDROOT
BRANCH   1  12
ATOM     12  N   UNL     1       6.483   5.288  14.955  0.00  0.00    +0.000 N 
ATOM     13  H   UNL     1       6.157   6.046  14.356  0.00  0.00    +0.000 HD
BRANCH  12  14
ATOM     14  C   UNL     1       6.474   3.992  14.274  0.00  0.00    +0.000 C 
BRANCH  14  15
ATOM     15  C   UNL     1       6.305   4.170  12.764  0.00  0.00    +0.000 C 
BRANCH  15  17
ATOM     16  C   UNL     1       4.374   3.216  11.463  0.00  0.00    +0.000 C 
ATOM     17  C   UNL     1       5.730   2.927  12.086  0.00  0.00    +0.000 C 
ENDBRANCH  15  17
ENDBRANCH  14  15
ENDBRANCH  12  14
ENDBRANCH   1  12
BRANCH  11  18
ATOM     18  S   UNL     1       7.397   7.319  17.117  0.00  0.00    +0.000 S 
ATOM     19  C   UNL     1       8.233   7.007  18.697  0.00  0.00    +0.000 C 
ENDBRANCH  11  18
TORSDOF 5
ENDMDL
MODEL 6
REMARK VINA RESULT:      -6.2      3.626      4.496
REMARK  Name = 
REMARK  7 active torsions:
REMARK  status: ('A' for Active; 'I' for Inactive)
REMARK    1  A    between atoms: C_1  and  C_2
REMARK    2  A    between atoms: C_2  and  C_3
REMARK    3  A    between atoms: C_3  and  C_4
REMARK    4  A    between atoms: C_4  and  N_5
REMARK    5  A    between atoms: N_5  and  C_6
REMARK    6  A    between atoms: C_16  and  S_17
REMARK    7  A    between atoms: S_17  and  C_18
REMARK                            x       y       z     vdW  Elec       q    Type
REMARK                         _______ _______ _______ _____ _____    ______ ____
ROOT
ATOM      1  C   UNL     1       4.190   4.931  17.887  0.00  0.00    +0.000 A 
ATOM      2  N   UNL     1       3.755   6.160  17.520  0.00  0.00    +0.000 NA
ATOM      3  C   UNL     1       2.973   6.836  18.375  0.00  0.00    +0.000 A 
ATOM      4  C   UNL     1       2.528   8.101  18.021  0.00  0.00    +0.000 A 
ATOM      5  C   UNL     1       1.757   8.853  18.904  0.00  0.00    +0.000 A 
ATOM      6 BR   UNL     1       1.183  10.583  18.409  0.00  0.00    +0.000 Br
ATOM      7  C   UNL     1       1.414   8.339  20.149  0.00  0.00    +0.000 A 
ATOM      8  C   UNL     1       1.843   7.056  20.497  0.00  0.00    +0.000 A 
ATOM      9  C   UNL     1       2.610   6.292  19.629  0.00  0.00    +0.000 A 
ATOM     10  N   UNL     1       3.001   5.061  19.997  0.00  0.00    +0.000 NA
ATOM     11  C   UNL     1       3.772   4.374  19.117  0.00  0.00    +0.000 A 
ENDROOT
BRANCH   1  12
ATOM     12  N   UNL     1       4.999   4.209  16.981  0.00  0.00    +0.000 N 
ATOM     13  H   UNL     1       5.277   3.331  17.419  0.00  0.00    +0.000 HD
BRANCH  12  14
ATOM     14  C   UNL     1       6.144   4.980  16.492  0.00  0.00    +0.000 C 
BRANCH  14  15
ATOM     15  C   UNL     1       7.359   4.786  17.400  0.00  0.00    +0.000 C 
BRANCH  15  17
ATOM     16  C   UNL     1       7.642   7.261  17.759  0.00  0.00    +0.000 C 
ATOM     17  C   UNL     1       7.505   5.904  18.432  0.00  0.00    +0.000 C 
ENDBRANCH  15  17
ENDBRANCH  14  15
ENDBRANCH  12  14
ENDBRANCH   1  12
BRANCH  11  18
ATOM     18  S   UNL     1       4.323   2.746  19.635  0.00  0.00    +0.000 S 
ATOM     19  C   UNL     1       3.171   1.703  18.698  0.00  0.00    +0.000 C 
ENDBRANCH  11  18
TORSDOF 5
ENDMDL
MODEL 7
REMARK VINA RESULT:      -6.2      2.919      5.786
REMARK  Name = 
REMARK  7 active torsions:
REMARK  status: ('A' for Active; 'I' for Inactive)
REMARK    1  A    between atoms: C_1  and  C_2
REMARK    2  A    between atoms: C_2  and  C_3
REMARK    3  A    between atoms: C_3  and  C_4
REMARK    4  A    between atoms: C_4  and  N_5
REMARK    5  A    between atoms: N_5  and  C_6
REMARK    6  A    between atoms: C_16  and  S_17
REMARK    7  A    between atoms: S_17  and  C_18
REMARK                            x       y       z     vdW  Elec       q    Type
REMARK                         _______ _______ _______ _____ _____    ______ ____
ROOT
ATOM      1  C   UNL     1       5.763   4.931  17.336  0.00  0.00    +0.000 A 
ATOM      2  N   UNL     1       5.184   4.265  16.307  0.00  0.00    +0.000 NA
ATOM      3  C   UNL     1       5.778   4.316  15.106  0.00  0.00    +0.000 A 
ATOM      4  C   UNL     1       5.206   3.632  14.044  0.00  0.00    +0.000 A 
ATOM      5  C   UNL     1       5.821   3.620  12.796  0.00  0.00    +0.000 A 
ATOM      6 BR   UNL     1       5.035   2.660  11.371  0.00  0.00    +0.000 Br
ATOM      7  C   UNL     1       7.014   4.305  12.594  0.00  0.00    +0.000 A 
ATOM      8  C   UNL     1       7.579   5.014  13.657  0.00  0.00    +0.000 A 
ATOM      9  C   UNL     1       6.978   5.038  14.908  0.00  0.00    +0.000 A 
ATOM     10  N   UNL     1       7.549   5.733  15.905  0.00  0.00    +0.000 NA
ATOM     11  C   UNL     1       6.929   5.697  17.111  0.00  0.00    +0.000 A 
ENDROOT
BRANCH   1  12
ATOM     12  N   UNL     1       5.129   4.894  18.599  0.00  0.00    +0.000 N 
ATOM     13  H   UNL     1       5.733   5.351  19.281  0.00  0.00    +0.000 HD
BRANCH  12  14
ATOM     14  C   UNL     1       4.741   3.543  19.008  0.00  0.00    +0.000 C 
BRANCH  14  15
ATOM     15  C   UNL     1       3.277   3.507  19.451  0.00  0.00    +0.000 C 
BRANCH  15  17
ATOM     16  C   UNL     1       1.648   4.333  17.719  0.00  0.00    +0.000 C 
ATOM     17  C   UNL     1       2.479   4.706  18.937  0.00  0.00    +0.000 C 
ENDBRANCH  15  17
ENDBRANCH  14  15
ENDBRANCH  12  14
ENDBRANCH   1  12
BRANCH  11  18
ATOM     18  S   UNL     1       7.721   6.596  18.448  0.00  0.00    +0.000 S 
ATOM     19  C   UNL     1       7.879   8.234  17.685  0.00  0.00    +0.000 C 
ENDBRANCH  11  18
TORSDOF 5
ENDMDL
MODEL 8
REMARK VINA RESULT:      -6.1      1.216      1.251
REMARK  Name = 
REMARK  7 active torsions:
REMARK  status: ('A' for Active; 'I' for Inactive)
REMARK    1  A    between atoms: C_1  and  C_2
REMARK    2  A    between atoms: C_2  and  C_3
REMARK    3  A    between atoms: C_3  and  C_4
REMARK    4  A    between atoms: C_4  and  N_5
REMARK    5  A    between atoms: N_5  and  C_6
REMARK    6  A    between atoms: C_16  and  S_17
REMARK    7  A    between atoms: S_17  and  C_18
REMARK                            x       y       z     vdW  Elec       q    Type
REMARK                         _______ _______ _______ _____ _____    ______ ____
ROOT
ATOM      1  C   UNL     1       5.049   5.939  17.477  0.00  0.00    +0.000 A 
ATOM      2  N   UNL     1       4.399   5.666  18.635  0.00  0.00    +0.000 NA
ATOM      3  C   UNL     1       3.705   4.522  18.716  0.00  0.00    +0.000 A 
ATOM      4  C   UNL     1       3.043   4.221  19.898  0.00  0.00    +0.000 A 
ATOM      5  C   UNL     1       2.355   3.019  20.038  0.00  0.00    +0.000 A 
ATOM      6 BR   UNL     1       1.482   2.621  21.665  0.00  0.00    +0.000 Br
ATOM      7  C   UNL     1       2.313   2.108  18.988  0.00  0.00    +0.000 A 
ATOM      8  C   UNL     1       2.960   2.420  17.790  0.00  0.00    +0.000 A 
ATOM      9  C   UNL     1       3.649   3.615  17.633  0.00  0.00    +0.000 A 
ATOM     10  N   UNL     1       4.256   3.882  16.465  0.00  0.00    +0.000 NA
ATOM     11  C   UNL     1       4.936   5.053  16.381  0.00  0.00    +0.000 A 
ENDROOT
BRANCH   1  12
ATOM     12  N   UNL     1       5.766   7.152  17.382  0.00  0.00    +0.000 N 
ATOM     13  H   UNL     1       5.639   7.534  16.445  0.00  0.00    +0.000 HD
BRANCH  12  14
ATOM     14  C   UNL     1       7.178   7.016  17.746  0.00  0.00    +0.000 C 
BRANCH  14  15
ATOM     15  C   UNL     1       7.954   8.289  17.404  0.00  0.00    +0.000 C 
BRANCH  15  17
ATOM     16  C   UNL     1       9.006  10.377  18.335  0.00  0.00    +0.000 C 
ATOM     17  C   UNL     1       8.564   8.954  18.638  0.00  0.00    +0.000 C 
ENDBRANCH  15  17
ENDBRANCH  14  15
ENDBRANCH  12  14
ENDBRANCH   1  12
BRANCH  11  18
ATOM     18  S   UNL     1       5.778   5.383  14.831  0.00  0.00    +0.000 S 
ATOM     19  C   UNL     1       6.247   3.696  14.353  0.00  0.00    +0.000 C 
ENDBRANCH  11  18
TORSDOF 5
ENDMDL
MODEL 9
REMARK VINA RESULT:      -6.1      3.882      6.433
REMARK  Name = 
REMARK  7 active torsions:
REMARK  status: ('A' for Active; 'I' for Inactive)
REMARK    1  A    between atoms: C_1  and  C_2
REMARK    2  A    between atoms: C_2  and  C_3
REMARK    3  A    between atoms: C_3  and  C_4
REMARK    4  A    between atoms: C_4  and  N_5
REMARK    5  A    between atoms: N_5  and  C_6
REMARK    6  A    between atoms: C_16  and  S_17
REMARK    7  A    between atoms: S_17  and  C_18
REMARK                            x       y       z     vdW  Elec       q    Type
REMARK                         _______ _______ _______ _____ _____    ______ ____
ROOT
ATOM      1  C   UNL     1       2.840   5.650  19.930  0.00  0.00    +0.000 A 
ATOM      2  N   UNL     1       3.601   4.877  19.118  0.00  0.00    +0.000 NA
ATOM      3  C   UNL     1       4.067   5.420  17.983  0.00  0.00    +0.000 A 
ATOM      4  C   UNL     1       4.857   4.647  17.145  0.00  0.00    +0.000 A 
ATOM      5  C   UNL     1       5.400   5.190  15.984  0.00  0.00    +0.000 A 
ATOM      6 BR   UNL     1       6.494   4.125  14.872  0.00  0.00    +0.000 Br
ATOM      7  C   UNL     1       5.147   6.514  15.643  0.00  0.00    +0.000 A 
ATOM      8  C   UNL     1       4.332   7.286  16.475  0.00  0.00    +0.000 A 
ATOM      9  C   UNL     1       3.781   6.760  17.635  0.00  0.00    +0.000 A 
ATOM     10  N   UNL     1       3.000   7.532  18.407  0.00  0.00    +0.000 NA
ATOM     11  C   UNL     1       2.512   6.969  19.542  0.00  0.00    +0.000 A 
ENDROOT
BRANCH   1  12
ATOM     12  N   UNL     1       2.333   5.077  21.118  0.00  0.00    +0.000 N 
ATOM     13  H   UNL     1       2.932   5.353  21.896  0.00  0.00    +0.000 HD
BRANCH  12  14
ATOM     14  C   UNL     1       2.163   3.625  21.028  0.00  0.00    +0.000 C 
BRANCH  14  15
ATOM     15  C   UNL     1       0.780   3.272  20.479  0.00  0.00    +0.000 C 
BRANCH  15  17
ATOM     16  C   UNL     1       2.159   1.862  18.914  0.00  0.00    +0.000 C 
ATOM     17  C   UNL     1       0.846   2.607  19.104  0.00  0.00    +0.000 C 
ENDBRANCH  15  17
ENDBRANCH  14  15
ENDBRANCH  12  14
ENDBRANCH   1  12
BRANCH  11  18
ATOM     18  S   UNL     1       1.502   8.021  20.589  0.00  0.00    +0.000 S 
ATOM     19  C   UNL     1       1.117   9.359  19.425  0.00  0.00    +0.000 C 
ENDBRANCH  11  18
TORSDOF 5
ENDMDL
