MODEL 1
REMARK VINA RESULT:      -6.3      0.000      0.000
REMARK  Name = 
REMARK  23 active torsions:
REMARK  status: ('A' for Active; 'I' for Inactive)
REMARK    1  A    between atoms: C_1  and  C_2
REMARK    2  A    between atoms: C_2  and  C_3
REMARK    3  A    between atoms: C_3  and  C_4
REMARK    4  A    between atoms: C_4  and  C_5
REMARK    5  A    between atoms: C_5  and  C_6
REMARK    6  A    between atoms: C_6  and  C_7
REMARK    7  A    between atoms: C_7  and  C_8
REMARK    8  A    between atoms: C_8  and  C_9
REMARK    9  A    between atoms: C_9  and  C_10
REMARK   10  A    between atoms: C_10  and  C_11
REMARK   11  A    between atoms: C_11  and  C_12
REMARK   12  A    between atoms: C_12  and  C_13
REMARK   13  A    between atoms: C_13  and  C_14
REMARK   14  A    between atoms: C_15  and  C_16
REMARK   15  A    between atoms: C_16  and  O_17
REMARK   16  A    between atoms: C_16  and  C_18
REMARK   17  A    between atoms: C_18  and  C_19
REMARK   18  A    between atoms: C_18  and  N_21
REMARK   19  A    between atoms: C_19  and  O_20
REMARK   20  A    between atoms: C_22  and  C_24
REMARK   21  A    between atoms: C_24  and  O_25
REMARK   22  A    between atoms: C_24  and  C_26
REMARK   23  A    between atoms: C_26  and  C_27
REMARK                            x       y       z     vdW  Elec       q    Type
REMARK                         _______ _______ _______ _____ _____    ______ ____
ROOT
ATOM      1  C   UNK A   1       5.960   4.283  18.172  0.00  0.00    +0.000 C 
ENDROOT
BRANCH   1   2
ATOM      2  O   UNK A   1       6.300   4.974  19.395  0.00  0.00    +0.000 OA
ATOM      3  H   UNK A   1       5.640   4.746  20.072  0.00  0.00    +0.000 HD
ENDBRANCH   1   2
BRANCH   1   5
ATOM      4  C   UNK A   1       3.845   2.962  17.624  0.00  0.00    +0.000 C 
ATOM      5  C   UNK A   1       4.471   4.054  18.083  0.00  0.00    +0.000 C 
BRANCH   4   6
ATOM      6  C   UNK A   1       2.355   2.802  17.672  0.00  0.00    +0.000 C 
BRANCH   6   7
ATOM      7  C   UNK A   1       1.950   2.056  18.947  0.00  0.00    +0.000 C 
BRANCH   7   8
ATOM      8  C   UNK A   1       0.855   2.784  19.727  0.00  0.00    +0.000 C 
BRANCH   8   9
ATOM      9  C   UNK A   1       1.275   3.090  21.159  0.00  0.00    +0.000 C 
BRANCH   9  10
ATOM     10  C   UNK A   1       2.196   4.299  21.222  0.00  0.00    +0.000 C 
BRANCH  10  11
ATOM     11  C   UNK A   1       1.531   5.491  20.546  0.00  0.00    +0.000 C 
BRANCH  11  12
ATOM     12  C   UNK A   1       2.476   6.136  19.546  0.00  0.00    +0.000 C 
BRANCH  12  13
ATOM     13  C   UNK A   1       2.250   7.640  19.485  0.00  0.00    +0.000 C 
BRANCH  13  14
ATOM     14  C   UNK A   1       2.255   8.120  18.040  0.00  0.00    +0.000 C 
BRANCH  14  15
ATOM     15  C   UNK A   1       1.628   9.504  17.922  0.00  0.00    +0.000 C 
BRANCH  15  16
ATOM     16  C   UNK A   1       0.851   9.850  19.187  0.00  0.00    +0.000 C 
BRANCH  16  18
ATOM     17  C   UNK A   1       0.416  11.633  20.894  0.00  0.00    +0.000 C 
ATOM     18  C   UNK A   1       0.953  11.337  19.506  0.00  0.00    +0.000 C 
ENDBRANCH  16  18
ENDBRANCH  15  16
ENDBRANCH  14  15
ENDBRANCH  13  14
ENDBRANCH  12  13
ENDBRANCH  11  12
ENDBRANCH  10  11
ENDBRANCH   9  10
ENDBRANCH   8   9
ENDBRANCH   7   8
ENDBRANCH   6   7
ENDBRANCH   4   6
ENDBRANCH   1   5
BRANCH   1  19
ATOM     19  C   UNK A   1       6.487   5.076  16.929  0.00  0.00    +0.000 C 
BRANCH  19  20
ATOM     20  N   UNK A   1       6.298   4.328  15.676  0.00  0.00    +0.000 N 
ATOM     21  C   UNK A   0       6.957   4.672  14.514  0.00  0.00    +0.000 C 
ATOM     22  O   UNK A   0       7.789   5.576  14.430  0.00  0.00    +0.000 OA
ATOM     23  H   UNK A   1       5.499   3.704  15.616  0.00  0.00    +0.000 HD
BRANCH  21  24
ATOM     24  C   UNK A   0       6.578   3.837  13.287  0.00  0.00    +0.000 C 
BRANCH  24  25
ATOM     25  C   UNK A   0       5.072   3.899  13.027  0.00  0.00    +0.000 C 
ATOM     26  C   UNK A   0       4.693   3.250  11.701  0.00  0.00    +0.000 C 
ENDBRANCH  24  25
BRANCH  24  27
ATOM     27  O   UNK A   0       7.276   4.343  12.152  0.00  0.00    +0.000 OA
ATOM     28  H   UNK A   0       7.711   5.170  12.442  0.00  0.00    +0.000 HD
ENDBRANCH  24  27
ENDBRANCH  21  24
ENDBRANCH  19  20
BRANCH  19  29
ATOM     29  C   UNK A   1       5.863   6.491  16.794  0.00  0.00    +0.000 C 
BRANCH  29  30
ATOM     30  O   UNK A   1       4.619   6.445  16.090  0.00  0.00    +0.000 OA
ATOM     31  H   UNK A   1       4.124   7.245  16.348  0.00  0.00    +0.000 HD
ENDBRANCH  29  30
ENDBRANCH  19  29
ENDBRANCH   1  19
TORSDOF 21
ENDMDL
MODEL 2
REMARK VINA RESULT:      -6.0      1.425      2.245
REMARK  Name = 
REMARK  23 active torsions:
REMARK  status: ('A' for Active; 'I' for Inactive)
REMARK    1  A    between atoms: C_1  and  C_2
REMARK    2  A    between atoms: C_2  and  C_3
REMARK    3  A    between atoms: C_3  and  C_4
REMARK    4  A    between atoms: C_4  and  C_5
REMARK    5  A    between atoms: C_5  and  C_6
REMARK    6  A    between atoms: C_6  and  C_7
REMARK    7  A    between atoms: C_7  and  C_8
REMARK    8  A    between atoms: C_8  and  C_9
REMARK    9  A    between atoms: C_9  and  C_10
REMARK   10  A    between atoms: C_10  and  C_11
REMARK   11  A    between atoms: C_11  and  C_12
REMARK   12  A    between atoms: C_12  and  C_13
REMARK   13  A    between atoms: C_13  and  C_14
REMARK   14  A    between atoms: C_15  and  C_16
REMARK   15  A    between atoms: C_16  and  O_17
REMARK   16  A    between atoms: C_16  and  C_18
REMARK   17  A    between atoms: C_18  and  C_19
REMARK   18  A    between atoms: C_18  and  N_21
REMARK   19  A    between atoms: C_19  and  O_20
REMARK   20  A    between atoms: C_22  and  C_24
REMARK   21  A    between atoms: C_24  and  O_25
REMARK   22  A    between atoms: C_24  and  C_26
REMARK   23  A    between atoms: C_26  and  C_27
REMARK                            x       y       z     vdW  Elec       q    Type
REMARK                         _______ _______ _______ _____ _____    ______ ____
ROOT
ATOM      1  C   UNK A   1       5.342   5.190  18.675  0.00  0.00    +0.000 C 
ENDROOT
BRANCH   1   2
ATOM      2  O   UNK A   1       5.199   6.453  17.988  0.00  0.00    +0.000 OA
ATOM      3  H   UNK A   1       4.519   6.977  18.442  0.00  0.00    +0.000 HD
ENDBRANCH   1   2
BRANCH   1   5
ATOM      4  C   UNK A   1       3.953   3.053  18.822  0.00  0.00    +0.000 C 
ATOM      5  C   UNK A   1       4.258   4.227  18.254  0.00  0.00    +0.000 C 
BRANCH   4   6
ATOM      6  C   UNK A   1       2.788   2.218  18.379  0.00  0.00    +0.000 C 
BRANCH   6   7
ATOM      7  C   UNK A   1       1.757   2.117  19.507  0.00  0.00    +0.000 C 
BRANCH   7   8
ATOM      8  C   UNK A   1       0.948   3.403  19.675  0.00  0.00    +0.000 C 
BRANCH   8   9
ATOM      9  C   UNK A   1       1.391   4.206  20.893  0.00  0.00    +0.000 C 
BRANCH   9  10
ATOM     10  C   UNK A   1       1.278   5.702  20.642  0.00  0.00    +0.000 C 
BRANCH  10  11
ATOM     11  C   UNK A   1       2.061   6.076  19.389  0.00  0.00    +0.000 C 
BRANCH  11  12
ATOM     12  C   UNK A   1       2.190   7.586  19.269  0.00  0.00    +0.000 C 
BRANCH  12  13
ATOM     13  C   UNK A   1       1.616   8.274  20.500  0.00  0.00    +0.000 C 
BRANCH  13  14
ATOM     14  C   UNK A   1       0.988   9.608  20.118  0.00  0.00    +0.000 C 
BRANCH  14  15
ATOM     15  C   UNK A   1      -0.433   9.716  20.657  0.00  0.00    +0.000 C 
BRANCH  15  16
ATOM     16  C   UNK A   1      -0.700  11.120  21.187  0.00  0.00    +0.000 C 
BRANCH  16  18
ATOM     17  C   UNK A   1      -0.630   9.732  23.274  0.00  0.00    +0.000 C 
ATOM     18  C   UNK A   1      -0.922  11.105  22.696  0.00  0.00    +0.000 C 
ENDBRANCH  16  18
ENDBRANCH  15  16
ENDBRANCH  14  15
ENDBRANCH  13  14
ENDBRANCH  12  13
ENDBRANCH  11  12
ENDBRANCH  10  11
ENDBRANCH   9  10
ENDBRANCH   8   9
ENDBRANCH   7   8
ENDBRANCH   6   7
ENDBRANCH   4   6
ENDBRANCH   1   5
BRANCH   1  19
ATOM     19  C   UNK A   1       6.765   4.586  18.426  0.00  0.00    +0.000 C 
BRANCH  19  20
ATOM     20  N   UNK A   1       6.965   4.209  17.018  0.00  0.00    +0.000 N 
ATOM     21  C   UNK A   0       7.199   5.150  16.037  0.00  0.00    +0.000 C 
ATOM     22  O   UNK A   0       7.318   6.358  16.247  0.00  0.00    +0.000 OA
ATOM     23  H   UNK A   1       6.694   3.272  16.739  0.00  0.00    +0.000 HD
BRANCH  21  24
ATOM     24  C   UNK A   0       7.301   4.587  14.615  0.00  0.00    +0.000 C 
BRANCH  24  25
ATOM     25  C   UNK A   0       5.945   4.069  14.134  0.00  0.00    +0.000 C 
ATOM     26  C   UNK A   0       6.003   3.559  12.699  0.00  0.00    +0.000 C 
ENDBRANCH  24  25
BRANCH  24  27
ATOM     27  O   UNK A   0       7.751   5.620  13.742  0.00  0.00    +0.000 OA
ATOM     28  H   UNK A   0       7.228   6.416  13.964  0.00  0.00    +0.000 HD
ENDBRANCH  24  27
ENDBRANCH  21  24
ENDBRANCH  19  20
BRANCH  19  29
ATOM     29  C   UNK A   1       7.917   5.519  18.888  0.00  0.00    +0.000 C 
BRANCH  29  30
ATOM     30  O   UNK A   1       8.019   5.551  20.314  0.00  0.00    +0.000 OA
ATOM     31  H   UNK A   1       7.144   5.822  20.649  0.00  0.00    +0.000 HD
ENDBRANCH  29  30
ENDBRANCH  19  29
ENDBRANCH   1  19
TORSDOF 21
ENDMDL
MODEL 3
REMARK VINA RESULT:      -6.0      2.555      4.955
REMARK  Name = 
REMARK  23 active torsions:
REMARK  status: ('A' for Active; 'I' for Inactive)
REMARK    1  A    between atoms: C_1  and  C_2
REMARK    2  A    between atoms: C_2  and  C_3
REMARK    3  A    between atoms: C_3  and  C_4
REMARK    4  A    between atoms: C_4  and  C_5
REMARK    5  A    between atoms: C_5  and  C_6
REMARK    6  A    between atoms: C_6  and  C_7
REMARK    7  A    between atoms: C_7  and  C_8
REMARK    8  A    between atoms: C_8  and  C_9
REMARK    9  A    between atoms: C_9  and  C_10
REMARK   10  A    between atoms: C_10  and  C_11
REMARK   11  A    between atoms: C_11  and  C_12
REMARK   12  A    between atoms: C_12  and  C_13
REMARK   13  A    between atoms: C_13  and  C_14
REMARK   14  A    between atoms: C_15  and  C_16
REMARK   15  A    between atoms: C_16  and  O_17
REMARK   16  A    between atoms: C_16  and  C_18
REMARK   17  A    between atoms: C_18  and  C_19
REMARK   18  A    between atoms: C_18  and  N_21
REMARK   19  A    between atoms: C_19  and  O_20
REMARK   20  A    between atoms: C_22  and  C_24
REMARK   21  A    between atoms: C_24  and  O_25
REMARK   22  A    between atoms: C_24  and  C_26
REMARK   23  A    between atoms: C_26  and  C_27
REMARK                            x       y       z     vdW  Elec       q    Type
REMARK                         _______ _______ _______ _____ _____    ______ ____
ROOT
ATOM      1  C   UNK A   1       5.641   6.266  16.925  0.00  0.00    +0.000 C 
ENDROOT
BRANCH   1   2
ATOM      2  O   UNK A   1       5.495   6.772  15.579  0.00  0.00    +0.000 OA
ATOM      3  H   UNK A   1       5.103   6.075  15.027  0.00  0.00    +0.000 HD
ENDBRANCH   1   2
BRANCH   1   5
ATOM      4  C   UNK A   1       3.411   7.411  17.410  0.00  0.00    +0.000 C 
ATOM      5  C   UNK A   1       4.445   6.637  17.768  0.00  0.00    +0.000 C 
BRANCH   4   6
ATOM      6  C   UNK A   1       2.224   7.636  18.298  0.00  0.00    +0.000 C 
BRANCH   6   7
ATOM      7  C   UNK A   1       2.546   7.187  19.727  0.00  0.00    +0.000 C 
BRANCH   7   8
ATOM      8  C   UNK A   1       1.311   7.168  20.626  0.00  0.00    +0.000 C 
BRANCH   8   9
ATOM      9  C   UNK A   1       1.349   8.268  21.680  0.00  0.00    +0.000 C 
BRANCH   9  10
ATOM     10  C   UNK A   1      -0.005   8.945  21.826  0.00  0.00    +0.000 C 
BRANCH  10  11
ATOM     11  C   UNK A   1      -0.418   9.566  20.497  0.00  0.00    +0.000 C 
BRANCH  11  12
ATOM     12  C   UNK A   1       0.274  10.903  20.293  0.00  0.00    +0.000 C 
BRANCH  12  13
ATOM     13  C   UNK A   1       0.158  11.353  18.844  0.00  0.00    +0.000 C 
BRANCH  13  14
ATOM     14  C   UNK A   1      -0.716  10.387  18.056  0.00  0.00    +0.000 C 
BRANCH  14  15
ATOM     15  C   UNK A   1      -1.997  11.069  17.588  0.00  0.00    +0.000 C 
BRANCH  15  16
ATOM     16  C   UNK A   1      -2.992  10.039  17.064  0.00  0.00    +0.000 C 
BRANCH  16  18
ATOM     17  C   UNK A   1      -2.950   9.983  14.558  0.00  0.00    +0.000 C 
ATOM     18  C   UNK A   1      -3.663  10.524  15.785  0.00  0.00    +0.000 C 
ENDBRANCH  16  18
ENDBRANCH  15  16
ENDBRANCH  14  15
ENDBRANCH  13  14
ENDBRANCH  12  13
ENDBRANCH  11  12
ENDBRANCH  10  11
ENDBRANCH   9  10
ENDBRANCH   8   9
ENDBRANCH   7   8
ENDBRANCH   6   7
ENDBRANCH   4   6
ENDBRANCH   1   5
BRANCH   1  19
ATOM     19  C   UNK A   1       5.863   4.716  16.907  0.00  0.00    +0.000 C 
BRANCH  19  20
ATOM     20  N   UNK A   1       4.649   3.980  17.292  0.00  0.00    +0.000 N 
ATOM     21  C   UNK A   0       4.515   3.390  18.532  0.00  0.00    +0.000 C 
ATOM     22  O   UNK A   0       5.352   3.469  19.432  0.00  0.00    +0.000 OA
ATOM     23  H   UNK A   1       4.008   3.710  16.553  0.00  0.00    +0.000 HD
BRANCH  21  24
ATOM     24  C   UNK A   0       3.221   2.595  18.732  0.00  0.00    +0.000 C 
BRANCH  24  25
ATOM     25  C   UNK A   0       2.091   3.165  17.874  0.00  0.00    +0.000 C 
ATOM     26  C   UNK A   0       1.094   3.970  18.700  0.00  0.00    +0.000 C 
ENDBRANCH  24  25
BRANCH  24  27
ATOM     27  O   UNK A   0       3.453   1.237  18.368  0.00  0.00    +0.000 OA
ATOM     28  H   UNK A   0       2.688   0.727  18.702  0.00  0.00    +0.000 HD
ENDBRANCH  24  27
ENDBRANCH  21  24
ENDBRANCH  19  20
BRANCH  19  29
ATOM     29  C   UNK A   1       6.388   4.186  15.546  0.00  0.00    +0.000 C 
BRANCH  29  30
ATOM     30  O   UNK A   1       5.378   4.256  14.537  0.00  0.00    +0.000 OA
ATOM     31  H   UNK A   1       5.623   4.994  13.948  0.00  0.00    +0.000 HD
ENDBRANCH  29  30
ENDBRANCH  19  29
ENDBRANCH   1  19
TORSDOF 21
ENDMDL
MODEL 4
REMARK VINA RESULT:      -5.9      3.326      7.718
REMARK  Name = 
REMARK  23 active torsions:
REMARK  status: ('A' for Active; 'I' for Inactive)
REMARK    1  A    between atoms: C_1  and  C_2
REMARK    2  A    between atoms: C_2  and  C_3
REMARK    3  A    between atoms: C_3  and  C_4
REMARK    4  A    between atoms: C_4  and  C_5
REMARK    5  A    between atoms: C_5  and  C_6
REMARK    6  A    between atoms: C_6  and  C_7
REMARK    7  A    between atoms: C_7  and  C_8
REMARK    8  A    between atoms: C_8  and  C_9
REMARK    9  A    between atoms: C_9  and  C_10
REMARK   10  A    between atoms: C_10  and  C_11
REMARK   11  A    between atoms: C_11  and  C_12
REMARK   12  A    between atoms: C_12  and  C_13
REMARK   13  A    between atoms: C_13  and  C_14
REMARK   14  A    between atoms: C_15  and  C_16
REMARK   15  A    between atoms: C_16  and  O_17
REMARK   16  A    between atoms: C_16  and  C_18
REMARK   17  A    between atoms: C_18  and  C_19
REMARK   18  A    between atoms: C_18  and  N_21
REMARK   19  A    between atoms: C_19  and  O_20
REMARK   20  A    between atoms: C_22  and  C_24
REMARK   21  A    between atoms: C_24  and  O_25
REMARK   22  A    between atoms: C_24  and  C_26
REMARK   23  A    between atoms: C_26  and  C_27
REMARK                            x       y       z     vdW  Elec       q    Type
REMARK                         _______ _______ _______ _____ _____    ______ ____
ROOT
ATOM      1  C   UNK A   1       1.880   7.335  19.290  0.00  0.00    +0.000 C 
ENDROOT
BRANCH   1   2
ATOM      2  O   UNK A   1       2.961   7.602  18.368  0.00  0.00    +0.000 OA
ATOM      3  H   UNK A   1       2.703   8.344  17.796  0.00  0.00    +0.000 HD
ENDBRANCH   1   2
BRANCH   1   5
ATOM      4  C   UNK A   1       1.422   5.080  20.396  0.00  0.00    +0.000 C 
ATOM      5  C   UNK A   1       2.202   6.142  20.158  0.00  0.00    +0.000 C 
BRANCH   4   6
ATOM      6  C   UNK A   1       1.882   3.901  21.201  0.00  0.00    +0.000 C 
BRANCH   6   7
ATOM      7  C   UNK A   1       1.460   2.600  20.512  0.00  0.00    +0.000 C 
BRANCH   7   8
ATOM      8  C   UNK A   1       1.286   2.768  19.003  0.00  0.00    +0.000 C 
BRANCH   8   9
ATOM      9  C   UNK A   1       2.445   2.163  18.220  0.00  0.00    +0.000 C 
BRANCH   9  10
ATOM     10  C   UNK A   1       3.246   3.234  17.496  0.00  0.00    +0.000 C 
BRANCH  10  11
ATOM     11  C   UNK A   1       4.328   3.782  18.419  0.00  0.00    +0.000 C 
BRANCH  11  12
ATOM     12  C   UNK A   1       5.321   4.625  17.637  0.00  0.00    +0.000 C 
BRANCH  12  13
ATOM     13  C   UNK A   1       4.989   4.609  16.151  0.00  0.00    +0.000 C 
BRANCH  13  14
ATOM     14  C   UNK A   1       5.918   5.545  15.389  0.00  0.00    +0.000 C 
BRANCH  14  15
ATOM     15  C   UNK A   1       6.677   4.794  14.303  0.00  0.00    +0.000 C 
BRANCH  15  16
ATOM     16  C   UNK A   1       5.841   3.639  13.764  0.00  0.00    +0.000 C 
BRANCH  16  18
ATOM     17  C   UNK A   1       4.687   3.139  11.595  0.00  0.00    +0.000 C 
ATOM     18  C   UNK A   1       6.007   3.497  12.255  0.00  0.00    +0.000 C 
ENDBRANCH  16  18
ENDBRANCH  15  16
ENDBRANCH  14  15
ENDBRANCH  13  14
ENDBRANCH  12  13
ENDBRANCH  11  12
ENDBRANCH  10  11
ENDBRANCH   9  10
ENDBRANCH   8   9
ENDBRANCH   7   8
ENDBRANCH   6   7
ENDBRANCH   4   6
ENDBRANCH   1   5
BRANCH   1  19
ATOM     19  C   UNK A   1       1.572   8.601  20.157  0.00  0.00    +0.000 C 
BRANCH  19  20
ATOM     20  N   UNK A   1       0.409   9.346  19.652  0.00  0.00    +0.000 N 
ATOM     21  C   UNK A   0       0.479  10.126  18.516  0.00  0.00    +0.000 C 
ATOM     22  O   UNK A   0       1.478  10.225  17.802  0.00  0.00    +0.000 OA
ATOM     23  H   UNK A   1      -0.380   9.469  20.278  0.00  0.00    +0.000 HD
BRANCH  21  24
ATOM     24  C   UNK A   0      -0.803  10.896  18.182  0.00  0.00    +0.000 C 
BRANCH  24  25
ATOM     25  C   UNK A   0      -1.809   9.997  17.462  0.00  0.00    +0.000 C 
ATOM     26  C   UNK A   0      -2.575  10.748  16.379  0.00  0.00    +0.000 C 
ENDBRANCH  24  25
BRANCH  24  27
ATOM     27  O   UNK A   0      -1.380  11.379  19.393  0.00  0.00    +0.000 OA
ATOM     28  H   UNK A   0      -2.048  10.717  19.663  0.00  0.00    +0.000 HD
ENDBRANCH  24  27
ENDBRANCH  21  24
ENDBRANCH  19  20
BRANCH  19  29
ATOM     29  C   UNK A   1       1.377   8.282  21.664  0.00  0.00    +0.000 C 
BRANCH  29  30
ATOM     30  O   UNK A   1       0.015   8.461  22.060  0.00  0.00    +0.000 OA
ATOM     31  H   UNK A   1      -0.097   7.978  22.900  0.00  0.00    +0.000 HD
ENDBRANCH  29  30
ENDBRANCH  19  29
ENDBRANCH   1  19
TORSDOF 21
ENDMDL
MODEL 5
REMARK VINA RESULT:      -5.8      2.562      5.498
REMARK  Name = 
REMARK  23 active torsions:
REMARK  status: ('A' for Active; 'I' for Inactive)
REMARK    1  A    between atoms: C_1  and  C_2
REMARK    2  A    between atoms: C_2  and  C_3
REMARK    3  A    between atoms: C_3  and  C_4
REMARK    4  A    between atoms: C_4  and  C_5
REMARK    5  A    between atoms: C_5  and  C_6
REMARK    6  A    between atoms: C_6  and  C_7
REMARK    7  A    between atoms: C_7  and  C_8
REMARK    8  A    between atoms: C_8  and  C_9
REMARK    9  A    between atoms: C_9  and  C_10
REMARK   10  A    between atoms: C_10  and  C_11
REMARK   11  A    between atoms: C_11  and  C_12
REMARK   12  A    between atoms: C_12  and  C_13
REMARK   13  A    between atoms: C_13  and  C_14
REMARK   14  A    between atoms: C_15  and  C_16
REMARK   15  A    between atoms: C_16  and  O_17
REMARK   16  A    between atoms: C_16  and  C_18
REMARK   17  A    between atoms: C_18  and  C_19
REMARK   18  A    between atoms: C_18  and  N_21
REMARK   19  A    between atoms: C_19  and  O_20
REMARK   20  A    between atoms: C_22  and  C_24
REMARK   21  A    between atoms: C_24  and  O_25
REMARK   22  A    between atoms: C_24  and  C_26
REMARK   23  A    between atoms: C_26  and  C_27
REMARK                            x       y       z     vdW  Elec       q    Type
REMARK                         _______ _______ _______ _____ _____    ______ ____
ROOT
ATOM      1  C   UNK A   1       3.946   4.506  17.283  0.00  0.00    +0.000 C 
ENDROOT
BRANCH   1   2
ATOM      2  O   UNK A   1       2.748   3.713  17.131  0.00  0.00    +0.000 OA
ATOM      3  H   UNK A   1       2.293   3.671  17.989  0.00  0.00    +0.000 HD
ENDBRANCH   1   2
BRANCH   1   5
ATOM      4  C   UNK A   1       3.625   7.037  17.402  0.00  0.00    +0.000 C 
ATOM      5  C   UNK A   1       3.635   5.819  17.961  0.00  0.00    +0.000 C 
BRANCH   4   6
ATOM      6  C   UNK A   1       3.205   8.267  18.149  0.00  0.00    +0.000 C 
BRANCH   6   7
ATOM      7  C   UNK A   1       2.190   9.061  17.322  0.00  0.00    +0.000 C 
BRANCH   7   8
ATOM      8  C   UNK A   1       0.945   9.434  18.126  0.00  0.00    +0.000 C 
BRANCH   8   9
ATOM      9  C   UNK A   1       1.073  10.805  18.781  0.00  0.00    +0.000 C 
BRANCH   9  10
ATOM     10  C   UNK A   1       0.660  10.761  20.244  0.00  0.00    +0.000 C 
BRANCH  10  11
ATOM     11  C   UNK A   1      -0.513   9.804  20.422  0.00  0.00    +0.000 C 
BRANCH  11  12
ATOM     12  C   UNK A   1      -0.308   8.929  21.647  0.00  0.00    +0.000 C 
BRANCH  12  13
ATOM     13  C   UNK A   1       1.158   8.908  22.055  0.00  0.00    +0.000 C 
BRANCH  13  14
ATOM     14  C   UNK A   1       1.908   7.827  21.288  0.00  0.00    +0.000 C 
BRANCH  14  15
ATOM     15  C   UNK A   1       1.023   6.607  21.059  0.00  0.00    +0.000 C 
BRANCH  15  16
ATOM     16  C   UNK A   1       1.816   5.487  20.396  0.00  0.00    +0.000 C 
BRANCH  16  18
ATOM     17  C   UNK A   1       0.861   3.211  19.952  0.00  0.00    +0.000 C 
ATOM     18  C   UNK A   1       1.463   4.132  20.999  0.00  0.00    +0.000 C 
ENDBRANCH  16  18
ENDBRANCH  15  16
ENDBRANCH  14  15
ENDBRANCH  13  14
ENDBRANCH  12  13
ENDBRANCH  11  12
ENDBRANCH  10  11
ENDBRANCH   9  10
ENDBRANCH   8   9
ENDBRANCH   7   8
ENDBRANCH   6   7
ENDBRANCH   4   6
ENDBRANCH   1   5
BRANCH   1  19
ATOM     19  C   UNK A   1       5.038   3.706  18.071  0.00  0.00    +0.000 C 
BRANCH  19  20
ATOM     20  N   UNK A   1       6.024   4.595  18.703  0.00  0.00    +0.000 N 
ATOM     21  C   UNK A   0       7.262   4.830  18.140  0.00  0.00    +0.000 C 
ATOM     22  O   UNK A   0       7.628   4.377  17.054  0.00  0.00    +0.000 OA
ATOM     23  H   UNK A   1       5.877   4.847  19.675  0.00  0.00    +0.000 HD
BRANCH  21  24
ATOM     24  C   UNK A   0       8.193   5.715  18.974  0.00  0.00    +0.000 C 
BRANCH  24  25
ATOM     25  C   UNK A   0       7.980   7.193  18.648  0.00  0.00    +0.000 C 
ATOM     26  C   UNK A   0       7.394   7.394  17.255  0.00  0.00    +0.000 C 
ENDBRANCH  24  25
BRANCH  24  27
ATOM     27  O   UNK A   0       7.926   5.491  20.356  0.00  0.00    +0.000 OA
ATOM     28  H   UNK A   0       8.029   4.530  20.505  0.00  0.00    +0.000 HD
ENDBRANCH  24  27
ENDBRANCH  21  24
ENDBRANCH  19  20
BRANCH  19  29
ATOM     29  C   UNK A   1       4.445   2.740  19.132  0.00  0.00    +0.000 C 
BRANCH  29  30
ATOM     30  O   UNK A   1       4.085   1.486  18.549  0.00  0.00    +0.000 OA
ATOM     31  H   UNK A   1       4.336   0.797  19.193  0.00  0.00    +0.000 HD
ENDBRANCH  29  30
ENDBRANCH  19  29
ENDBRANCH   1  19
TORSDOF 21
ENDMDL
MODEL 6
REMARK VINA RESULT:      -5.8      6.065      8.412
REMARK  Name = 
REMARK  23 active torsions:
REMARK  status: ('A' for Active; 'I' for Inactive)
REMARK    1  A    between atoms: C_1  and  C_2
REMARK    2  A    between atoms: C_2  and  C_3
REMARK    3  A    between atoms: C_3  and  C_4
REMARK    4  A    between atoms: C_4  and  C_5
REMARK    5  A    between atoms: C_5  and  C_6
REMARK    6  A    between atoms: C_6  and  C_7
REMARK    7  A    between atoms: C_7  and  C_8
REMARK    8  A    between atoms: C_8  and  C_9
REMARK    9  A    between atoms: C_9  and  C_10
REMARK   10  A    between atoms: C_10  and  C_11
REMARK   11  A    between atoms: C_11  and  C_12
REMARK   12  A    between atoms: C_12  and  C_13
REMARK   13  A    between atoms: C_13  and  C_14
REMARK   14  A    between atoms: C_15  and  C_16
REMARK   15  A    between atoms: C_16  and  O_17
REMARK   16  A    between atoms: C_16  and  C_18
REMARK   17  A    between atoms: C_18  and  C_19
REMARK   18  A    between atoms: C_18  and  N_21
REMARK   19  A    between atoms: C_19  and  O_20
REMARK   20  A    between atoms: C_22  and  C_24
REMARK   21  A    between atoms: C_24  and  O_25
REMARK   22  A    between atoms: C_24  and  C_26
REMARK   23  A    between atoms: C_26  and  C_27
REMARK                            x       y       z     vdW  Elec       q    Type
REMARK                         _______ _______ _______ _____ _____    ______ ____
ROOT
ATOM      1  C   UNK A   1       5.785   6.600  16.458  0.00  0.00    +0.000 C 
ENDROOT
BRANCH   1   2
ATOM      2  O   UNK A   1       4.366   6.664  16.727  0.00  0.00    +0.000 OA
ATOM      3  H   UNK A   1       3.887   6.465  15.905  0.00  0.00    +0.000 HD
ENDBRANCH   1   2
BRANCH   1   5
ATOM      4  C   UNK A   1       7.821   7.482  17.722  0.00  0.00    +0.000 C 
ATOM      5  C   UNK A   1       6.539   7.565  17.341  0.00  0.00    +0.000 C 
BRANCH   4   6
ATOM      6  C   UNK A   1       8.497   8.553  18.525  0.00  0.00    +0.000 C 
BRANCH   6   7
ATOM      7  C   UNK A   1       8.321   9.911  17.839  0.00  0.00    +0.000 C 
BRANCH   7   8
ATOM      8  C   UNK A   1       9.314  10.956  18.348  0.00  0.00    +0.000 C 
BRANCH   8   9
ATOM      9  C   UNK A   1       9.784  10.659  19.768  0.00  0.00    +0.000 C 
BRANCH   9  10
ATOM     10  C   UNK A   1      10.592  11.814  20.339  0.00  0.00    +0.000 C 
BRANCH  10  11
ATOM     11  C   UNK A   1       9.869  12.404  21.543  0.00  0.00    +0.000 C 
BRANCH  11  12
ATOM     12  C   UNK A   1       8.616  13.143  21.105  0.00  0.00    +0.000 C 
BRANCH  12  13
ATOM     13  C   UNK A   1       8.921  14.611  20.841  0.00  0.00    +0.000 C 
BRANCH  13  14
ATOM     14  C   UNK A   1      10.187  15.031  21.575  0.00  0.00    +0.000 C 
BRANCH  14  15
ATOM     15  C   UNK A   1      11.231  15.565  20.602  0.00  0.00    +0.000 C 
BRANCH  15  16
ATOM     16  C   UNK A   1      10.741  15.430  19.164  0.00  0.00    +0.000 C 
BRANCH  16  18
ATOM     17  C   UNK A   1      12.308  16.022  17.298  0.00  0.00    +0.000 C 
ATOM     18  C   UNK A   1      11.853  14.929  18.249  0.00  0.00    +0.000 C 
ENDBRANCH  16  18
ENDBRANCH  15  16
ENDBRANCH  14  15
ENDBRANCH  13  14
ENDBRANCH  12  13
ENDBRANCH  11  12
ENDBRANCH  10  11
ENDBRANCH   9  10
ENDBRANCH   8   9
ENDBRANCH   7   8
ENDBRANCH   6   7
ENDBRANCH   4   6
ENDBRANCH   1   5
BRANCH   1  19
ATOM     19  C   UNK A   1       6.313   5.137  16.636  0.00  0.00    +0.000 C 
BRANCH  19  20
ATOM     20  N   UNK A   1       5.322   4.269  17.292  0.00  0.00    +0.000 N 
ATOM     21  C   UNK A   0       5.370   4.001  18.645  0.00  0.00    +0.000 C 
ATOM     22  O   UNK A   0       6.188   4.495  19.423  0.00  0.00    +0.000 OA
ATOM     23  H   UNK A   1       4.745   3.682  16.700  0.00  0.00    +0.000 HD
BRANCH  21  24
ATOM     24  C   UNK A   0       4.311   3.012  19.143  0.00  0.00    +0.000 C 
BRANCH  24  25
ATOM     25  C   UNK A   0       3.592   2.344  17.971  0.00  0.00    +0.000 C 
ATOM     26  C   UNK A   0       2.090   2.236  18.207  0.00  0.00    +0.000 C 
ENDBRANCH  24  25
BRANCH  24  27
ATOM     27  O   UNK A   0       4.949   2.016  19.939  0.00  0.00    +0.000 OA
ATOM     28  H   UNK A   0       5.209   2.455  20.773  0.00  0.00    +0.000 HD
ENDBRANCH  24  27
ENDBRANCH  21  24
ENDBRANCH  19  20
BRANCH  19  29
ATOM     29  C   UNK A   1       6.781   4.487  15.307  0.00  0.00    +0.000 C 
BRANCH  29  30
ATOM     30  O   UNK A   1       7.640   5.365  14.574  0.00  0.00    +0.000 OA
ATOM     31  H   UNK A   1       7.903   4.886  13.765  0.00  0.00    +0.000 HD
ENDBRANCH  29  30
ENDBRANCH  19  29
ENDBRANCH   1  19
TORSDOF 21
ENDMDL
MODEL 7
REMARK VINA RESULT:      -5.8      1.259      4.877
REMARK  Name = 
REMARK  23 active torsions:
REMARK  status: ('A' for Active; 'I' for Inactive)
REMARK    1  A    between atoms: C_1  and  C_2
REMARK    2  A    between atoms: C_2  and  C_3
REMARK    3  A    between atoms: C_3  and  C_4
REMARK    4  A    between atoms: C_4  and  C_5
REMARK    5  A    between atoms: C_5  and  C_6
REMARK    6  A    between atoms: C_6  and  C_7
REMARK    7  A    between atoms: C_7  and  C_8
REMARK    8  A    between atoms: C_8  and  C_9
REMARK    9  A    between atoms: C_9  and  C_10
REMARK   10  A    between atoms: C_10  and  C_11
REMARK   11  A    between atoms: C_11  and  C_12
REMARK   12  A    between atoms: C_12  and  C_13
REMARK   13  A    between atoms: C_13  and  C_14
REMARK   14  A    between atoms: C_15  and  C_16
REMARK   15  A    between atoms: C_16  and  O_17
REMARK   16  A    between atoms: C_16  and  C_18
REMARK   17  A    between atoms: C_18  and  C_19
REMARK   18  A    between atoms: C_18  and  N_21
REMARK   19  A    between atoms: C_19  and  O_20
REMARK   20  A    between atoms: C_22  and  C_24
REMARK   21  A    between atoms: C_24  and  O_25
REMARK   22  A    between atoms: C_24  and  C_26
REMARK   23  A    between atoms: C_26  and  C_27
REMARK                            x       y       z     vdW  Elec       q    Type
REMARK                         _______ _______ _______ _____ _____    ______ ____
ROOT
ATOM      1  C   UNK A   1       5.018   6.563  17.605  0.00  0.00    +0.000 C 
ENDROOT
BRANCH   1   2
ATOM      2  O   UNK A   1       5.627   7.245  16.486  0.00  0.00    +0.000 OA
ATOM      3  H   UNK A   1       6.494   7.583  16.765  0.00  0.00    +0.000 HD
ENDBRANCH   1   2
BRANCH   1   5
ATOM      4  C   UNK A   1       2.942   7.999  17.220  0.00  0.00    +0.000 C 
ATOM      5  C   UNK A   1       3.718   7.226  17.992  0.00  0.00    +0.000 C 
BRANCH   4   6
ATOM      6  C   UNK A   1       1.617   8.530  17.679  0.00  0.00    +0.000 C 
BRANCH   6   7
ATOM      7  C   UNK A   1       1.782   9.957  18.213  0.00  0.00    +0.000 C 
BRANCH   7   8
ATOM      8  C   UNK A   1       0.488  10.509  18.811  0.00  0.00    +0.000 C 
BRANCH   8   9
ATOM      9  C   UNK A   1       0.528  10.544  20.335  0.00  0.00    +0.000 C 
BRANCH   9  10
ATOM     10  C   UNK A   1      -0.074   9.282  20.935  0.00  0.00    +0.000 C 
BRANCH  10  11
ATOM     11  C   UNK A   1       1.026   8.435  21.564  0.00  0.00    +0.000 C 
BRANCH  11  12
ATOM     12  C   UNK A   1       0.904   6.986  21.120  0.00  0.00    +0.000 C 
BRANCH  12  13
ATOM     13  C   UNK A   1       2.247   6.457  20.637  0.00  0.00    +0.000 C 
BRANCH  13  14
ATOM     14  C   UNK A   1       2.296   4.940  20.762  0.00  0.00    +0.000 C 
BRANCH  14  15
ATOM     15  C   UNK A   1       0.955   4.319  20.391  0.00  0.00    +0.000 C 
BRANCH  15  16
ATOM     16  C   UNK A   1       1.099   2.815  20.187  0.00  0.00    +0.000 C 
BRANCH  16  18
ATOM     17  C   UNK A   1       2.169   2.335  17.971  0.00  0.00    +0.000 C 
ATOM     18  C   UNK A   1       0.858   2.432  18.731  0.00  0.00    +0.000 C 
ENDBRANCH  16  18
ENDBRANCH  15  16
ENDBRANCH  14  15
ENDBRANCH  13  14
ENDBRANCH  12  13
ENDBRANCH  11  12
ENDBRANCH  10  11
ENDBRANCH   9  10
ENDBRANCH   8   9
ENDBRANCH   7   8
ENDBRANCH   6   7
ENDBRANCH   4   6
ENDBRANCH   1   5
BRANCH   1  19
ATOM     19  C   UNK A   1       4.805   5.047  17.275  0.00  0.00    +0.000 C 
BRANCH  19  20
ATOM     20  N   UNK A   1       5.340   4.691  15.952  0.00  0.00    +0.000 N 
ATOM     21  C   UNK A   0       6.696   4.619  15.709  0.00  0.00    +0.000 C 
ATOM     22  O   UNK A   0       7.565   4.784  16.566  0.00  0.00    +0.000 OA
ATOM     23  H   UNK A   1       4.705   4.730  15.161  0.00  0.00    +0.000 HD
BRANCH  21  24
ATOM     24  C   UNK A   0       7.076   4.316  14.256  0.00  0.00    +0.000 C 
BRANCH  24  25
ATOM     25  C   UNK A   0       5.834   4.005  13.419  0.00  0.00    +0.000 C 
ATOM     26  C   UNK A   0       6.165   3.159  12.196  0.00  0.00    +0.000 C 
ENDBRANCH  24  25
BRANCH  24  27
ATOM     27  O   UNK A   0       7.744   5.450  13.708  0.00  0.00    +0.000 OA
ATOM     28  H   UNK A   0       7.265   6.238  14.036  0.00  0.00    +0.000 HD
ENDBRANCH  24  27
ENDBRANCH  21  24
ENDBRANCH  19  20
BRANCH  19  29
ATOM     29  C   UNK A   1       5.390   4.095  18.352  0.00  0.00    +0.000 C 
BRANCH  29  30
ATOM     30  O   UNK A   1       6.245   4.799  19.257  0.00  0.00    +0.000 OA
ATOM     31  H   UNK A   1       6.695   4.122  19.798  0.00  0.00    +0.000 HD
ENDBRANCH  29  30
ENDBRANCH  19  29
ENDBRANCH   1  19
TORSDOF 21
ENDMDL
MODEL 8
REMARK VINA RESULT:      -5.8      1.582      2.320
REMARK  Name = 
REMARK  23 active torsions:
REMARK  status: ('A' for Active; 'I' for Inactive)
REMARK    1  A    between atoms: C_1  and  C_2
REMARK    2  A    between atoms: C_2  and  C_3
REMARK    3  A    between atoms: C_3  and  C_4
REMARK    4  A    between atoms: C_4  and  C_5
REMARK    5  A    between atoms: C_5  and  C_6
REMARK    6  A    between atoms: C_6  and  C_7
REMARK    7  A    between atoms: C_7  and  C_8
REMARK    8  A    between atoms: C_8  and  C_9
REMARK    9  A    between atoms: C_9  and  C_10
REMARK   10  A    between atoms: C_10  and  C_11
REMARK   11  A    between atoms: C_11  and  C_12
REMARK   12  A    between atoms: C_12  and  C_13
REMARK   13  A    between atoms: C_13  and  C_14
REMARK   14  A    between atoms: C_15  and  C_16
REMARK   15  A    between atoms: C_16  and  O_17
REMARK   16  A    between atoms: C_16  and  C_18
REMARK   17  A    between atoms: C_18  and  C_19
REMARK   18  A    between atoms: C_18  and  N_21
REMARK   19  A    between atoms: C_19  and  O_20
REMARK   20  A    between atoms: C_22  and  C_24
REMARK   21  A    between atoms: C_24  and  O_25
REMARK   22  A    between atoms: C_24  and  C_26
REMARK   23  A    between atoms: C_26  and  C_27
REMARK                            x       y       z     vdW  Elec       q    Type
REMARK                         _______ _______ _______ _____ _____    ______ ____
ROOT
ATOM      1  C   UNK A   1       6.032   6.230  18.075  0.00  0.00    +0.000 C 
ENDROOT
BRANCH   1   2
ATOM      2  O   UNK A   1       6.219   7.301  17.124  0.00  0.00    +0.000 OA
ATOM      3  H   UNK A   1       6.650   6.940  16.331  0.00  0.00    +0.000 HD
ENDBRANCH   1   2
BRANCH   1   5
ATOM      4  C   UNK A   1       3.819   5.266  17.242  0.00  0.00    +0.000 C 
ATOM      5  C   UNK A   1       4.572   5.857  18.178  0.00  0.00    +0.000 C 
BRANCH   4   6
ATOM      6  C   UNK A   1       2.399   4.852  17.488  0.00  0.00    +0.000 C 
BRANCH   6   7
ATOM      7  C   UNK A   1       2.320   3.333  17.666  0.00  0.00    +0.000 C 
BRANCH   7   8
ATOM      8  C   UNK A   1       1.127   2.906  18.521  0.00  0.00    +0.000 C 
BRANCH   8   9
ATOM      9  C   UNK A   1       1.558   2.166  19.782  0.00  0.00    +0.000 C 
BRANCH   9  10
ATOM     10  C   UNK A   1       1.345   3.016  21.025  0.00  0.00    +0.000 C 
BRANCH  10  11
ATOM     11  C   UNK A   1       1.011   4.447  20.621  0.00  0.00    +0.000 C 
BRANCH  11  12
ATOM     12  C   UNK A   1       2.106   5.399  21.071  0.00  0.00    +0.000 C 
BRANCH  12  13
ATOM     13  C   UNK A   1       1.917   6.773  20.442  0.00  0.00    +0.000 C 
BRANCH  13  14
ATOM     14  C   UNK A   1       0.836   7.551  21.181  0.00  0.00    +0.000 C 
BRANCH  14  15
ATOM     15  C   UNK A   1       1.079   9.052  21.080  0.00  0.00    +0.000 C 
BRANCH  15  16
ATOM     16  C   UNK A   1      -0.096   9.739  20.393  0.00  0.00    +0.000 C 
BRANCH  16  18
ATOM     17  C   UNK A   1      -1.053  10.181  18.118  0.00  0.00    +0.000 C 
ATOM     18  C   UNK A   1       0.221  10.040  18.932  0.00  0.00    +0.000 C 
ENDBRANCH  16  18
ENDBRANCH  15  16
ENDBRANCH  14  15
ENDBRANCH  13  14
ENDBRANCH  12  13
ENDBRANCH  11  12
ENDBRANCH  10  11
ENDBRANCH   9  10
ENDBRANCH   8   9
ENDBRANCH   7   8
ENDBRANCH   6   7
ENDBRANCH   4   6
ENDBRANCH   1   5
BRANCH   1  19
ATOM     19  C   UNK A   1       6.907   4.991  17.686  0.00  0.00    +0.000 C 
BRANCH  19  20
ATOM     20  N   UNK A   1       7.250   4.985  16.256  0.00  0.00    +0.000 N 
ATOM     21  C   UNK A   0       6.657   4.111  15.368  0.00  0.00    +0.000 C 
ATOM     22  O   UNK A   0       5.766   3.314  15.667  0.00  0.00    +0.000 OA
ATOM     23  H   UNK A   1       8.096   5.467  15.972  0.00  0.00    +0.000 HD
BRANCH  21  24
ATOM     24  C   UNK A   0       7.193   4.187  13.934  0.00  0.00    +0.000 C 
BRANCH  24  25
ATOM     25  C   UNK A   0       6.156   3.673  12.935  0.00  0.00    +0.000 C 
ATOM     26  C   UNK A   0       6.788   3.277  11.606  0.00  0.00    +0.000 C 
ENDBRANCH  24  25
BRANCH  24  27
ATOM     27  O   UNK A   0       7.512   5.543  13.632  0.00  0.00    +0.000 OA
ATOM     28  H   UNK A   0       8.392   5.531  13.205  0.00  0.00    +0.000 HD
ENDBRANCH  24  27
ENDBRANCH  21  24
ENDBRANCH  19  20
BRANCH  19  29
ATOM     29  C   UNK A   1       8.200   4.862  18.536  0.00  0.00    +0.000 C 
BRANCH  29  30
ATOM     30  O   UNK A   1       8.065   5.533  19.792  0.00  0.00    +0.000 OA
ATOM     31  H   UNK A   1       7.498   6.310  19.632  0.00  0.00    +0.000 HD
ENDBRANCH  29  30
ENDBRANCH  19  29
ENDBRANCH   1  19
TORSDOF 21
ENDMDL
MODEL 9
REMARK VINA RESULT:      -5.8      5.790      8.333
REMARK  Name = 
REMARK  23 active torsions:
REMARK  status: ('A' for Active; 'I' for Inactive)
REMARK    1  A    between atoms: C_1  and  C_2
REMARK    2  A    between atoms: C_2  and  C_3
REMARK    3  A    between atoms: C_3  and  C_4
REMARK    4  A    between atoms: C_4  and  C_5
REMARK    5  A    between atoms: C_5  and  C_6
REMARK    6  A    between atoms: C_6  and  C_7
REMARK    7  A    between atoms: C_7  and  C_8
REMARK    8  A    between atoms: C_8  and  C_9
REMARK    9  A    between atoms: C_9  and  C_10
REMARK   10  A    between atoms: C_10  and  C_11
REMARK   11  A    between atoms: C_11  and  C_12
REMARK   12  A    between atoms: C_12  and  C_13
REMARK   13  A    between atoms: C_13  and  C_14
REMARK   14  A    between atoms: C_15  and  C_16
REMARK   15  A    between atoms: C_16  and  O_17
REMARK   16  A    between atoms: C_16  and  C_18
REMARK   17  A    between atoms: C_18  and  C_19
REMARK   18  A    between atoms: C_18  and  N_21
REMARK   19  A    between atoms: C_19  and  O_20
REMARK   20  A    between atoms: C_22  and  C_24
REMARK   21  A    between atoms: C_24  and  O_25
REMARK   22  A    between atoms: C_24  and  C_26
REMARK   23  A    between atoms: C_26  and  C_27
REMARK                            x       y       z     vdW  Elec       q    Type
REMARK                         _______ _______ _______ _____ _____    ______ ____
ROOT
ATOM      1  C   UNK A   1       6.458   5.192  18.056  0.00  0.00    +0.000 C 
ENDROOT
BRANCH   1   2
ATOM      2  O   UNK A   1       7.114   4.196  17.240  0.00  0.00    +0.000 OA
ATOM      3  H   UNK A   1       6.841   4.325  16.316  0.00  0.00    +0.000 HD
ENDBRANCH   1   2
BRANCH   1   5
ATOM      4  C   UNK A   1       7.908   7.287  18.221  0.00  0.00    +0.000 C 
ATOM      5  C   UNK A   1       6.912   6.580  17.672  0.00  0.00    +0.000 C 
BRANCH   4   6
ATOM      6  C   UNK A   1       8.338   8.624  17.694  0.00  0.00    +0.000 C 
BRANCH   6   7
ATOM      7  C   UNK A   1       8.716   9.547  18.856  0.00  0.00    +0.000 C 
BRANCH   7   8
ATOM      8  C   UNK A   1       9.492  10.780  18.394  0.00  0.00    +0.000 C 
BRANCH   8   9
ATOM      9  C   UNK A   1      10.473  11.272  19.452  0.00  0.00    +0.000 C 
BRANCH   9  10
ATOM     10  C   UNK A   1      11.717  11.877  18.819  0.00  0.00    +0.000 C 
BRANCH  10  11
ATOM     11  C   UNK A   1      12.023  13.223  19.465  0.00  0.00    +0.000 C 
BRANCH  11  12
ATOM     12  C   UNK A   1      10.745  14.018  19.677  0.00  0.00    +0.000 C 
BRANCH  12  13
ATOM     13  C   UNK A   1      10.721  14.635  21.068  0.00  0.00    +0.000 C 
BRANCH  13  14
ATOM     14  C   UNK A   1       9.294  14.987  21.468  0.00  0.00    +0.000 C 
BRANCH  14  15
ATOM     15  C   UNK A   1       8.320  13.902  21.024  0.00  0.00    +0.000 C 
BRANCH  15  16
ATOM     16  C   UNK A   1       7.650  13.256  22.232  0.00  0.00    +0.000 C 
BRANCH  16  18
ATOM     17  C   UNK A   1       8.048  11.606  24.077  0.00  0.00    +0.000 C 
ATOM     18  C   UNK A   1       8.369  11.975  22.639  0.00  0.00    +0.000 C 
ENDBRANCH  16  18
ENDBRANCH  15  16
ENDBRANCH  14  15
ENDBRANCH  13  14
ENDBRANCH  12  13
ENDBRANCH  11  12
ENDBRANCH  10  11
ENDBRANCH   9  10
ENDBRANCH   8   9
ENDBRANCH   7   8
ENDBRANCH   6   7
ENDBRANCH   4   6
ENDBRANCH   1   5
BRANCH   1  19
ATOM     19  C   UNK A   1       4.902   5.054  17.949  0.00  0.00    +0.000 C 
BRANCH  19  20
ATOM     20  N   UNK A   1       4.394   3.921  18.738  0.00  0.00    +0.000 N 
ATOM     21  C   UNK A   0       3.264   3.222  18.367  0.00  0.00    +0.000 C 
ATOM     22  O   UNK A   0       2.622   3.436  17.337  0.00  0.00    +0.000 OA
ATOM     23  H   UNK A   1       4.746   3.809  19.683  0.00  0.00    +0.000 HD
BRANCH  21  24
ATOM     24  C   UNK A   0       2.831   2.128  19.348  0.00  0.00    +0.000 C 
BRANCH  24  25
ATOM     25  C   UNK A   0       2.356   2.734  20.669  0.00  0.00    +0.000 C 
ATOM     26  C   UNK A   0       1.099   3.577  20.493  0.00  0.00    +0.000 C 
ENDBRANCH  24  25
BRANCH  24  27
ATOM     27  O   UNK A   0       1.770   1.377  18.762  0.00  0.00    +0.000 OA
ATOM     28  H   UNK A   0       0.978   1.951  18.790  0.00  0.00    +0.000 HD
ENDBRANCH  24  27
ENDBRANCH  21  24
ENDBRANCH  19  20
BRANCH  19  29
ATOM     29  C   UNK A   1       4.142   6.349  18.340  0.00  0.00    +0.000 C 
BRANCH  29  30
ATOM     30  O   UNK A   1       2.887   6.440  17.661  0.00  0.00    +0.000 OA
ATOM     31  H   UNK A   1       2.266   5.864  18.145  0.00  0.00    +0.000 HD
ENDBRANCH  29  30
ENDBRANCH  19  29
ENDBRANCH   1  19
TORSDOF 21
ENDMDL
