MODEL 1
REMARK VINA RESULT:      -7.6      0.000      0.000
REMARK  Name = 
REMARK  13 active torsions:
REMARK  status: ('A' for Active; 'I' for Inactive)
REMARK    1  A    between atoms: C_1  and  O_2
REMARK    2  A    between atoms: O_2  and  C_3
REMARK    3  A    between atoms: C_8  and  O_9
REMARK    4  A    between atoms: O_9  and  C_10
REMARK    5  A    between atoms: C_10  and  C_11
REMARK    6  A    between atoms: C_11  and  N_12
REMARK    7  A    between atoms: N_12  and  C_13
REMARK    8  A    between atoms: C_13  and  C_14
REMARK    9  A    between atoms: C_14  and  O_15
REMARK   10  A    between atoms: C_14  and  C_16
REMARK   11  A    between atoms: C_16  and  O_17
REMARK   12  A    between atoms: O_17  and  C_18
REMARK   13  A    between atoms: C_18  and  C_19
REMARK                            x       y       z     vdW  Elec       q    Type
REMARK                         _______ _______ _______ _____ _____    ______ ____
ROOT
ATOM      1  C   UNL     1       6.682   5.965  16.669  0.00  0.00    +0.000 C 
ENDROOT
BRANCH   1   2
ATOM      2  O   UNL     1       6.667   4.565  16.953  0.00  0.00    +0.000 OA
ATOM      3  H   UNL     1       6.102   4.126  16.287  0.00  0.00    +0.000 HD
ENDBRANCH   1   2
BRANCH   1   4
ATOM      4  C   UNL     1       7.412   6.733  17.768  0.00  0.00    +0.000 C 
BRANCH   4   5
ATOM      5  N   UNL     1       7.640   8.130  17.383  0.00  0.00    +0.000 NA
ATOM      6  H   UNL     1       8.165   8.110  16.507  0.00  0.00    +0.000 HD
BRANCH   5   7
ATOM      7  C   UNL     1       8.426   8.830  18.416  0.00  0.00    +0.000 C 
BRANCH   7   8
ATOM      8  C   UNL     1       8.722  10.241  17.929  0.00  0.00    +0.000 C 
BRANCH   8   9
ATOM      9  O   UNL     1       9.171  11.152  18.913  0.00  0.00    +0.000 OA
BRANCH   9  15
ATOM     10  C   UNL     1       9.312  13.611  18.313  0.00  0.00    +0.000 A 
ATOM     11  C   UNL     1      10.126  14.569  17.728  0.00  0.00    +0.000 A 
ATOM     12  C   UNL     1      11.300  14.244  17.080  0.00  0.00    +0.000 A 
ATOM     13  C   UNL     1      11.728  12.910  17.085  0.00  0.00    +0.000 A 
ATOM     14  C   UNL     1      10.982  11.946  17.746  0.00  0.00    +0.000 A 
ATOM     15  C   UNL     1       9.765  12.260  18.382  0.00  0.00    +0.000 A 
BRANCH  10  17
ATOM     16  C   UNL     1       7.498  15.096  18.004  0.00  0.00    +0.000 C 
ATOM     17  O   UNL     1       8.055  13.994  18.740  0.00  0.00    +0.000 OA
ENDBRANCH  10  17
ENDBRANCH   9  15
ENDBRANCH   8   9
ENDBRANCH   7   8
ENDBRANCH   5   7
ENDBRANCH   4   5
ENDBRANCH   1   4
BRANCH   1  18
ATOM     18  C   UNL     1       5.269   6.550  16.550  0.00  0.00    +0.000 C 
BRANCH  18  19
ATOM     19  O   UNL     1       4.265   5.605  16.922  0.00  0.00    +0.000 OA
BRANCH  19  20
ATOM     20  C   UNL     1       3.661   5.961  18.168  0.00  0.00    +0.000 C 
BRANCH  20  21
ATOM     21  C   UNL     1       3.018   4.743  18.845  0.00  0.00    +0.000 C 
ATOM     22  C   UNL     1       4.074   3.694  19.283  0.00  0.00    +0.000 C 
ATOM     23  C   UNL     1       3.389   2.492  19.960  0.00  0.00    +0.000 C 
ATOM     24  C   UNL     1       2.618   2.982  21.196  0.00  0.00    +0.000 C 
ATOM     25  C   UNL     1       1.551   4.007  20.778  0.00  0.00    +0.000 C 
ATOM     26  C   UNL     1       0.579   3.351  19.784  0.00  0.00    +0.000 C 
ATOM     27  C   UNL     1       1.342   2.868  18.540  0.00  0.00    +0.000 C 
ATOM     28  C   UNL     1       2.410   1.847  18.964  0.00  0.00    +0.000 C 
ATOM     29  C   UNL     1       2.028   4.069  17.870  0.00  0.00    +0.000 C 
ATOM     30  C   UNL     1       2.236   5.205  20.099  0.00  0.00    +0.000 C 
ENDBRANCH  20  21
ENDBRANCH  19  20
ENDBRANCH  18  19
ENDBRANCH   1  18
TORSDOF 12
ENDMDL
MODEL 2
REMARK VINA RESULT:      -7.4      1.829      9.944
REMARK  Name = 
REMARK  13 active torsions:
REMARK  status: ('A' for Active; 'I' for Inactive)
REMARK    1  A    between atoms: C_1  and  O_2
REMARK    2  A    between atoms: O_2  and  C_3
REMARK    3  A    between atoms: C_8  and  O_9
REMARK    4  A    between atoms: O_9  and  C_10
REMARK    5  A    between atoms: C_10  and  C_11
REMARK    6  A    between atoms: C_11  and  N_12
REMARK    7  A    between atoms: N_12  and  C_13
REMARK    8  A    between atoms: C_13  and  C_14
REMARK    9  A    between atoms: C_14  and  O_15
REMARK   10  A    between atoms: C_14  and  C_16
REMARK   11  A    between atoms: C_16  and  O_17
REMARK   12  A    between atoms: O_17  and  C_18
REMARK   13  A    between atoms: C_18  and  C_19
REMARK                            x       y       z     vdW  Elec       q    Type
REMARK                         _______ _______ _______ _____ _____    ______ ____
ROOT
ATOM      1  C   UNL     1       7.471   6.586  18.412  0.00  0.00    +0.000 C 
ENDROOT
BRANCH   1   2
ATOM      2  O   UNL     1       8.440   6.350  19.434  0.00  0.00    +0.000 OA
ATOM      3  H   UNL     1       9.238   6.873  19.223  0.00  0.00    +0.000 HD
ENDBRANCH   1   2
BRANCH   1   4
ATOM      4  C   UNL     1       7.394   5.401  17.452  0.00  0.00    +0.000 C 
BRANCH   4   5
ATOM      5  N   UNL     1       7.139   5.842  16.077  0.00  0.00    +0.000 NA
ATOM      6  H   UNL     1       7.113   6.864  16.098  0.00  0.00    +0.000 HD
BRANCH   5   7
ATOM      7  C   UNL     1       5.842   5.325  15.600  0.00  0.00    +0.000 C 
BRANCH   7   8
ATOM      8  C   UNL     1       5.357   4.260  16.574  0.00  0.00    +0.000 C 
BRANCH   8   9
ATOM      9  O   UNL     1       3.967   4.001  16.562  0.00  0.00    +0.000 OA
BRANCH   9  15
ATOM     10  C   UNL     1       2.775   5.159  18.476  0.00  0.00    +0.000 A 
ATOM     11  C   UNL     1       2.255   4.960  19.746  0.00  0.00    +0.000 A 
ATOM     12  C   UNL     1       2.445   3.787  20.447  0.00  0.00    +0.000 A 
ATOM     13  C   UNL     1       3.114   2.727  19.821  0.00  0.00    +0.000 A 
ATOM     14  C   UNL     1       3.560   2.864  18.515  0.00  0.00    +0.000 A 
ATOM     15  C   UNL     1       3.402   4.069  17.802  0.00  0.00    +0.000 A 
BRANCH  10  17
ATOM     16  C   UNL     1       2.388   7.453  18.896  0.00  0.00    +0.000 C 
ATOM     17  O   UNL     1       2.730   6.432  17.943  0.00  0.00    +0.000 OA
ENDBRANCH  10  17
ENDBRANCH   9  15
ENDBRANCH   8   9
ENDBRANCH   7   8
ENDBRANCH   5   7
ENDBRANCH   4   5
ENDBRANCH   1   4
BRANCH   1  18
ATOM     18  C   UNL     1       7.791   7.837  17.584  0.00  0.00    +0.000 C 
BRANCH  18  19
ATOM     19  O   UNL     1       8.470   8.830  18.355  0.00  0.00    +0.000 OA
BRANCH  19  20
ATOM     20  C   UNL     1       8.444  10.099  17.696  0.00  0.00    +0.000 C 
BRANCH  20  21
ATOM     21  C   UNL     1       9.336  11.119  18.416  0.00  0.00    +0.000 C 
ATOM     22  C   UNL     1      10.738  11.232  17.762  0.00  0.00    +0.000 C 
ATOM     23  C   UNL     1      11.598  12.268  18.510  0.00  0.00    +0.000 C 
ATOM     24  C   UNL     1      10.902  13.637  18.455  0.00  0.00    +0.000 C 
ATOM     25  C   UNL     1       9.517  13.549  19.118  0.00  0.00    +0.000 C 
ATOM     26  C   UNL     1       9.684  13.109  20.581  0.00  0.00    +0.000 C 
ATOM     27  C   UNL     1      10.370  11.735  20.644  0.00  0.00    +0.000 C 
ATOM     28  C   UNL     1      11.751  11.827  19.975  0.00  0.00    +0.000 C 
ATOM     29  C   UNL     1       9.512  10.706  19.893  0.00  0.00    +0.000 C 
ATOM     30  C   UNL     1       8.661  12.513  18.372  0.00  0.00    +0.000 C 
ENDBRANCH  20  21
ENDBRANCH  19  20
ENDBRANCH  18  19
ENDBRANCH   1  18
TORSDOF 12
ENDMDL
MODEL 3
REMARK VINA RESULT:      -7.3      6.171      8.944
REMARK  Name = 
REMARK  13 active torsions:
REMARK  status: ('A' for Active; 'I' for Inactive)
REMARK    1  A    between atoms: C_1  and  O_2
REMARK    2  A    between atoms: O_2  and  C_3
REMARK    3  A    between atoms: C_8  and  O_9
REMARK    4  A    between atoms: O_9  and  C_10
REMARK    5  A    between atoms: C_10  and  C_11
REMARK    6  A    between atoms: C_11  and  N_12
REMARK    7  A    between atoms: N_12  and  C_13
REMARK    8  A    between atoms: C_13  and  C_14
REMARK    9  A    between atoms: C_14  and  O_15
REMARK   10  A    between atoms: C_14  and  C_16
REMARK   11  A    between atoms: C_16  and  O_17
REMARK   12  A    between atoms: O_17  and  C_18
REMARK   13  A    between atoms: C_18  and  C_19
REMARK                            x       y       z     vdW  Elec       q    Type
REMARK                         _______ _______ _______ _____ _____    ______ ____
ROOT
ATOM      1  C   UNL     1       1.396   9.916  18.323  0.00  0.00    +0.000 C 
ENDROOT
BRANCH   1   2
ATOM      2  O   UNL     1       0.204   9.849  17.540  0.00  0.00    +0.000 OA
ATOM      3  H   UNL     1      -0.473   9.369  18.056  0.00  0.00    +0.000 HD
ENDBRANCH   1   2
BRANCH   1   4
ATOM      4  C   UNL     1       2.083  11.269  18.152  0.00  0.00    +0.000 C 
BRANCH   4   5
ATOM      5  N   UNL     1       1.111  12.367  18.160  0.00  0.00    +0.000 NA
ATOM      6  H   UNL     1       1.635  13.224  17.968  0.00  0.00    +0.000 HD
BRANCH   5   7
ATOM      7  C   UNL     1       0.460  12.471  19.479  0.00  0.00    +0.000 C 
BRANCH   7   8
ATOM      8  C   UNL     1      -1.042  12.610  19.270  0.00  0.00    +0.000 C 
BRANCH   8   9
ATOM      9  O   UNL     1      -1.778  11.403  19.265  0.00  0.00    +0.000 OA
BRANCH   9  15
ATOM     10  C   UNL     1      -3.310  11.136  17.262  0.00  0.00    +0.000 A 
ATOM     11  C   UNL     1      -4.611  11.329  16.824  0.00  0.00    +0.000 A 
ATOM     12  C   UNL     1      -5.554  11.997  17.578  0.00  0.00    +0.000 A 
ATOM     13  C   UNL     1      -5.210  12.421  18.868  0.00  0.00    +0.000 A 
ATOM     14  C   UNL     1      -3.945  12.156  19.370  0.00  0.00    +0.000 A 
ATOM     15  C   UNL     1      -2.963  11.505  18.597  0.00  0.00    +0.000 A 
BRANCH  10  17
ATOM     16  C   UNL     1      -2.896  10.472  15.032  0.00  0.00    +0.000 C 
ATOM     17  O   UNL     1      -2.379  10.661  16.360  0.00  0.00    +0.000 OA
ENDBRANCH  10  17
ENDBRANCH   9  15
ENDBRANCH   8   9
ENDBRANCH   7   8
ENDBRANCH   5   7
ENDBRANCH   4   5
ENDBRANCH   1   4
BRANCH   1  18
ATOM     18  C   UNL     1       2.407   8.828  17.940  0.00  0.00    +0.000 C 
BRANCH  18  19
ATOM     19  O   UNL     1       1.908   7.517  18.208  0.00  0.00    +0.000 OA
BRANCH  19  20
ATOM     20  C   UNL     1       2.548   6.949  19.355  0.00  0.00    +0.000 C 
BRANCH  20  21
ATOM     21  C   UNL     1       2.432   5.418  19.357  0.00  0.00    +0.000 C 
ATOM     22  C   UNL     1       1.893   4.872  18.009  0.00  0.00    +0.000 C 
ATOM     23  C   UNL     1       1.796   3.335  18.052  0.00  0.00    +0.000 C 
ATOM     24  C   UNL     1       3.192   2.749  18.315  0.00  0.00    +0.000 C 
ATOM     25  C   UNL     1       3.735   3.263  19.658  0.00  0.00    +0.000 C 
ATOM     26  C   UNL     1       2.776   2.847  20.785  0.00  0.00    +0.000 C 
ATOM     27  C   UNL     1       1.380   3.438  20.535  0.00  0.00    +0.000 C 
ATOM     28  C   UNL     1       0.844   2.925  19.189  0.00  0.00    +0.000 C 
ATOM     29  C   UNL     1       1.480   4.971  20.487  0.00  0.00    +0.000 C 
ATOM     30  C   UNL     1       3.828   4.798  19.615  0.00  0.00    +0.000 C 
ENDBRANCH  20  21
ENDBRANCH  19  20
ENDBRANCH  18  19
ENDBRANCH   1  18
TORSDOF 12
ENDMDL
MODEL 4
REMARK VINA RESULT:      -7.2      5.077      7.580
REMARK  Name = 
REMARK  13 active torsions:
REMARK  status: ('A' for Active; 'I' for Inactive)
REMARK    1  A    between atoms: C_1  and  O_2
REMARK    2  A    between atoms: O_2  and  C_3
REMARK    3  A    between atoms: C_8  and  O_9
REMARK    4  A    between atoms: O_9  and  C_10
REMARK    5  A    between atoms: C_10  and  C_11
REMARK    6  A    between atoms: C_11  and  N_12
REMARK    7  A    between atoms: N_12  and  C_13
REMARK    8  A    between atoms: C_13  and  C_14
REMARK    9  A    between atoms: C_14  and  O_15
REMARK   10  A    between atoms: C_14  and  C_16
REMARK   11  A    between atoms: C_16  and  O_17
REMARK   12  A    between atoms: O_17  and  C_18
REMARK   13  A    between atoms: C_18  and  C_19
REMARK                            x       y       z     vdW  Elec       q    Type
REMARK                         _______ _______ _______ _____ _____    ______ ____
ROOT
ATOM      1  C   UNL     1       1.964   1.905  19.172  0.00  0.00    +0.000 C 
ENDROOT
BRANCH   1   2
ATOM      2  O   UNL     1       2.064   1.644  17.772  0.00  0.00    +0.000 OA
ATOM      3  H   UNL     1       1.270   1.144  17.498  0.00  0.00    +0.000 HD
ENDBRANCH   1   2
BRANCH   1   4
ATOM      4  C   UNL     1       1.118   3.149  19.433  0.00  0.00    +0.000 C 
BRANCH   4   5
ATOM      5  N   UNL     1       0.978   3.409  20.870  0.00  0.00    +0.000 NA
ATOM      6  H   UNL     1      -0.003   3.649  21.030  0.00  0.00    +0.000 HD
BRANCH   5   7
ATOM      7  C   UNL     1       1.837   4.537  21.277  0.00  0.00    +0.000 C 
BRANCH   7   8
ATOM      8  C   UNL     1       1.528   5.730  20.382  0.00  0.00    +0.000 C 
BRANCH   8   9
ATOM      9  O   UNL     1       1.857   6.999  20.912  0.00  0.00    +0.000 OA
BRANCH   9  15
ATOM     10  C   UNL     1       0.716   9.128  20.143  0.00  0.00    +0.000 A 
ATOM     11  C   UNL     1       0.664  10.052  19.111  0.00  0.00    +0.000 A 
ATOM     12  C   UNL     1       1.336   9.869  17.921  0.00  0.00    +0.000 A 
ATOM     13  C   UNL     1       2.169   8.751  17.781  0.00  0.00    +0.000 A 
ATOM     14  C   UNL     1       2.316   7.860  18.833  0.00  0.00    +0.000 A 
ATOM     15  C   UNL     1       1.609   8.020  20.041  0.00  0.00    +0.000 A 
BRANCH  10  17
ATOM     16  C   UNL     1       0.190  10.349  22.098  0.00  0.00    +0.000 C 
ATOM     17  O   UNL     1      -0.158   9.280  21.202  0.00  0.00    +0.000 OA
ENDBRANCH  10  17
ENDBRANCH   9  15
ENDBRANCH   8   9
ENDBRANCH   7   8
ENDBRANCH   5   7
ENDBRANCH   4   5
ENDBRANCH   1   4
BRANCH   1  18
ATOM     18  C   UNL     1       3.336   2.129  19.822  0.00  0.00    +0.000 C 
BRANCH  18  19
ATOM     19  O   UNL     1       4.302   2.602  18.882  0.00  0.00    +0.000 OA
BRANCH  19  20
ATOM     20  C   UNL     1       4.851   3.856  19.297  0.00  0.00    +0.000 C 
BRANCH  20  21
ATOM     21  C   UNL     1       5.414   4.640  18.104  0.00  0.00    +0.000 C 
ATOM     22  C   UNL     1       5.149   6.164  18.230  0.00  0.00    +0.000 C 
ATOM     23  C   UNL     1       5.733   6.913  17.017  0.00  0.00    +0.000 C 
ATOM     24  C   UNL     1       7.249   6.665  16.953  0.00  0.00    +0.000 C 
ATOM     25  C   UNL     1       7.530   5.161  16.807  0.00  0.00    +0.000 C 
ATOM     26  C   UNL     1       6.864   4.643  15.522  0.00  0.00    +0.000 C 
ATOM     27  C   UNL     1       5.346   4.878  15.584  0.00  0.00    +0.000 C 
ATOM     28  C   UNL     1       5.071   6.382  15.735  0.00  0.00    +0.000 C 
ATOM     29  C   UNL     1       4.768   4.133  16.797  0.00  0.00    +0.000 C 
ATOM     30  C   UNL     1       6.944   4.414  18.016  0.00  0.00    +0.000 C 
ENDBRANCH  20  21
ENDBRANCH  19  20
ENDBRANCH  18  19
ENDBRANCH   1  18
TORSDOF 12
ENDMDL
MODEL 5
REMARK VINA RESULT:      -7.2      1.875     10.373
REMARK  Name = 
REMARK  13 active torsions:
REMARK  status: ('A' for Active; 'I' for Inactive)
REMARK    1  A    between atoms: C_1  and  O_2
REMARK    2  A    between atoms: O_2  and  C_3
REMARK    3  A    between atoms: C_8  and  O_9
REMARK    4  A    between atoms: O_9  and  C_10
REMARK    5  A    between atoms: C_10  and  C_11
REMARK    6  A    between atoms: C_11  and  N_12
REMARK    7  A    between atoms: N_12  and  C_13
REMARK    8  A    between atoms: C_13  and  C_14
REMARK    9  A    between atoms: C_14  and  O_15
REMARK   10  A    between atoms: C_14  and  C_16
REMARK   11  A    between atoms: C_16  and  O_17
REMARK   12  A    between atoms: O_17  and  C_18
REMARK   13  A    between atoms: C_18  and  C_19
REMARK                            x       y       z     vdW  Elec       q    Type
REMARK                         _______ _______ _______ _____ _____    ______ ____
ROOT
ATOM      1  C   UNL     1       7.713   6.959  17.585  0.00  0.00    +0.000 C 
ENDROOT
BRANCH   1   2
ATOM      2  O   UNL     1       7.694   6.569  16.211  0.00  0.00    +0.000 OA
ATOM      3  H   UNL     1       8.572   6.203  15.987  0.00  0.00    +0.000 HD
ENDBRANCH   1   2
BRANCH   1   4
ATOM      4  C   UNL     1       6.722   6.130  18.398  0.00  0.00    +0.000 C 
BRANCH   4   5
ATOM      5  N   UNL     1       5.592   5.686  17.574  0.00  0.00    +0.000 NA
ATOM      6  H   UNL     1       4.750   5.817  18.138  0.00  0.00    +0.000 HD
BRANCH   5   7
ATOM      7  C   UNL     1       5.737   4.261  17.223  0.00  0.00    +0.000 C 
BRANCH   7   8
ATOM      8  C   UNL     1       4.350   3.670  17.010  0.00  0.00    +0.000 C 
BRANCH   8   9
ATOM      9  O   UNL     1       3.269   4.571  17.145  0.00  0.00    +0.000 OA
BRANCH   9  15
ATOM     10  C   UNL     1       2.302   5.018  19.446  0.00  0.00    +0.000 A 
ATOM     11  C   UNL     1       1.413   4.532  20.393  0.00  0.00    +0.000 A 
ATOM     12  C   UNL     1       0.799   3.303  20.267  0.00  0.00    +0.000 A 
ATOM     13  C   UNL     1       1.014   2.556  19.102  0.00  0.00    +0.000 A 
ATOM     14  C   UNL     1       1.822   3.061  18.094  0.00  0.00    +0.000 A 
ATOM     15  C   UNL     1       2.481   4.299  18.226  0.00  0.00    +0.000 A 
BRANCH  10  17
ATOM     16  C   UNL     1       2.303   7.375  19.627  0.00  0.00    +0.000 C 
ATOM     17  O   UNL     1       3.036   6.145  19.756  0.00  0.00    +0.000 OA
ENDBRANCH  10  17
ENDBRANCH   9  15
ENDBRANCH   8   9
ENDBRANCH   7   8
ENDBRANCH   5   7
ENDBRANCH   4   5
ENDBRANCH   1   4
BRANCH   1  18
ATOM     18  C   UNL     1       7.350   8.438  17.775  0.00  0.00    +0.000 C 
BRANCH  18  19
ATOM     19  O   UNL     1       8.385   9.160  18.443  0.00  0.00    +0.000 OA
BRANCH  19  20
ATOM     20  C   UNL     1       8.932  10.175  17.596  0.00  0.00    +0.000 C 
BRANCH  20  21
ATOM     21  C   UNL     1       9.636  11.266  18.415  0.00  0.00    +0.000 C 
ATOM     22  C   UNL     1       8.869  12.614  18.371  0.00  0.00    +0.000 C 
ATOM     23  C   UNL     1       9.605  13.678  19.207  0.00  0.00    +0.000 C 
ATOM     24  C   UNL     1       9.701  13.197  20.664  0.00  0.00    +0.000 C 
ATOM     25  C   UNL     1      10.477  11.871  20.730  0.00  0.00    +0.000 C 
ATOM     26  C   UNL     1      11.888  12.080  20.157  0.00  0.00    +0.000 C 
ATOM     27  C   UNL     1      11.800  12.551  18.697  0.00  0.00    +0.000 C 
ATOM     28  C   UNL     1      11.019  13.874  18.636  0.00  0.00    +0.000 C 
ATOM     29  C   UNL     1      11.061  11.490  17.867  0.00  0.00    +0.000 C 
ATOM     30  C   UNL     1       9.743  10.811  19.892  0.00  0.00    +0.000 C 
ENDBRANCH  20  21
ENDBRANCH  19  20
ENDBRANCH  18  19
ENDBRANCH   1  18
TORSDOF 12
ENDMDL
MODEL 6
REMARK VINA RESULT:      -7.2      6.931      9.925
REMARK  Name = 
REMARK  13 active torsions:
REMARK  status: ('A' for Active; 'I' for Inactive)
REMARK    1  A    between atoms: C_1  and  O_2
REMARK    2  A    between atoms: O_2  and  C_3
REMARK    3  A    between atoms: C_8  and  O_9
REMARK    4  A    between atoms: O_9  and  C_10
REMARK    5  A    between atoms: C_10  and  C_11
REMARK    6  A    between atoms: C_11  and  N_12
REMARK    7  A    between atoms: N_12  and  C_13
REMARK    8  A    between atoms: C_13  and  C_14
REMARK    9  A    between atoms: C_14  and  O_15
REMARK   10  A    between atoms: C_14  and  C_16
REMARK   11  A    between atoms: C_16  and  O_17
REMARK   12  A    between atoms: O_17  and  C_18
REMARK   13  A    between atoms: C_18  and  C_19
REMARK                            x       y       z     vdW  Elec       q    Type
REMARK                         _______ _______ _______ _____ _____    ______ ____
ROOT
ATOM      1  C   UNL     1       1.208   9.362  17.933  0.00  0.00    +0.000 C 
ENDROOT
BRANCH   1   2
ATOM      2  O   UNL     1       2.120  10.286  17.339  0.00  0.00    +0.000 OA
ATOM      3  H   UNL     1       2.640   9.809  16.663  0.00  0.00    +0.000 HD
ENDBRANCH   1   2
BRANCH   1   4
ATOM      4  C   UNL     1       0.168  10.093  18.779  0.00  0.00    +0.000 C 
BRANCH   4   5
ATOM      5  N   UNL     1      -0.686  10.953  17.953  0.00  0.00    +0.000 NA
ATOM      6  H   UNL     1      -1.036  11.692  18.566  0.00  0.00    +0.000 HD
BRANCH   5   7
ATOM      7  C   UNL     1      -1.819  10.184  17.406  0.00  0.00    +0.000 C 
BRANCH   7   8
ATOM      8  C   UNL     1      -3.063  11.060  17.442  0.00  0.00    +0.000 C 
BRANCH   8   9
ATOM      9  O   UNL     1      -3.253  11.812  18.624  0.00  0.00    +0.000 OA
BRANCH   9  15
ATOM     10  C   UNL     1      -5.164  12.344  20.204  0.00  0.00    +0.000 A 
ATOM     11  C   UNL     1      -6.546  12.393  20.301  0.00  0.00    +0.000 A 
ATOM     12  C   UNL     1      -7.374  11.918  19.305  0.00  0.00    +0.000 A 
ATOM     13  C   UNL     1      -6.801  11.447  18.117  0.00  0.00    +0.000 A 
ATOM     14  C   UNL     1      -5.424  11.476  17.953  0.00  0.00    +0.000 A 
ATOM     15  C   UNL     1      -4.567  11.927  18.976  0.00  0.00    +0.000 A 
BRANCH  10  17
ATOM     16  C   UNL     1      -5.186  13.182  22.414  0.00  0.00    +0.000 C 
ATOM     17  O   UNL     1      -4.419  12.631  21.330  0.00  0.00    +0.000 OA
ENDBRANCH  10  17
ENDBRANCH   9  15
ENDBRANCH   8   9
ENDBRANCH   7   8
ENDBRANCH   5   7
ENDBRANCH   4   5
ENDBRANCH   1   4
BRANCH   1  18
ATOM     18  C   UNL     1       1.916   8.345  18.838  0.00  0.00    +0.000 C 
BRANCH  18  19
ATOM     19  O   UNL     1       2.185   7.119  18.157  0.00  0.00    +0.000 OA
BRANCH  19  20
ATOM     20  C   UNL     1       3.214   6.379  18.819  0.00  0.00    +0.000 C 
BRANCH  20  21
ATOM     21  C   UNL     1       2.747   4.958  19.163  0.00  0.00    +0.000 C 
ATOM     22  C   UNL     1       1.989   4.292  17.984  0.00  0.00    +0.000 C 
ATOM     23  C   UNL     1       1.542   2.869  18.368  0.00  0.00    +0.000 C 
ATOM     24  C   UNL     1       2.780   2.028  18.715  0.00  0.00    +0.000 C 
ATOM     25  C   UNL     1       3.533   2.662  19.896  0.00  0.00    +0.000 C 
ATOM     26  C   UNL     1       2.597   2.735  21.113  0.00  0.00    +0.000 C 
ATOM     27  C   UNL     1       1.361   3.584  20.777  0.00  0.00    +0.000 C 
ATOM     28  C   UNL     1       0.615   2.949  19.593  0.00  0.00    +0.000 C 
ATOM     29  C   UNL     1       1.811   5.001  20.390  0.00  0.00    +0.000 C 
ATOM     30  C   UNL     1       3.976   4.083  19.512  0.00  0.00    +0.000 C 
ENDBRANCH  20  21
ENDBRANCH  19  20
ENDBRANCH  18  19
ENDBRANCH   1  18
TORSDOF 12
ENDMDL
MODEL 7
REMARK VINA RESULT:      -7.2      1.637     10.708
REMARK  Name = 
REMARK  13 active torsions:
REMARK  status: ('A' for Active; 'I' for Inactive)
REMARK    1  A    between atoms: C_1  and  O_2
REMARK    2  A    between atoms: O_2  and  C_3
REMARK    3  A    between atoms: C_8  and  O_9
REMARK    4  A    between atoms: O_9  and  C_10
REMARK    5  A    between atoms: C_10  and  C_11
REMARK    6  A    between atoms: C_11  and  N_12
REMARK    7  A    between atoms: N_12  and  C_13
REMARK    8  A    between atoms: C_13  and  C_14
REMARK    9  A    between atoms: C_14  and  O_15
REMARK   10  A    between atoms: C_14  and  C_16
REMARK   11  A    between atoms: C_16  and  O_17
REMARK   12  A    between atoms: O_17  and  C_18
REMARK   13  A    between atoms: C_18  and  C_19
REMARK                            x       y       z     vdW  Elec       q    Type
REMARK                         _______ _______ _______ _____ _____    ______ ____
ROOT
ATOM      1  C   UNL     1       7.589   7.419  18.117  0.00  0.00    +0.000 C 
ENDROOT
BRANCH   1   2
ATOM      2  O   UNL     1       8.379   6.756  19.104  0.00  0.00    +0.000 OA
ATOM      3  H   UNL     1       9.274   6.618  18.736  0.00  0.00    +0.000 HD
ENDBRANCH   1   2
BRANCH   1   4
ATOM      4  C   UNL     1       7.238   6.469  16.974  0.00  0.00    +0.000 C 
BRANCH   4   5
ATOM      5  N   UNL     1       6.021   6.897  16.278  0.00  0.00    +0.000 NA
ATOM      6  H   UNL     1       5.697   7.744  16.749  0.00  0.00    +0.000 HD
BRANCH   5   7
ATOM      7  C   UNL     1       4.982   5.853  16.364  0.00  0.00    +0.000 C 
BRANCH   7   8
ATOM      8  C   UNL     1       3.984   6.250  17.443  0.00  0.00    +0.000 C 
BRANCH   8   9
ATOM      9  O   UNL     1       4.126   5.593  18.687  0.00  0.00    +0.000 OA
BRANCH   9  15
ATOM     10  C   UNL     1       3.608   3.204  19.361  0.00  0.00    +0.000 A 
ATOM     11  C   UNL     1       2.611   2.242  19.368  0.00  0.00    +0.000 A 
ATOM     12  C   UNL     1       1.405   2.423  18.723  0.00  0.00    +0.000 A 
ATOM     13  C   UNL     1       1.144   3.656  18.111  0.00  0.00    +0.000 A 
ATOM     14  C   UNL     1       2.086   4.672  18.172  0.00  0.00    +0.000 A 
ATOM     15  C   UNL     1       3.334   4.487  18.798  0.00  0.00    +0.000 A 
BRANCH  10  17
ATOM     16  C   UNL     1       4.875   1.633  20.591  0.00  0.00    +0.000 C 
ATOM     17  O   UNL     1       4.857   2.855  19.835  0.00  0.00    +0.000 OA
ENDBRANCH  10  17
ENDBRANCH   9  15
ENDBRANCH   8   9
ENDBRANCH   7   8
ENDBRANCH   5   7
ENDBRANCH   4   5
ENDBRANCH   1   4
BRANCH   1  18
ATOM     18  C   UNL     1       8.310   8.630  17.512  0.00  0.00    +0.000 C 
BRANCH  18  19
ATOM     19  O   UNL     1       8.148   9.803  18.310  0.00  0.00    +0.000 OA
BRANCH  19  20
ATOM     20  C   UNL     1       9.259   9.980  19.194  0.00  0.00    +0.000 C 
BRANCH  20  21
ATOM     21  C   UNL     1       9.940  11.337  18.969  0.00  0.00    +0.000 C 
ATOM     22  C   UNL     1      11.231  11.209  18.119  0.00  0.00    +0.000 C 
ATOM     23  C   UNL     1      11.879  12.591  17.915  0.00  0.00    +0.000 C 
ATOM     24  C   UNL     1      10.885  13.512  17.190  0.00  0.00    +0.000 C 
ATOM     25  C   UNL     1       9.605  13.668  18.028  0.00  0.00    +0.000 C 
ATOM     26  C   UNL     1       9.967  14.267  19.397  0.00  0.00    +0.000 C 
ATOM     27  C   UNL     1      10.953  13.346  20.132  0.00  0.00    +0.000 C 
ATOM     28  C   UNL     1      12.227  13.189  19.288  0.00  0.00    +0.000 C 
ATOM     29  C   UNL     1      10.305  11.967  20.331  0.00  0.00    +0.000 C 
ATOM     30  C   UNL     1       8.961  12.287  18.235  0.00  0.00    +0.000 C 
ENDBRANCH  20  21
ENDBRANCH  19  20
ENDBRANCH  18  19
ENDBRANCH   1  18
TORSDOF 12
ENDMDL
MODEL 8
REMARK VINA RESULT:      -7.1      4.672      6.292
REMARK  Name = 
REMARK  13 active torsions:
REMARK  status: ('A' for Active; 'I' for Inactive)
REMARK    1  A    between atoms: C_1  and  O_2
REMARK    2  A    between atoms: O_2  and  C_3
REMARK    3  A    between atoms: C_8  and  O_9
REMARK    4  A    between atoms: O_9  and  C_10
REMARK    5  A    between atoms: C_10  and  C_11
REMARK    6  A    between atoms: C_11  and  N_12
REMARK    7  A    between atoms: N_12  and  C_13
REMARK    8  A    between atoms: C_13  and  C_14
REMARK    9  A    between atoms: C_14  and  O_15
REMARK   10  A    between atoms: C_14  and  C_16
REMARK   11  A    between atoms: C_16  and  O_17
REMARK   12  A    between atoms: O_17  and  C_18
REMARK   13  A    between atoms: C_18  and  C_19
REMARK                            x       y       z     vdW  Elec       q    Type
REMARK                         _______ _______ _______ _____ _____    ______ ____
ROOT
ATOM      1  C   UNL     1       6.559   5.793  16.486  0.00  0.00    +0.000 C 
ENDROOT
BRANCH   1   2
ATOM      2  O   UNL     1       7.740   6.216  15.804  0.00  0.00    +0.000 OA
ATOM      3  H   UNL     1       8.126   6.965  16.300  0.00  0.00    +0.000 HD
ENDBRANCH   1   2
BRANCH   1   4
ATOM      4  C   UNL     1       5.875   6.973  17.172  0.00  0.00    +0.000 C 
BRANCH   4   5
ATOM      5  N   UNL     1       4.429   6.971  16.924  0.00  0.00    +0.000 NA
ATOM      6  H   UNL     1       4.256   7.665  16.193  0.00  0.00    +0.000 HD
BRANCH   5   7
ATOM      7  C   UNL     1       3.695   7.346  18.147  0.00  0.00    +0.000 C 
BRANCH   7   8
ATOM      8  C   UNL     1       2.338   7.909  17.745  0.00  0.00    +0.000 C 
BRANCH   8   9
ATOM      9  O   UNL     1       2.106   9.260  18.089  0.00  0.00    +0.000 OA
BRANCH   9  15
ATOM     10  C   UNL     1       0.293  10.405  19.442  0.00  0.00    +0.000 A 
ATOM     11  C   UNL     1      -0.457  10.309  20.604  0.00  0.00    +0.000 A 
ATOM     12  C   UNL     1      -0.201   9.358  21.571  0.00  0.00    +0.000 A 
ATOM     13  C   UNL     1       0.795   8.403  21.332  0.00  0.00    +0.000 A 
ATOM     14  C   UNL     1       1.495   8.416  20.135  0.00  0.00    +0.000 A 
ATOM     15  C   UNL     1       1.266   9.402  19.155  0.00  0.00    +0.000 A 
BRANCH  10  17
ATOM     16  C   UNL     1      -0.799  12.485  19.178  0.00  0.00    +0.000 C 
ATOM     17  O   UNL     1       0.116  11.516  18.640  0.00  0.00    +0.000 OA
ENDBRANCH  10  17
ENDBRANCH   9  15
ENDBRANCH   8   9
ENDBRANCH   7   8
ENDBRANCH   5   7
ENDBRANCH   4   5
ENDBRANCH   1   4
BRANCH   1  18
ATOM     18  C   UNL     1       6.853   4.736  17.559  0.00  0.00    +0.000 C 
BRANCH  18  19
ATOM     19  O   UNL     1       5.723   4.498  18.399  0.00  0.00    +0.000 OA
BRANCH  19  20
ATOM     20  C   UNL     1       4.803   3.597  17.778  0.00  0.00    +0.000 C 
BRANCH  20  21
ATOM     21  C   UNL     1       3.510   3.470  18.596  0.00  0.00    +0.000 C 
ATOM     22  C   UNL     1       3.576   4.274  19.921  0.00  0.00    +0.000 C 
ATOM     23  C   UNL     1       2.260   4.123  20.707  0.00  0.00    +0.000 C 
ATOM     24  C   UNL     1       1.098   4.651  19.851  0.00  0.00    +0.000 C 
ATOM     25  C   UNL     1       1.003   3.852  18.541  0.00  0.00    +0.000 C 
ATOM     26  C   UNL     1       0.775   2.367  18.869  0.00  0.00    +0.000 C 
ATOM     27  C   UNL     1       1.939   1.829  19.716  0.00  0.00    +0.000 C 
ATOM     28  C   UNL     1       2.031   2.635  21.022  0.00  0.00    +0.000 C 
ATOM     29  C   UNL     1       3.250   1.985  18.931  0.00  0.00    +0.000 C 
ATOM     30  C   UNL     1       2.319   4.000  17.759  0.00  0.00    +0.000 C 
ENDBRANCH  20  21
ENDBRANCH  19  20
ENDBRANCH  18  19
ENDBRANCH   1  18
TORSDOF 12
ENDMDL
MODEL 9
REMARK VINA RESULT:      -7.0      1.551      2.308
REMARK  Name = 
REMARK  13 active torsions:
REMARK  status: ('A' for Active; 'I' for Inactive)
REMARK    1  A    between atoms: C_1  and  O_2
REMARK    2  A    between atoms: O_2  and  C_3
REMARK    3  A    between atoms: C_8  and  O_9
REMARK    4  A    between atoms: O_9  and  C_10
REMARK    5  A    between atoms: C_10  and  C_11
REMARK    6  A    between atoms: C_11  and  N_12
REMARK    7  A    between atoms: N_12  and  C_13
REMARK    8  A    between atoms: C_13  and  C_14
REMARK    9  A    between atoms: C_14  and  O_15
REMARK   10  A    between atoms: C_14  and  C_16
REMARK   11  A    between atoms: C_16  and  O_17
REMARK   12  A    between atoms: O_17  and  C_18
REMARK   13  A    between atoms: C_18  and  C_19
REMARK                            x       y       z     vdW  Elec       q    Type
REMARK                         _______ _______ _______ _____ _____    ______ ____
ROOT
ATOM      1  C   UNL     1       7.229   5.593  17.865  0.00  0.00    +0.000 C 
ENDROOT
BRANCH   1   2
ATOM      2  O   UNL     1       8.117   4.476  17.814  0.00  0.00    +0.000 OA
ATOM      3  H   UNL     1       8.811   4.609  18.490  0.00  0.00    +0.000 HD
ENDBRANCH   1   2
BRANCH   1   4
ATOM      4  C   UNL     1       7.998   6.888  18.117  0.00  0.00    +0.000 C 
BRANCH   4   5
ATOM      5  N   UNL     1       7.290   8.047  17.564  0.00  0.00    +0.000 NA
ATOM      6  H   UNL     1       7.019   7.797  16.611  0.00  0.00    +0.000 HD
BRANCH   5   7
ATOM      7  C   UNL     1       8.174   9.227  17.535  0.00  0.00    +0.000 C 
BRANCH   7   8
ATOM      8  C   UNL     1       8.765   9.426  18.923  0.00  0.00    +0.000 C 
BRANCH   8   9
ATOM      9  O   UNL     1       9.842  10.339  19.010  0.00  0.00    +0.000 OA
BRANCH   9  15
ATOM     10  C   UNL     1       9.062  12.751  19.056  0.00  0.00    +0.000 A 
ATOM     11  C   UNL     1       8.750  13.803  19.903  0.00  0.00    +0.000 A 
ATOM     12  C   UNL     1       8.979  13.751  21.262  0.00  0.00    +0.000 A 
ATOM     13  C   UNL     1       9.466  12.561  21.820  0.00  0.00    +0.000 A 
ATOM     14  C   UNL     1       9.695  11.460  21.009  0.00  0.00    +0.000 A 
ATOM     15  C   UNL     1       9.497  11.512  19.616  0.00  0.00    +0.000 A 
BRANCH  10  17
ATOM     16  C   UNL     1       7.696  12.825  17.128  0.00  0.00    +0.000 C 
ATOM     17  O   UNL     1       9.009  12.970  17.694  0.00  0.00    +0.000 OA
ENDBRANCH  10  17
ENDBRANCH   9  15
ENDBRANCH   8   9
ENDBRANCH   7   8
ENDBRANCH   5   7
ENDBRANCH   4   5
ENDBRANCH   1   4
BRANCH   1  18
ATOM     18  C   UNL     1       6.178   5.451  18.974  0.00  0.00    +0.000 C 
BRANCH  18  19
ATOM     19  O   UNL     1       4.957   6.115  18.642  0.00  0.00    +0.000 OA
BRANCH  19  20
ATOM     20  C   UNL     1       4.121   5.280  17.837  0.00  0.00    +0.000 C 
BRANCH  20  21
ATOM     21  C   UNL     1       3.211   4.400  18.705  0.00  0.00    +0.000 C 
ATOM     22  C   UNL     1       2.950   5.027  20.100  0.00  0.00    +0.000 C 
ATOM     23  C   UNL     1       2.031   4.116  20.936  0.00  0.00    +0.000 C 
ATOM     24  C   UNL     1       0.693   3.939  20.201  0.00  0.00    +0.000 C 
ATOM     25  C   UNL     1       0.929   3.299  18.824  0.00  0.00    +0.000 C 
ATOM     26  C   UNL     1       1.605   1.931  19.011  0.00  0.00    +0.000 C 
ATOM     27  C   UNL     1       2.949   2.101  19.735  0.00  0.00    +0.000 C 
ATOM     28  C   UNL     1       2.708   2.746  21.109  0.00  0.00    +0.000 C 
ATOM     29  C   UNL     1       3.862   3.014  18.901  0.00  0.00    +0.000 C 
ATOM     30  C   UNL     1       1.850   4.207  17.992  0.00  0.00    +0.000 C 
ENDBRANCH  20  21
ENDBRANCH  19  20
ENDBRANCH  18  19
ENDBRANCH   1  18
TORSDOF 12
ENDMDL
