MODEL 1
REMARK VINA RESULT:      -7.1      0.000      0.000
REMARK  Name = 
REMARK  6 active torsions:
REMARK  status: ('A' for Active; 'I' for Inactive)
REMARK    1  A    between atoms: C_1  and  O_2
REMARK    2  A    between atoms: O_2  and  C_3
REMARK    3  A    between atoms: C_3  and  N_4
REMARK    4  A    between atoms: C_5  and  S_6
REMARK    5  A    between atoms: S_6  and  C_7
REMARK    6  A    between atoms: C_13  and  C_14
REMARK                            x       y       z     vdW  Elec       q    Type
REMARK                         _______ _______ _______ _____ _____    ______ ____
ROOT
ATOM      1  N   UNL     1       3.093   4.493  19.640  0.00  0.00    +0.000 N 
ATOM      2  C   UNL     1       3.205   5.480  18.652  0.00  0.00    +0.000 A 
ATOM      3  C   UNL     1       2.670   6.706  18.852  0.00  0.00    +0.000 A 
ATOM      4  C   UNL     1       2.791   7.944  18.006  0.00  0.00    +0.000 C 
ATOM      5  C   UNL     1       1.935   6.949  20.121  0.00  0.00    +0.000 A 
ATOM      6  O   UNL     1       1.630   8.074  20.497  0.00  0.00    +0.000 OA
ATOM      7  N   UNL     1       1.630   5.853  20.856  0.00  0.00    +0.000 N 
ATOM      8  C   UNL     1       2.328   4.690  20.780  0.00  0.00    +0.000 A 
ATOM      9  O   UNL     1       2.242   3.896  21.724  0.00  0.00    +0.000 OA
ATOM     10  H   UNL     1       1.186   6.034  21.744  0.00  0.00    +0.000 HD
ENDROOT
BRANCH   1  11
ATOM     11  C   UNL     1       3.894   3.279  19.643  0.00  0.00    +0.000 C 
BRANCH  11  13
ATOM     12  C   UNL     1       2.629   2.067  18.079  0.00  0.00    +0.000 C 
ATOM     13  O   UNL     1       3.042   2.158  19.435  0.00  0.00    +0.000 OA
ENDBRANCH  11  13
ENDBRANCH   1  11
BRANCH   2  14
ATOM     14  S   UNL     1       4.291   5.248  17.299  0.00  0.00    +0.000 S 
BRANCH  14  15
ATOM     15  C   UNL     1       5.920   5.856  17.712  0.00  0.00    +0.000 A 
ATOM     16  C   UNL     1       6.804   5.318  18.651  0.00  0.00    +0.000 A 
ATOM     17  C   UNL     1       7.960   6.027  19.029  0.00  0.00    +0.000 A 
ATOM     18  C   UNL     1       8.260   7.262  18.456  0.00  0.00    +0.000 A 
ATOM     19  C   UNL     1       7.421   7.787  17.483  0.00  0.00    +0.000 A 
ATOM     20  C   UNL     1       6.265   7.087  17.117  0.00  0.00    +0.000 A 
ENDBRANCH  14  15
ENDBRANCH   2  14
TORSDOF 4
ENDMDL
MODEL 2
REMARK VINA RESULT:      -6.9      2.338      4.524
REMARK  Name = 
REMARK  6 active torsions:
REMARK  status: ('A' for Active; 'I' for Inactive)
REMARK    1  A    between atoms: C_1  and  O_2
REMARK    2  A    between atoms: O_2  and  C_3
REMARK    3  A    between atoms: C_3  and  N_4
REMARK    4  A    between atoms: C_5  and  S_6
REMARK    5  A    between atoms: S_6  and  C_7
REMARK    6  A    between atoms: C_13  and  C_14
REMARK                            x       y       z     vdW  Elec       q    Type
REMARK                         _______ _______ _______ _____ _____    ______ ____
ROOT
ATOM      1  N   UNL     1       4.542   3.971  18.968  0.00  0.00    +0.000 N 
ATOM      2  C   UNL     1       3.552   4.516  18.139  0.00  0.00    +0.000 A 
ATOM      3  C   UNL     1       2.352   3.905  18.020  0.00  0.00    +0.000 A 
ATOM      4  C   UNL     1       1.112   4.378  17.313  0.00  0.00    +0.000 C 
ATOM      5  C   UNL     1       2.140   2.631  18.758  0.00  0.00    +0.000 A 
ATOM      6  O   UNL     1       1.030   2.137  18.907  0.00  0.00    +0.000 OA
ATOM      7  N   UNL     1       3.247   2.047  19.274  0.00  0.00    +0.000 N 
ATOM      8  C   UNL     1       4.378   2.737  19.579  0.00  0.00    +0.000 A 
ATOM      9  O   UNL     1       5.172   2.228  20.379  0.00  0.00    +0.000 OA
ATOM     10  H   UNL     1       3.085   1.217  19.825  0.00  0.00    +0.000 HD
ENDROOT
BRANCH   1  11
ATOM     11  C   UNL     1       5.717   4.714  19.395  0.00  0.00    +0.000 C 
BRANCH  11  13
ATOM     12  C   UNL     1       7.489   5.570  18.114  0.00  0.00    +0.000 C 
ATOM     13  O   UNL     1       6.805   4.398  18.533  0.00  0.00    +0.000 OA
ENDBRANCH  11  13
ENDBRANCH   1  11
BRANCH   2  14
ATOM     14  S   UNL     1       3.737   6.136  17.501  0.00  0.00    +0.000 S 
BRANCH  14  15
ATOM     15  C   UNL     1       2.829   7.297  18.511  0.00  0.00    +0.000 A 
ATOM     16  C   UNL     1       2.402   7.111  19.828  0.00  0.00    +0.000 A 
ATOM     17  C   UNL     1       1.508   8.021  20.423  0.00  0.00    +0.000 A 
ATOM     18  C   UNL     1       1.053   9.138  19.722  0.00  0.00    +0.000 A 
ATOM     19  C   UNL     1       1.508   9.367  18.431  0.00  0.00    +0.000 A 
ATOM     20  C   UNL     1       2.386   8.455  17.836  0.00  0.00    +0.000 A 
ENDBRANCH  14  15
ENDBRANCH   2  14
TORSDOF 4
ENDMDL
MODEL 3
REMARK VINA RESULT:      -6.9      2.346      4.670
REMARK  Name = 
REMARK  6 active torsions:
REMARK  status: ('A' for Active; 'I' for Inactive)
REMARK    1  A    between atoms: C_1  and  O_2
REMARK    2  A    between atoms: O_2  and  C_3
REMARK    3  A    between atoms: C_3  and  N_4
REMARK    4  A    between atoms: C_5  and  S_6
REMARK    5  A    between atoms: S_6  and  C_7
REMARK    6  A    between atoms: C_13  and  C_14
REMARK                            x       y       z     vdW  Elec       q    Type
REMARK                         _______ _______ _______ _____ _____    ______ ____
ROOT
ATOM      1  N   UNL     1       4.534   3.972  18.984  0.00  0.00    +0.000 N 
ATOM      2  C   UNL     1       3.565   4.542  18.147  0.00  0.00    +0.000 A 
ATOM      3  C   UNL     1       2.366   3.939  17.985  0.00  0.00    +0.000 A 
ATOM      4  C   UNL     1       1.144   4.434  17.262  0.00  0.00    +0.000 C 
ATOM      5  C   UNL     1       2.133   2.647  18.685  0.00  0.00    +0.000 A 
ATOM      6  O   UNL     1       1.018   2.154  18.796  0.00  0.00    +0.000 OA
ATOM      7  N   UNL     1       3.226   2.046  19.211  0.00  0.00    +0.000 N 
ATOM      8  C   UNL     1       4.351   2.723  19.560  0.00  0.00    +0.000 A 
ATOM      9  O   UNL     1       5.126   2.191  20.363  0.00  0.00    +0.000 OA
ATOM     10  H   UNL     1       3.049   1.202  19.736  0.00  0.00    +0.000 HD
ENDROOT
BRANCH   1  11
ATOM     11  C   UNL     1       5.701   4.698  19.456  0.00  0.00    +0.000 C 
BRANCH  11  13
ATOM     12  C   UNL     1       7.540   5.605  18.311  0.00  0.00    +0.000 C 
ATOM     13  O   UNL     1       6.800   4.426  18.593  0.00  0.00    +0.000 OA
ENDBRANCH  11  13
ENDBRANCH   1  11
BRANCH   2  14
ATOM     14  S   UNL     1       3.770   6.177  17.555  0.00  0.00    +0.000 S 
BRANCH  14  15
ATOM     15  C   UNL     1       2.619   7.271  18.374  0.00  0.00    +0.000 A 
ATOM     16  C   UNL     1       2.057   8.440  17.854  0.00  0.00    +0.000 A 
ATOM     17  C   UNL     1       1.339   9.318  18.689  0.00  0.00    +0.000 A 
ATOM     18  C   UNL     1       1.151   9.026  20.039  0.00  0.00    +0.000 A 
ATOM     19  C   UNL     1       1.657   7.843  20.560  0.00  0.00    +0.000 A 
ATOM     20  C   UNL     1       2.382   6.978  19.733  0.00  0.00    +0.000 A 
ENDBRANCH  14  15
ENDBRANCH   2  14
TORSDOF 4
ENDMDL
MODEL 4
REMARK VINA RESULT:      -6.9      1.233      1.427
REMARK  Name = 
REMARK  6 active torsions:
REMARK  status: ('A' for Active; 'I' for Inactive)
REMARK    1  A    between atoms: C_1  and  O_2
REMARK    2  A    between atoms: O_2  and  C_3
REMARK    3  A    between atoms: C_3  and  N_4
REMARK    4  A    between atoms: C_5  and  S_6
REMARK    5  A    between atoms: S_6  and  C_7
REMARK    6  A    between atoms: C_13  and  C_14
REMARK                            x       y       z     vdW  Elec       q    Type
REMARK                         _______ _______ _______ _____ _____    ______ ____
ROOT
ATOM      1  N   UNL     1       3.050   3.377  19.664  0.00  0.00    +0.000 N 
ATOM      2  C   UNL     1       3.149   4.456  18.776  0.00  0.00    +0.000 A 
ATOM      3  C   UNL     1       2.608   5.653  19.097  0.00  0.00    +0.000 A 
ATOM      4  C   UNL     1       2.715   6.967  18.374  0.00  0.00    +0.000 C 
ATOM      5  C   UNL     1       1.881   5.768  20.389  0.00  0.00    +0.000 A 
ATOM      6  O   UNL     1       1.573   6.849  20.874  0.00  0.00    +0.000 OA
ATOM      7  N   UNL     1       1.589   4.604  21.016  0.00  0.00    +0.000 N 
ATOM      8  C   UNL     1       2.293   3.457  20.823  0.00  0.00    +0.000 A 
ATOM      9  O   UNL     1       2.219   2.576  21.687  0.00  0.00    +0.000 OA
ATOM     10  H   UNL     1       1.151   4.694  21.921  0.00  0.00    +0.000 HD
ENDROOT
BRANCH   1  11
ATOM     11  C   UNL     1       3.859   2.174  19.544  0.00  0.00    +0.000 C 
BRANCH  11  13
ATOM     12  C   UNL     1       5.326   1.153  21.068  0.00  0.00    +0.000 C 
ATOM     13  O   UNL     1       5.041   2.328  20.323  0.00  0.00    +0.000 OA
ENDBRANCH  11  13
ENDBRANCH   1  11
BRANCH   2  14
ATOM     14  S   UNL     1       4.227   4.363  17.399  0.00  0.00    +0.000 S 
BRANCH  14  15
ATOM     15  C   UNL     1       5.759   5.206  17.764  0.00  0.00    +0.000 A 
ATOM     16  C   UNL     1       6.599   4.984  18.858  0.00  0.00    +0.000 A 
ATOM     17  C   UNL     1       7.657   5.871  19.135  0.00  0.00    +0.000 A 
ATOM     18  C   UNL     1       7.903   6.969  18.311  0.00  0.00    +0.000 A 
ATOM     19  C   UNL     1       7.111   7.175  17.191  0.00  0.00    +0.000 A 
ATOM     20  C   UNL     1       6.052   6.300  16.923  0.00  0.00    +0.000 A 
ENDBRANCH  14  15
ENDBRANCH   2  14
TORSDOF 4
ENDMDL
MODEL 5
REMARK VINA RESULT:      -6.9      1.098      1.676
REMARK  Name = 
REMARK  6 active torsions:
REMARK  status: ('A' for Active; 'I' for Inactive)
REMARK    1  A    between atoms: C_1  and  O_2
REMARK    2  A    between atoms: O_2  and  C_3
REMARK    3  A    between atoms: C_3  and  N_4
REMARK    4  A    between atoms: C_5  and  S_6
REMARK    5  A    between atoms: S_6  and  C_7
REMARK    6  A    between atoms: C_13  and  C_14
REMARK                            x       y       z     vdW  Elec       q    Type
REMARK                         _______ _______ _______ _____ _____    ______ ____
ROOT
ATOM      1  N   UNL     1       2.899   3.574  19.440  0.00  0.00    +0.000 N 
ATOM      2  C   UNL     1       3.062   4.736  18.675  0.00  0.00    +0.000 A 
ATOM      3  C   UNL     1       2.519   5.904  19.087  0.00  0.00    +0.000 A 
ATOM      4  C   UNL     1       2.684   7.283  18.512  0.00  0.00    +0.000 C 
ATOM      5  C   UNL     1       1.720   5.899  20.342  0.00  0.00    +0.000 A 
ATOM      6  O   UNL     1       1.397   6.930  20.917  0.00  0.00    +0.000 OA
ATOM      7  N   UNL     1       1.377   4.682  20.828  0.00  0.00    +0.000 N 
ATOM      8  C   UNL     1       2.077   3.549  20.557  0.00  0.00    +0.000 A 
ATOM      9  O   UNL     1       1.941   2.585  21.319  0.00  0.00    +0.000 OA
ATOM     10  H   UNL     1       0.888   4.688  21.711  0.00  0.00    +0.000 HD
ENDROOT
BRANCH   1  11
ATOM     11  C   UNL     1       3.698   2.375  19.242  0.00  0.00    +0.000 C 
BRANCH  11  13
ATOM     12  C   UNL     1       5.093   1.345  20.826  0.00  0.00    +0.000 C 
ATOM     13  O   UNL     1       4.897   2.484  20.002  0.00  0.00    +0.000 OA
ENDBRANCH  11  13
ENDBRANCH   1  11
BRANCH   2  14
ATOM     14  S   UNL     1       4.217   4.765  17.359  0.00  0.00    +0.000 S 
BRANCH  14  15
ATOM     15  C   UNL     1       5.633   5.757  17.810  0.00  0.00    +0.000 A 
ATOM     16  C   UNL     1       6.151   6.848  17.109  0.00  0.00    +0.000 A 
ATOM     17  C   UNL     1       7.398   7.397  17.464  0.00  0.00    +0.000 A 
ATOM     18  C   UNL     1       8.126   6.881  18.536  0.00  0.00    +0.000 A 
ATOM     19  C   UNL     1       7.602   5.831  19.276  0.00  0.00    +0.000 A 
ATOM     20  C   UNL     1       6.368   5.278  18.914  0.00  0.00    +0.000 A 
ENDBRANCH  14  15
ENDBRANCH   2  14
TORSDOF 4
ENDMDL
MODEL 6
REMARK VINA RESULT:      -6.8      0.474      1.194
REMARK  Name = 
REMARK  6 active torsions:
REMARK  status: ('A' for Active; 'I' for Inactive)
REMARK    1  A    between atoms: C_1  and  O_2
REMARK    2  A    between atoms: O_2  and  C_3
REMARK    3  A    between atoms: C_3  and  N_4
REMARK    4  A    between atoms: C_5  and  S_6
REMARK    5  A    between atoms: S_6  and  C_7
REMARK    6  A    between atoms: C_13  and  C_14
REMARK                            x       y       z     vdW  Elec       q    Type
REMARK                         _______ _______ _______ _____ _____    ______ ____
ROOT
ATOM      1  N   UNL     1       3.076   4.132  19.860  0.00  0.00    +0.000 N 
ATOM      2  C   UNL     1       3.139   5.157  18.907  0.00  0.00    +0.000 A 
ATOM      3  C   UNL     1       2.520   6.337  19.135  0.00  0.00    +0.000 A 
ATOM      4  C   UNL     1       2.572   7.607  18.332  0.00  0.00    +0.000 C 
ATOM      5  C   UNL     1       1.747   6.488  20.397  0.00  0.00    +0.000 A 
ATOM      6  O   UNL     1       1.360   7.577  20.802  0.00  0.00    +0.000 OA
ATOM      7  N   UNL     1       1.504   5.350  21.089  0.00  0.00    +0.000 N 
ATOM      8  C   UNL     1       2.280   4.239  20.990  0.00  0.00    +0.000 A 
ATOM      9  O   UNL     1       2.230   3.410  21.906  0.00  0.00    +0.000 OA
ATOM     10  H   UNL     1       1.033   5.471  21.974  0.00  0.00    +0.000 HD
ENDROOT
BRANCH   1  11
ATOM     11  C   UNL     1       3.958   2.975  19.840  0.00  0.00    +0.000 C 
BRANCH  11  13
ATOM     12  C   UNL     1       3.481   1.588  18.006  0.00  0.00    +0.000 C 
ATOM     13  O   UNL     1       3.229   1.842  19.380  0.00  0.00    +0.000 OA
ENDBRANCH  11  13
ENDBRANCH   1  11
BRANCH   2  14
ATOM     14  S   UNL     1       4.263   5.043  17.569  0.00  0.00    +0.000 S 
BRANCH  14  15
ATOM     15  C   UNL     1       5.737   5.986  17.928  0.00  0.00    +0.000 A 
ATOM     16  C   UNL     1       6.235   7.074  17.207  0.00  0.00    +0.000 A 
ATOM     17  C   UNL     1       7.521   7.581  17.476  0.00  0.00    +0.000 A 
ATOM     18  C   UNL     1       8.310   7.026  18.483  0.00  0.00    +0.000 A 
ATOM     19  C   UNL     1       7.811   5.979  19.245  0.00  0.00    +0.000 A 
ATOM     20  C   UNL     1       6.537   5.468  18.968  0.00  0.00    +0.000 A 
ENDBRANCH  14  15
ENDBRANCH   2  14
TORSDOF 4
ENDMDL
MODEL 7
REMARK VINA RESULT:      -6.6      2.070      4.667
REMARK  Name = 
REMARK  6 active torsions:
REMARK  status: ('A' for Active; 'I' for Inactive)
REMARK    1  A    between atoms: C_1  and  O_2
REMARK    2  A    between atoms: O_2  and  C_3
REMARK    3  A    between atoms: C_3  and  N_4
REMARK    4  A    between atoms: C_5  and  S_6
REMARK    5  A    between atoms: S_6  and  C_7
REMARK    6  A    between atoms: C_13  and  C_14
REMARK                            x       y       z     vdW  Elec       q    Type
REMARK                         _______ _______ _______ _____ _____    ______ ____
ROOT
ATOM      1  N   UNL     1       3.621   4.425  18.436  0.00  0.00    +0.000 N 
ATOM      2  C   UNL     1       4.196   5.646  18.060  0.00  0.00    +0.000 A 
ATOM      3  C   UNL     1       5.541   5.779  18.013  0.00  0.00    +0.000 A 
ATOM      4  C   UNL     1       6.364   6.932  17.508  0.00  0.00    +0.000 C 
ATOM      5  C   UNL     1       6.373   4.611  18.407  0.00  0.00    +0.000 A 
ATOM      6  O   UNL     1       7.572   4.551  18.171  0.00  0.00    +0.000 OA
ATOM      7  N   UNL     1       5.726   3.601  19.035  0.00  0.00    +0.000 N 
ATOM      8  C   UNL     1       4.394   3.369  18.893  0.00  0.00    +0.000 A 
ATOM      9  O   UNL     1       3.967   2.243  19.171  0.00  0.00    +0.000 OA
ATOM     10  H   UNL     1       6.287   2.787  19.243  0.00  0.00    +0.000 HD
ENDROOT
BRANCH   1  11
ATOM     11  C   UNL     1       2.220   4.105  18.210  0.00  0.00    +0.000 C 
BRANCH  11  13
ATOM     12  C   UNL     1       0.790   3.118  19.790  0.00  0.00    +0.000 C 
ATOM     13  O   UNL     1       1.499   4.293  19.424  0.00  0.00    +0.000 OA
ENDBRANCH  11  13
ENDBRANCH   1  11
BRANCH   2  14
ATOM     14  S   UNL     1       3.202   6.904  17.355  0.00  0.00    +0.000 S 
BRANCH  14  15
ATOM     15  C   UNL     1       2.391   7.836  18.646  0.00  0.00    +0.000 A 
ATOM     16  C   UNL     1       2.196   7.441  19.971  0.00  0.00    +0.000 A 
ATOM     17  C   UNL     1       1.349   8.181  20.819  0.00  0.00    +0.000 A 
ATOM     18  C   UNL     1       0.713   9.335  20.362  0.00  0.00    +0.000 A 
ATOM     19  C   UNL     1       0.938   9.772  19.064  0.00  0.00    +0.000 A 
ATOM     20  C   UNL     1       1.769   9.028  18.218  0.00  0.00    +0.000 A 
ENDBRANCH  14  15
ENDBRANCH   2  14
TORSDOF 4
ENDMDL
MODEL 8
REMARK VINA RESULT:      -6.6      1.228      3.281
REMARK  Name = 
REMARK  6 active torsions:
REMARK  status: ('A' for Active; 'I' for Inactive)
REMARK    1  A    between atoms: C_1  and  O_2
REMARK    2  A    between atoms: O_2  and  C_3
REMARK    3  A    between atoms: C_3  and  N_4
REMARK    4  A    between atoms: C_5  and  S_6
REMARK    5  A    between atoms: S_6  and  C_7
REMARK    6  A    between atoms: C_13  and  C_14
REMARK                            x       y       z     vdW  Elec       q    Type
REMARK                         _______ _______ _______ _____ _____    ______ ____
ROOT
ATOM      1  N   UNL     1       2.806   5.715  19.249  0.00  0.00    +0.000 N 
ATOM      2  C   UNL     1       3.314   4.642  18.504  0.00  0.00    +0.000 A 
ATOM      3  C   UNL     1       2.833   3.393  18.695  0.00  0.00    +0.000 A 
ATOM      4  C   UNL     1       3.121   2.136  17.921  0.00  0.00    +0.000 C 
ATOM      5  C   UNL     1       1.790   3.197  19.737  0.00  0.00    +0.000 A 
ATOM      6  O   UNL     1       1.129   2.170  19.818  0.00  0.00    +0.000 OA
ATOM      7  N   UNL     1       1.597   4.230  20.592  0.00  0.00    +0.000 N 
ATOM      8  C   UNL     1       1.904   5.517  20.284  0.00  0.00    +0.000 A 
ATOM      9  O   UNL     1       1.360   6.417  20.934  0.00  0.00    +0.000 OA
ATOM     10  H   UNL     1       0.846   4.111  21.256  0.00  0.00    +0.000 HD
ENDROOT
BRANCH   1  11
ATOM     11  C   UNL     1       3.033   7.106  18.893  0.00  0.00    +0.000 C 
BRANCH  11  13
ATOM     12  C   UNL     1       1.894   8.917  17.923  0.00  0.00    +0.000 C 
ATOM     13  O   UNL     1       2.059   7.506  17.934  0.00  0.00    +0.000 OA
ENDBRANCH  11  13
ENDBRANCH   1  11
BRANCH   2  14
ATOM     14  S   UNL     1       4.339   4.945  17.117  0.00  0.00    +0.000 S 
BRANCH  14  15
ATOM     15  C   UNL     1       5.914   5.598  17.653  0.00  0.00    +0.000 A 
ATOM     16  C   UNL     1       6.705   5.126  18.703  0.00  0.00    +0.000 A 
ATOM     17  C   UNL     1       7.812   5.871  19.152  0.00  0.00    +0.000 A 
ATOM     18  C   UNL     1       8.157   7.076  18.541  0.00  0.00    +0.000 A 
ATOM     19  C   UNL     1       7.414   7.533  17.461  0.00  0.00    +0.000 A 
ATOM     20  C   UNL     1       6.306   6.799  17.025  0.00  0.00    +0.000 A 
ENDBRANCH  14  15
ENDBRANCH   2  14
TORSDOF 4
ENDMDL
MODEL 9
REMARK VINA RESULT:      -6.5      1.273      3.460
REMARK  Name = 
REMARK  6 active torsions:
REMARK  status: ('A' for Active; 'I' for Inactive)
REMARK    1  A    between atoms: C_1  and  O_2
REMARK    2  A    between atoms: O_2  and  C_3
REMARK    3  A    between atoms: C_3  and  N_4
REMARK    4  A    between atoms: C_5  and  S_6
REMARK    5  A    between atoms: S_6  and  C_7
REMARK    6  A    between atoms: C_13  and  C_14
REMARK                            x       y       z     vdW  Elec       q    Type
REMARK                         _______ _______ _______ _____ _____    ______ ____
ROOT
ATOM      1  N   UNL     1       2.670   5.695  19.321  0.00  0.00    +0.000 N 
ATOM      2  C   UNL     1       3.170   4.617  18.580  0.00  0.00    +0.000 A 
ATOM      3  C   UNL     1       2.655   3.378  18.747  0.00  0.00    +0.000 A 
ATOM      4  C   UNL     1       2.932   2.121  17.970  0.00  0.00    +0.000 C 
ATOM      5  C   UNL     1       1.582   3.199  19.762  0.00  0.00    +0.000 A 
ATOM      6  O   UNL     1       0.895   2.187  19.817  0.00  0.00    +0.000 OA
ATOM      7  N   UNL     1       1.393   4.228  20.620  0.00  0.00    +0.000 N 
ATOM      8  C   UNL     1       1.738   5.511  20.332  0.00  0.00    +0.000 A 
ATOM      9  O   UNL     1       1.199   6.418  20.976  0.00  0.00    +0.000 OA
ATOM     10  H   UNL     1       0.623   4.122  21.265  0.00  0.00    +0.000 HD
ENDROOT
BRANCH   1  11
ATOM     11  C   UNL     1       2.939   7.083  18.983  0.00  0.00    +0.000 C 
BRANCH  11  13
ATOM     12  C   UNL     1       1.786   8.869  17.983  0.00  0.00    +0.000 C 
ATOM     13  O   UNL     1       2.076   7.480  17.922  0.00  0.00    +0.000 OA
ENDBRANCH  11  13
ENDBRANCH   1  11
BRANCH   2  14
ATOM     14  S   UNL     1       4.237   4.907  17.221  0.00  0.00    +0.000 S 
BRANCH  14  15
ATOM     15  C   UNL     1       5.670   5.830  17.756  0.00  0.00    +0.000 A 
ATOM     16  C   UNL     1       6.244   6.932  17.118  0.00  0.00    +0.000 A 
ATOM     17  C   UNL     1       7.497   7.423  17.533  0.00  0.00    +0.000 A 
ATOM     18  C   UNL     1       8.175   6.838  18.603  0.00  0.00    +0.000 A 
ATOM     19  C   UNL     1       7.594   5.776  19.281  0.00  0.00    +0.000 A 
ATOM     20  C   UNL     1       6.355   5.281  18.860  0.00  0.00    +0.000 A 
ENDBRANCH  14  15
ENDBRANCH   2  14
TORSDOF 4
ENDMDL
