MODEL 1
REMARK VINA RESULT:      -7.6      0.000      0.000
REMARK  Name = 
REMARK  14 active torsions:
REMARK  status: ('A' for Active; 'I' for Inactive)
REMARK    1  A    between atoms: C_1  and  C_2
REMARK    2  A    between atoms: C_2  and  C_3
REMARK    3  A    between atoms: C_3  and  C_4
REMARK    4  A    between atoms: C_4  and  C_5
REMARK    5  A    between atoms: C_5  and  N_6
REMARK    6  A    between atoms: N_9  and  C_10
REMARK    7  A    between atoms: C_13  and  S_14
REMARK    8  A    between atoms: S_14  and  N_17
REMARK    9  A    between atoms: N_17  and  C_18
REMARK   10  A    between atoms: C_21  and  C_22
REMARK   11  A    between atoms: C_22  and  C_23
REMARK   12  A    between atoms: C_23  and  C_24
REMARK   13  A    between atoms: C_23  and  C_25
REMARK   14  A    between atoms: C_23  and  N_26
REMARK                            x       y       z     vdW  Elec       q    Type
REMARK                         _______ _______ _______ _____ _____    ______ ____
ROOT
ATOM      1  S   UNL     1       1.879   4.943  20.523  0.00  0.00    +0.000 S 
ATOM      2  O   UNL     1       0.598   4.990  19.864  0.00  0.00    +0.000 OA
ATOM      3  O   UNL     1       2.159   3.935  21.542  0.00  0.00    +0.000 OA
ENDROOT
BRANCH   1   7
ATOM      4  C   UNL     1       5.104   4.222  17.311  0.00  0.00    +0.000 A 
ATOM      5  C   UNL     1       3.745   3.991  17.054  0.00  0.00    +0.000 A 
ATOM      6  C   UNL     1       2.765   4.299  18.004  0.00  0.00    +0.000 A 
ATOM      7  C   UNL     1       3.137   4.740  19.274  0.00  0.00    +0.000 A 
ATOM      8  C   UNL     1       4.479   5.000  19.548  0.00  0.00    +0.000 A 
ATOM      9  C   UNL     1       5.451   4.719  18.570  0.00  0.00    +0.000 A 
BRANCH   4  13
ATOM     10  N   UNL     1       7.411   4.481  14.466  0.00  0.00    +0.000 N 
ATOM     11  C   UNL     1       6.360   4.814  15.281  0.00  0.00    +0.000 C 
ATOM     12  O   UNL     1       5.693   5.845  15.041  0.00  0.00    +0.000 OA
ATOM     13  N   UNL     1       6.121   3.977  16.336  0.00  0.00    +0.000 N 
ATOM     14  H   UNL     1       7.980   3.673  14.663  0.00  0.00    +0.000 HD
ATOM     15  H   UNL     1       6.775   3.225  16.527  0.00  0.00    +0.000 HD
BRANCH  10  16
ATOM     16  C   UNL     1       7.765   5.323  13.324  0.00  0.00    +0.000 C 
BRANCH  16  17
ATOM     17  C   UNL     1       7.341   4.742  11.968  0.00  0.00    +0.000 C 
BRANCH  17  18
ATOM     18  C   UNL     1       6.564   3.433  12.123  0.00  0.00    +0.000 C 
BRANCH  18  20
ATOM     19  C   UNL     1       6.252   1.106  11.228  0.00  0.00    +0.000 C 
ATOM     20  C   UNL     1       7.169   2.317  11.273  0.00  0.00    +0.000 C 
ENDBRANCH  18  20
ENDBRANCH  17  18
ENDBRANCH  16  17
ENDBRANCH  10  16
ENDBRANCH   4  13
ENDBRANCH   1   7
BRANCH   1  21
ATOM     21  N   UNL     1       2.149   6.483  21.189  0.00  0.00    +0.000 N 
ATOM     22  H   UNL     1       2.379   6.564  22.177  0.00  0.00    +0.000 HD
BRANCH  21  23
ATOM     23  C   UNL     1       1.712   7.638  20.496  0.00  0.00    +0.000 A 
ATOM     24  C   UNL     1       2.059   7.853  19.161  0.00  0.00    +0.000 A 
ATOM     25  C   UNL     1       1.712   9.043  18.506  0.00  0.00    +0.000 A 
ATOM     26  C   UNL     1       0.904   9.979  19.156  0.00  0.00    +0.000 A 
ATOM     27  C   UNL     1       0.573   9.736  20.499  0.00  0.00    +0.000 A 
ATOM     28  C   UNL     1       0.976   8.589  21.172  0.00  0.00    +0.000 A 
BRANCH  26  29
ATOM     29  C   UNL     1       0.342  11.170  18.401  0.00  0.00    +0.000 C 
BRANCH  29  30
ATOM     30  C   UNL     1      -1.212  11.163  18.272  0.00  0.00    +0.000 C 
ATOM     31  C   UNL     1      -1.714   9.805  17.726  0.00  0.00    +0.000 C 
ATOM     32  C   UNL     1      -1.863  11.612  19.601  0.00  0.00    +0.000 C 
BRANCH  30  33
ATOM     33  N   UNL     1      -1.652  12.164  17.271  0.00  0.00    +0.000 NA
ATOM     34  H   UNL     1      -2.186  11.714  16.527  0.00  0.00    +0.000 HD
ATOM     35  H   UNL     1      -0.848  12.610  16.831  0.00  0.00    +0.000 HD
ENDBRANCH  30  33
ENDBRANCH  29  30
ENDBRANCH  26  29
ENDBRANCH  21  23
ENDBRANCH   1  21
TORSDOF 11
ENDMDL
MODEL 2
REMARK VINA RESULT:      -7.4      1.105      1.651
REMARK  Name = 
REMARK  14 active torsions:
REMARK  status: ('A' for Active; 'I' for Inactive)
REMARK    1  A    between atoms: C_1  and  C_2
REMARK    2  A    between atoms: C_2  and  C_3
REMARK    3  A    between atoms: C_3  and  C_4
REMARK    4  A    between atoms: C_4  and  C_5
REMARK    5  A    between atoms: C_5  and  N_6
REMARK    6  A    between atoms: N_9  and  C_10
REMARK    7  A    between atoms: C_13  and  S_14
REMARK    8  A    between atoms: S_14  and  N_17
REMARK    9  A    between atoms: N_17  and  C_18
REMARK   10  A    between atoms: C_21  and  C_22
REMARK   11  A    between atoms: C_22  and  C_23
REMARK   12  A    between atoms: C_23  and  C_24
REMARK   13  A    between atoms: C_23  and  C_25
REMARK   14  A    between atoms: C_23  and  N_26
REMARK                            x       y       z     vdW  Elec       q    Type
REMARK                         _______ _______ _______ _____ _____    ______ ____
ROOT
ATOM      1  S   UNL     1       1.978   4.844  20.680  0.00  0.00    +0.000 S 
ATOM      2  O   UNL     1       0.690   4.889  20.035  0.00  0.00    +0.000 OA
ATOM      3  O   UNL     1       2.229   3.925  21.787  0.00  0.00    +0.000 OA
ENDROOT
BRANCH   1   7
ATOM      4  C   UNL     1       5.119   4.046  17.403  0.00  0.00    +0.000 A 
ATOM      5  C   UNL     1       5.379   4.910  18.477  0.00  0.00    +0.000 A 
ATOM      6  C   UNL     1       4.455   5.076  19.514  0.00  0.00    +0.000 A 
ATOM      7  C   UNL     1       3.204   4.464  19.439  0.00  0.00    +0.000 A 
ATOM      8  C   UNL     1       2.928   3.583  18.394  0.00  0.00    +0.000 A 
ATOM      9  C   UNL     1       3.881   3.398  17.376  0.00  0.00    +0.000 A 
BRANCH   4  13
ATOM     10  N   UNL     1       7.139   4.254  14.344  0.00  0.00    +0.000 N 
ATOM     11  C   UNL     1       6.131   4.560  15.221  0.00  0.00    +0.000 C 
ATOM     12  O   UNL     1       5.342   5.494  14.956  0.00  0.00    +0.000 OA
ATOM     13  N   UNL     1       6.070   3.809  16.362  0.00  0.00    +0.000 N 
ATOM     14  H   UNL     1       7.804   3.527  14.556  0.00  0.00    +0.000 HD
ATOM     15  H   UNL     1       6.813   3.145  16.556  0.00  0.00    +0.000 HD
BRANCH  10  16
ATOM     16  C   UNL     1       7.305   5.013  13.104  0.00  0.00    +0.000 C 
BRANCH  16  17
ATOM     17  C   UNL     1       6.928   4.229  11.840  0.00  0.00    +0.000 C 
BRANCH  17  18
ATOM     18  C   UNL     1       6.565   2.776  12.153  0.00  0.00    +0.000 C 
BRANCH  18  20
ATOM     19  C   UNL     1       4.213   3.308  11.447  0.00  0.00    +0.000 C 
ATOM     20  C   UNL     1       5.357   2.312  11.342  0.00  0.00    +0.000 C 
ENDBRANCH  18  20
ENDBRANCH  17  18
ENDBRANCH  16  17
ENDBRANCH  10  16
ENDBRANCH   4  13
ENDBRANCH   1   7
BRANCH   1  21
ATOM     21  N   UNL     1       2.330   6.425  21.192  0.00  0.00    +0.000 N 
ATOM     22  H   UNL     1       2.793   6.567  22.087  0.00  0.00    +0.000 HD
BRANCH  21  23
ATOM     23  C   UNL     1       1.682   7.526  20.581  0.00  0.00    +0.000 A 
ATOM     24  C   UNL     1       2.023   7.940  19.292  0.00  0.00    +0.000 A 
ATOM     25  C   UNL     1       1.454   9.089  18.726  0.00  0.00    +0.000 A 
ATOM     26  C   UNL     1       0.441   9.767  19.410  0.00  0.00    +0.000 A 
ATOM     27  C   UNL     1       0.122   9.328  20.706  0.00  0.00    +0.000 A 
ATOM     28  C   UNL     1       0.736   8.230  21.295  0.00  0.00    +0.000 A 
BRANCH  26  29
ATOM     29  C   UNL     1      -0.334  10.882  18.734  0.00  0.00    +0.000 C 
BRANCH  29  30
ATOM     30  C   UNL     1      -0.005  12.305  19.280  0.00  0.00    +0.000 C 
ATOM     31  C   UNL     1       1.452  12.375  19.796  0.00  0.00    +0.000 C 
ATOM     32  C   UNL     1      -0.379  13.381  18.233  0.00  0.00    +0.000 C 
BRANCH  30  33
ATOM     33  N   UNL     1      -0.845  12.612  20.462  0.00  0.00    +0.000 NA
ATOM     34  H   UNL     1      -0.477  13.422  20.961  0.00  0.00    +0.000 HD
ATOM     35  H   UNL     1      -0.841  11.832  21.119  0.00  0.00    +0.000 HD
ENDBRANCH  30  33
ENDBRANCH  29  30
ENDBRANCH  26  29
ENDBRANCH  21  23
ENDBRANCH   1  21
TORSDOF 11
ENDMDL
MODEL 3
REMARK VINA RESULT:      -7.1      1.592      2.200
REMARK  Name = 
REMARK  14 active torsions:
REMARK  status: ('A' for Active; 'I' for Inactive)
REMARK    1  A    between atoms: C_1  and  C_2
REMARK    2  A    between atoms: C_2  and  C_3
REMARK    3  A    between atoms: C_3  and  C_4
REMARK    4  A    between atoms: C_4  and  C_5
REMARK    5  A    between atoms: C_5  and  N_6
REMARK    6  A    between atoms: N_9  and  C_10
REMARK    7  A    between atoms: C_13  and  S_14
REMARK    8  A    between atoms: S_14  and  N_17
REMARK    9  A    between atoms: N_17  and  C_18
REMARK   10  A    between atoms: C_21  and  C_22
REMARK   11  A    between atoms: C_22  and  C_23
REMARK   12  A    between atoms: C_23  and  C_24
REMARK   13  A    between atoms: C_23  and  C_25
REMARK   14  A    between atoms: C_23  and  N_26
REMARK                            x       y       z     vdW  Elec       q    Type
REMARK                         _______ _______ _______ _____ _____    ______ ____
ROOT
ATOM      1  S   UNL     1       1.970   4.982  20.664  0.00  0.00    +0.000 S 
ATOM      2  O   UNL     1       0.619   5.095  20.173  0.00  0.00    +0.000 OA
ATOM      3  O   UNL     1       2.276   4.153  21.827  0.00  0.00    +0.000 OA
ENDROOT
BRANCH   1   7
ATOM      4  C   UNL     1       4.634   3.571  17.178  0.00  0.00    +0.000 A 
ATOM      5  C   UNL     1       5.171   4.223  18.298  0.00  0.00    +0.000 A 
ATOM      6  C   UNL     1       4.369   4.566  19.391  0.00  0.00    +0.000 A 
ATOM      7  C   UNL     1       2.990   4.363  19.337  0.00  0.00    +0.000 A 
ATOM      8  C   UNL     1       2.433   3.696  18.246  0.00  0.00    +0.000 A 
ATOM      9  C   UNL     1       3.258   3.325  17.168  0.00  0.00    +0.000 A 
BRANCH   4  13
ATOM     10  N   UNL     1       6.466   3.400  14.001  0.00  0.00    +0.000 N 
ATOM     11  C   UNL     1       5.611   3.904  14.946  0.00  0.00    +0.000 C 
ATOM     12  O   UNL     1       5.050   5.006  14.749  0.00  0.00    +0.000 OA
ATOM     13  N   UNL     1       5.441   3.151  16.075  0.00  0.00    +0.000 N 
ATOM     14  H   UNL     1       6.952   2.531  14.157  0.00  0.00    +0.000 HD
ATOM     15  H   UNL     1       6.016   2.326  16.209  0.00  0.00    +0.000 HD
BRANCH  10  16
ATOM     16  C   UNL     1       6.735   4.139  12.767  0.00  0.00    +0.000 C 
BRANCH  16  17
ATOM     17  C   UNL     1       5.967   3.613  11.547  0.00  0.00    +0.000 C 
BRANCH  17  18
ATOM     18  C   UNL     1       4.460   3.547  11.803  0.00  0.00    +0.000 C 
BRANCH  18  20
ATOM     19  C   UNL     1       3.056   4.067   9.784  0.00  0.00    +0.000 C 
ATOM     20  C   UNL     1       3.712   2.967  10.604  0.00  0.00    +0.000 C 
ENDBRANCH  18  20
ENDBRANCH  17  18
ENDBRANCH  16  17
ENDBRANCH  10  16
ENDBRANCH   4  13
ENDBRANCH   1   7
BRANCH   1  21
ATOM     21  N   UNL     1       2.522   6.561  20.958  0.00  0.00    +0.000 N 
ATOM     22  H   UNL     1       3.200   6.721  21.701  0.00  0.00    +0.000 HD
BRANCH  21  23
ATOM     23  C   UNL     1       1.804   7.668  20.446  0.00  0.00    +0.000 A 
ATOM     24  C   UNL     1       0.796   8.282  21.192  0.00  0.00    +0.000 A 
ATOM     25  C   UNL     1       0.018   9.313  20.647  0.00  0.00    +0.000 A 
ATOM     26  C   UNL     1       0.329   9.818  19.381  0.00  0.00    +0.000 A 
ATOM     27  C   UNL     1       1.347   9.178  18.655  0.00  0.00    +0.000 A 
ATOM     28  C   UNL     1       2.072   8.110  19.167  0.00  0.00    +0.000 A 
BRANCH  26  29
ATOM     29  C   UNL     1      -0.359  11.066  18.858  0.00  0.00    +0.000 C 
BRANCH  29  30
ATOM     30  C   UNL     1       0.092  12.381  19.564  0.00  0.00    +0.000 C 
ATOM     31  C   UNL     1       0.112  13.564  18.566  0.00  0.00    +0.000 C 
ATOM     32  C   UNL     1      -0.749  12.620  20.840  0.00  0.00    +0.000 C 
BRANCH  30  33
ATOM     33  N   UNL     1       1.489  12.259  20.042  0.00  0.00    +0.000 NA
ATOM     34  H   UNL     1       1.845  13.168  20.342  0.00  0.00    +0.000 HD
ATOM     35  H   UNL     1       2.100  11.935  19.291  0.00  0.00    +0.000 HD
ENDBRANCH  30  33
ENDBRANCH  29  30
ENDBRANCH  26  29
ENDBRANCH  21  23
ENDBRANCH   1  21
TORSDOF 11
ENDMDL
MODEL 4
REMARK VINA RESULT:      -7.0      3.333      4.575
REMARK  Name = 
REMARK  14 active torsions:
REMARK  status: ('A' for Active; 'I' for Inactive)
REMARK    1  A    between atoms: C_1  and  C_2
REMARK    2  A    between atoms: C_2  and  C_3
REMARK    3  A    between atoms: C_3  and  C_4
REMARK    4  A    between atoms: C_4  and  C_5
REMARK    5  A    between atoms: C_5  and  N_6
REMARK    6  A    between atoms: N_9  and  C_10
REMARK    7  A    between atoms: C_13  and  S_14
REMARK    8  A    between atoms: S_14  and  N_17
REMARK    9  A    between atoms: N_17  and  C_18
REMARK   10  A    between atoms: C_21  and  C_22
REMARK   11  A    between atoms: C_22  and  C_23
REMARK   12  A    between atoms: C_23  and  C_24
REMARK   13  A    between atoms: C_23  and  C_25
REMARK   14  A    between atoms: C_23  and  N_26
REMARK                            x       y       z     vdW  Elec       q    Type
REMARK                         _______ _______ _______ _____ _____    ______ ____
ROOT
ATOM      1  S   UNL     1       0.661   8.944  21.504  0.00  0.00    +0.000 S 
ATOM      2  O   UNL     1      -0.539   8.226  21.853  0.00  0.00    +0.000 OA
ATOM      3  O   UNL     1       1.623   9.337  22.530  0.00  0.00    +0.000 OA
ENDROOT
BRANCH   1   7
ATOM      4  C   UNL     1       2.852   6.397  18.350  0.00  0.00    +0.000 A 
ATOM      5  C   UNL     1       2.538   7.744  18.119  0.00  0.00    +0.000 A 
ATOM      6  C   UNL     1       1.955   8.534  19.116  0.00  0.00    +0.000 A 
ATOM      7  C   UNL     1       1.572   7.959  20.328  0.00  0.00    +0.000 A 
ATOM      8  C   UNL     1       1.893   6.628  20.592  0.00  0.00    +0.000 A 
ATOM      9  C   UNL     1       2.512   5.855  19.592  0.00  0.00    +0.000 A 
BRANCH   4  13
ATOM     10  N   UNL     1       5.322   4.856  16.113  0.00  0.00    +0.000 N 
ATOM     11  C   UNL     1       4.816   5.755  17.015  0.00  0.00    +0.000 C 
ATOM     12  O   UNL     1       5.553   6.656  17.472  0.00  0.00    +0.000 OA
ATOM     13  N   UNL     1       3.506   5.584  17.373  0.00  0.00    +0.000 N 
ATOM     14  H   UNL     1       4.752   4.104  15.759  0.00  0.00    +0.000 HD
ATOM     15  H   UNL     1       3.009   4.763  17.044  0.00  0.00    +0.000 HD
BRANCH  10  16
ATOM     16  C   UNL     1       6.718   4.937  15.682  0.00  0.00    +0.000 C 
BRANCH  16  17
ATOM     17  C   UNL     1       6.916   4.742  14.173  0.00  0.00    +0.000 C 
BRANCH  17  18
ATOM     18  C   UNL     1       5.977   3.677  13.604  0.00  0.00    +0.000 C 
BRANCH  18  20
ATOM     19  C   UNL     1       4.704   2.901  11.581  0.00  0.00    +0.000 C 
ATOM     20  C   UNL     1       5.759   3.864  12.104  0.00  0.00    +0.000 C 
ENDBRANCH  18  20
ENDBRANCH  17  18
ENDBRANCH  16  17
ENDBRANCH  10  16
ENDBRANCH   4  13
ENDBRANCH   1   7
BRANCH   1  21
ATOM     21  N   UNL     1       0.176  10.331  20.651  0.00  0.00    +0.000 N 
ATOM     22  H   UNL     1       0.730  10.646  19.858  0.00  0.00    +0.000 HD
BRANCH  21  23
ATOM     23  C   UNL     1      -0.749  11.232  21.234  0.00  0.00    +0.000 A 
ATOM     24  C   UNL     1      -0.986  11.233  22.609  0.00  0.00    +0.000 A 
ATOM     25  C   UNL     1      -1.972  12.054  23.173  0.00  0.00    +0.000 A 
ATOM     26  C   UNL     1      -2.648  12.974  22.368  0.00  0.00    +0.000 A 
ATOM     27  C   UNL     1      -2.389  12.948  20.988  0.00  0.00    +0.000 A 
ATOM     28  C   UNL     1      -1.461  12.085  20.418  0.00  0.00    +0.000 A 
BRANCH  26  29
ATOM     29  C   UNL     1      -3.564  14.015  22.986  0.00  0.00    +0.000 C 
BRANCH  29  30
ATOM     30  C   UNL     1      -4.932  13.446  23.472  0.00  0.00    +0.000 C 
ATOM     31  C   UNL     1      -5.728  12.840  22.291  0.00  0.00    +0.000 C 
ATOM     32  C   UNL     1      -4.722  12.495  24.673  0.00  0.00    +0.000 C 
BRANCH  30  33
ATOM     33  N   UNL     1      -5.790  14.537  23.991  0.00  0.00    +0.000 NA
ATOM     34  H   UNL     1      -6.776  14.288  23.905  0.00  0.00    +0.000 HD
ATOM     35  H   UNL     1      -5.652  15.392  23.452  0.00  0.00    +0.000 HD
ENDBRANCH  30  33
ENDBRANCH  29  30
ENDBRANCH  26  29
ENDBRANCH  21  23
ENDBRANCH   1  21
TORSDOF 11
ENDMDL
MODEL 5
REMARK VINA RESULT:      -7.0      2.638      8.471
REMARK  Name = 
REMARK  14 active torsions:
REMARK  status: ('A' for Active; 'I' for Inactive)
REMARK    1  A    between atoms: C_1  and  C_2
REMARK    2  A    between atoms: C_2  and  C_3
REMARK    3  A    between atoms: C_3  and  C_4
REMARK    4  A    between atoms: C_4  and  C_5
REMARK    5  A    between atoms: C_5  and  N_6
REMARK    6  A    between atoms: N_9  and  C_10
REMARK    7  A    between atoms: C_13  and  S_14
REMARK    8  A    between atoms: S_14  and  N_17
REMARK    9  A    between atoms: N_17  and  C_18
REMARK   10  A    between atoms: C_21  and  C_22
REMARK   11  A    between atoms: C_22  and  C_23
REMARK   12  A    between atoms: C_23  and  C_24
REMARK   13  A    between atoms: C_23  and  C_25
REMARK   14  A    between atoms: C_23  and  N_26
REMARK                            x       y       z     vdW  Elec       q    Type
REMARK                         _______ _______ _______ _____ _____    ______ ____
ROOT
ATOM      1  S   UNL     1       1.474   3.081  20.042  0.00  0.00    +0.000 S 
ATOM      2  O   UNL     1       1.092   3.098  21.431  0.00  0.00    +0.000 OA
ATOM      3  O   UNL     1       0.617   2.458  19.038  0.00  0.00    +0.000 OA
ENDROOT
BRANCH   1   7
ATOM      4  C   UNL     1       2.248   7.391  18.605  0.00  0.00    +0.000 A 
ATOM      5  C   UNL     1       2.024   6.343  17.700  0.00  0.00    +0.000 A 
ATOM      6  C   UNL     1       1.700   5.057  18.146  0.00  0.00    +0.000 A 
ATOM      7  C   UNL     1       1.704   4.770  19.511  0.00  0.00    +0.000 A 
ATOM      8  C   UNL     1       1.900   5.798  20.432  0.00  0.00    +0.000 A 
ATOM      9  C   UNL     1       2.190   7.094  19.969  0.00  0.00    +0.000 A 
BRANCH   4  13
ATOM     10  N   UNL     1       2.133  11.021  18.063  0.00  0.00    +0.000 N 
ATOM     11  C   UNL     1       1.710   9.788  18.488  0.00  0.00    +0.000 C 
ATOM     12  O   UNL     1       0.645   9.689  19.137  0.00  0.00    +0.000 OA
ATOM     13  N   UNL     1       2.517   8.728  18.177  0.00  0.00    +0.000 N 
ATOM     14  H   UNL     1       3.005  11.124  17.568  0.00  0.00    +0.000 HD
ATOM     15  H   UNL     1       3.419   8.905  17.747  0.00  0.00    +0.000 HD
BRANCH  10  16
ATOM     16  C   UNL     1       1.355  12.222  18.364  0.00  0.00    +0.000 C 
BRANCH  16  17
ATOM     17  C   UNL     1       2.155  13.319  19.080  0.00  0.00    +0.000 C 
BRANCH  17  18
ATOM     18  C   UNL     1       2.816  14.282  18.092  0.00  0.00    +0.000 C 
BRANCH  18  20
ATOM     19  C   UNL     1       3.234  16.702  17.556  0.00  0.00    +0.000 C 
ATOM     20  C   UNL     1       2.360  15.722  18.323  0.00  0.00    +0.000 C 
ENDBRANCH  18  20
ENDBRANCH  17  18
ENDBRANCH  16  17
ENDBRANCH  10  16
ENDBRANCH   4  13
ENDBRANCH   1   7
BRANCH   1  21
ATOM     21  N   UNL     1       3.015   2.370  19.962  0.00  0.00    +0.000 N 
ATOM     22  H   UNL     1       3.317   1.752  20.712  0.00  0.00    +0.000 HD
BRANCH  21  23
ATOM     23  C   UNL     1       3.991   2.896  19.081  0.00  0.00    +0.000 A 
ATOM     24  C   UNL     1       4.927   3.834  19.519  0.00  0.00    +0.000 A 
ATOM     25  C   UNL     1       5.828   4.429  18.625  0.00  0.00    +0.000 A 
ATOM     26  C   UNL     1       5.876   3.992  17.298  0.00  0.00    +0.000 A 
ATOM     27  C   UNL     1       4.920   3.048  16.888  0.00  0.00    +0.000 A 
ATOM     28  C   UNL     1       3.980   2.510  17.757  0.00  0.00    +0.000 A 
BRANCH  26  29
ATOM     29  C   UNL     1       6.977   4.466  16.369  0.00  0.00    +0.000 C 
BRANCH  29  30
ATOM     30  C   UNL     1       6.464   4.984  14.990  0.00  0.00    +0.000 C 
ATOM     31  C   UNL     1       5.959   3.812  14.115  0.00  0.00    +0.000 C 
ATOM     32  C   UNL     1       5.448   6.132  15.193  0.00  0.00    +0.000 C 
BRANCH  30  33
ATOM     33  N   UNL     1       7.576   5.587  14.218  0.00  0.00    +0.000 NA
ATOM     34  H   UNL     1       8.288   4.886  14.010  0.00  0.00    +0.000 HD
ATOM     35  H   UNL     1       8.032   6.322  14.758  0.00  0.00    +0.000 HD
ENDBRANCH  30  33
ENDBRANCH  29  30
ENDBRANCH  26  29
ENDBRANCH  21  23
ENDBRANCH   1  21
TORSDOF 11
ENDMDL
MODEL 6
REMARK VINA RESULT:      -7.0      3.412      4.587
REMARK  Name = 
REMARK  14 active torsions:
REMARK  status: ('A' for Active; 'I' for Inactive)
REMARK    1  A    between atoms: C_1  and  C_2
REMARK    2  A    between atoms: C_2  and  C_3
REMARK    3  A    between atoms: C_3  and  C_4
REMARK    4  A    between atoms: C_4  and  C_5
REMARK    5  A    between atoms: C_5  and  N_6
REMARK    6  A    between atoms: N_9  and  C_10
REMARK    7  A    between atoms: C_13  and  S_14
REMARK    8  A    between atoms: S_14  and  N_17
REMARK    9  A    between atoms: N_17  and  C_18
REMARK   10  A    between atoms: C_21  and  C_22
REMARK   11  A    between atoms: C_22  and  C_23
REMARK   12  A    between atoms: C_23  and  C_24
REMARK   13  A    between atoms: C_23  and  C_25
REMARK   14  A    between atoms: C_23  and  N_26
REMARK                            x       y       z     vdW  Elec       q    Type
REMARK                         _______ _______ _______ _____ _____    ______ ____
ROOT
ATOM      1  S   UNL     1       0.517   9.523  20.965  0.00  0.00    +0.000 S 
ATOM      2  O   UNL     1      -0.567   8.823  21.610  0.00  0.00    +0.000 OA
ATOM      3  O   UNL     1       1.475  10.299  21.747  0.00  0.00    +0.000 OA
ENDROOT
BRANCH   1   7
ATOM      4  C   UNL     1       2.845   6.407  18.493  0.00  0.00    +0.000 A 
ATOM      5  C   UNL     1       2.514   7.665  17.968  0.00  0.00    +0.000 A 
ATOM      6  C   UNL     1       1.888   8.637  18.755  0.00  0.00    +0.000 A 
ATOM      7  C   UNL     1       1.480   8.328  20.053  0.00  0.00    +0.000 A 
ATOM      8  C   UNL     1       1.817   7.094  20.607  0.00  0.00    +0.000 A 
ATOM      9  C   UNL     1       2.479   6.138  19.815  0.00  0.00    +0.000 A 
BRANCH   4  13
ATOM     10  N   UNL     1       5.377   4.534  16.605  0.00  0.00    +0.000 N 
ATOM     11  C   UNL     1       4.815   5.597  17.263  0.00  0.00    +0.000 C 
ATOM     12  O   UNL     1       5.475   6.650  17.415  0.00  0.00    +0.000 OA
ATOM     13  N   UNL     1       3.543   5.418  17.732  0.00  0.00    +0.000 N 
ATOM     14  H   UNL     1       4.873   3.667  16.501  0.00  0.00    +0.000 HD
ATOM     15  H   UNL     1       3.118   4.499  17.666  0.00  0.00    +0.000 HD
BRANCH  10  16
ATOM     16  C   UNL     1       6.741   4.615  16.084  0.00  0.00    +0.000 C 
BRANCH  16  17
ATOM     17  C   UNL     1       6.825   4.604  14.552  0.00  0.00    +0.000 C 
BRANCH  17  18
ATOM     18  C   UNL     1       5.734   3.734  13.925  0.00  0.00    +0.000 C 
BRANCH  18  20
ATOM     19  C   UNL     1       4.711   3.311  11.668  0.00  0.00    +0.000 C 
ATOM     20  C   UNL     1       6.009   3.468  12.446  0.00  0.00    +0.000 C 
ENDBRANCH  18  20
ENDBRANCH  17  18
ENDBRANCH  16  17
ENDBRANCH  10  16
ENDBRANCH   4  13
ENDBRANCH   1   7
BRANCH   1  21
ATOM     21  N   UNL     1      -0.178  10.534  19.790  0.00  0.00    +0.000 N 
ATOM     22  H   UNL     1      -0.862  10.148  19.144  0.00  0.00    +0.000 HD
BRANCH  21  23
ATOM     23  C   UNL     1       0.433  11.772  19.473  0.00  0.00    +0.000 A 
ATOM     24  C   UNL     1       1.507  11.839  18.585  0.00  0.00    +0.000 A 
ATOM     25  C   UNL     1       2.176  13.049  18.347  0.00  0.00    +0.000 A 
ATOM     26  C   UNL     1       1.688  14.230  18.914  0.00  0.00    +0.000 A 
ATOM     27  C   UNL     1       0.607  14.129  19.805  0.00  0.00    +0.000 A 
ATOM     28  C   UNL     1      -0.011  12.920  20.095  0.00  0.00    +0.000 A 
BRANCH  26  29
ATOM     29  C   UNL     1       2.262  15.575  18.508  0.00  0.00    +0.000 C 
BRANCH  29  30
ATOM     30  C   UNL     1       3.730  15.806  18.979  0.00  0.00    +0.000 C 
ATOM     31  C   UNL     1       3.946  15.247  20.406  0.00  0.00    +0.000 C 
ATOM     32  C   UNL     1       4.724  15.281  17.916  0.00  0.00    +0.000 C 
BRANCH  30  33
ATOM     33  N   UNL     1       4.016  17.256  19.089  0.00  0.00    +0.000 NA
ATOM     34  H   UNL     1       4.979  17.409  19.391  0.00  0.00    +0.000 HD
ATOM     35  H   UNL     1       3.413  17.690  19.789  0.00  0.00    +0.000 HD
ENDBRANCH  30  33
ENDBRANCH  29  30
ENDBRANCH  26  29
ENDBRANCH  21  23
ENDBRANCH   1  21
TORSDOF 11
ENDMDL
MODEL 7
REMARK VINA RESULT:      -7.0      2.633      3.937
REMARK  Name = 
REMARK  14 active torsions:
REMARK  status: ('A' for Active; 'I' for Inactive)
REMARK    1  A    between atoms: C_1  and  C_2
REMARK    2  A    between atoms: C_2  and  C_3
REMARK    3  A    between atoms: C_3  and  C_4
REMARK    4  A    between atoms: C_4  and  C_5
REMARK    5  A    between atoms: C_5  and  N_6
REMARK    6  A    between atoms: N_9  and  C_10
REMARK    7  A    between atoms: C_13  and  S_14
REMARK    8  A    between atoms: S_14  and  N_17
REMARK    9  A    between atoms: N_17  and  C_18
REMARK   10  A    between atoms: C_21  and  C_22
REMARK   11  A    between atoms: C_22  and  C_23
REMARK   12  A    between atoms: C_23  and  C_24
REMARK   13  A    between atoms: C_23  and  C_25
REMARK   14  A    between atoms: C_23  and  N_26
REMARK                            x       y       z     vdW  Elec       q    Type
REMARK                         _______ _______ _______ _____ _____    ______ ____
ROOT
ATOM      1  S   UNL     1       0.749   9.183  21.430  0.00  0.00    +0.000 S 
ATOM      2  O   UNL     1      -0.605   8.730  21.626  0.00  0.00    +0.000 OA
ATOM      3  O   UNL     1       1.648   9.369  22.566  0.00  0.00    +0.000 OA
ENDROOT
BRANCH   1   7
ATOM      4  C   UNL     1       2.695   6.198  18.507  0.00  0.00    +0.000 A 
ATOM      5  C   UNL     1       2.474   7.537  18.152  0.00  0.00    +0.000 A 
ATOM      6  C   UNL     1       1.968   8.457  19.077  0.00  0.00    +0.000 A 
ATOM      7  C   UNL     1       1.566   8.028  20.342  0.00  0.00    +0.000 A 
ATOM      8  C   UNL     1       1.795   6.707  20.727  0.00  0.00    +0.000 A 
ATOM      9  C   UNL     1       2.339   5.801  19.798  0.00  0.00    +0.000 A 
BRANCH   4  13
ATOM     10  N   UNL     1       5.017   4.239  16.445  0.00  0.00    +0.000 N 
ATOM     11  C   UNL     1       4.599   5.248  17.273  0.00  0.00    +0.000 C 
ATOM     12  O   UNL     1       5.425   6.089  17.690  0.00  0.00    +0.000 OA
ATOM     13  N   UNL     1       3.271   5.251  17.603  0.00  0.00    +0.000 N 
ATOM     14  H   UNL     1       4.372   3.533  16.126  0.00  0.00    +0.000 HD
ATOM     15  H   UNL     1       2.689   4.471  17.315  0.00  0.00    +0.000 HD
BRANCH  10  16
ATOM     16  C   UNL     1       6.421   4.132  16.050  0.00  0.00    +0.000 C 
BRANCH  16  17
ATOM     17  C   UNL     1       6.685   4.501  14.584  0.00  0.00    +0.000 C 
BRANCH  17  18
ATOM     18  C   UNL     1       5.476   4.212  13.693  0.00  0.00    +0.000 C 
BRANCH  18  20
ATOM     19  C   UNL     1       4.658   3.114  11.586  0.00  0.00    +0.000 C 
ATOM     20  C   UNL     1       5.867   3.393  12.465  0.00  0.00    +0.000 C 
ENDBRANCH  18  20
ENDBRANCH  17  18
ENDBRANCH  16  17
ENDBRANCH  10  16
ENDBRANCH   4  13
ENDBRANCH   1   7
BRANCH   1  21
ATOM     21  N   UNL     1       0.662  10.638  20.558  0.00  0.00    +0.000 N 
ATOM     22  H   UNL     1       1.430  11.302  20.621  0.00  0.00    +0.000 HD
BRANCH  21  23
ATOM     23  C   UNL     1      -0.584  11.087  20.055  0.00  0.00    +0.000 A 
ATOM     24  C   UNL     1      -1.432  11.880  20.830  0.00  0.00    +0.000 A 
ATOM     25  C   UNL     1      -2.706  12.241  20.371  0.00  0.00    +0.000 A 
ATOM     26  C   UNL     1      -3.092  11.904  19.070  0.00  0.00    +0.000 A 
ATOM     27  C   UNL     1      -2.218  11.105  18.316  0.00  0.00    +0.000 A 
ATOM     28  C   UNL     1      -0.984  10.688  18.797  0.00  0.00    +0.000 A 
BRANCH  26  29
ATOM     29  C   UNL     1      -4.374  12.461  18.478  0.00  0.00    +0.000 C 
BRANCH  29  30
ATOM     30  C   UNL     1      -5.327  11.373  17.894  0.00  0.00    +0.000 C 
ATOM     31  C   UNL     1      -5.054   9.995  18.542  0.00  0.00    +0.000 C 
ATOM     32  C   UNL     1      -6.796  11.851  17.971  0.00  0.00    +0.000 C 
BRANCH  30  33
ATOM     33  N   UNL     1      -5.063  11.176  16.449  0.00  0.00    +0.000 NA
ATOM     34  H   UNL     1      -5.939  11.123  15.929  0.00  0.00    +0.000 HD
ATOM     35  H   UNL     1      -4.570  10.296  16.290  0.00  0.00    +0.000 HD
ENDBRANCH  30  33
ENDBRANCH  29  30
ENDBRANCH  26  29
ENDBRANCH  21  23
ENDBRANCH   1  21
TORSDOF 11
ENDMDL
MODEL 8
REMARK VINA RESULT:      -6.9      1.011      1.598
REMARK  Name = 
REMARK  14 active torsions:
REMARK  status: ('A' for Active; 'I' for Inactive)
REMARK    1  A    between atoms: C_1  and  C_2
REMARK    2  A    between atoms: C_2  and  C_3
REMARK    3  A    between atoms: C_3  and  C_4
REMARK    4  A    between atoms: C_4  and  C_5
REMARK    5  A    between atoms: C_5  and  N_6
REMARK    6  A    between atoms: N_9  and  C_10
REMARK    7  A    between atoms: C_13  and  S_14
REMARK    8  A    between atoms: S_14  and  N_17
REMARK    9  A    between atoms: N_17  and  C_18
REMARK   10  A    between atoms: C_21  and  C_22
REMARK   11  A    between atoms: C_22  and  C_23
REMARK   12  A    between atoms: C_23  and  C_24
REMARK   13  A    between atoms: C_23  and  C_25
REMARK   14  A    between atoms: C_23  and  N_26
REMARK                            x       y       z     vdW  Elec       q    Type
REMARK                         _______ _______ _______ _____ _____    ______ ____
ROOT
ATOM      1  S   UNL     1       1.920   4.902  20.683  0.00  0.00    +0.000 S 
ATOM      2  O   UNL     1       0.612   4.907  20.077  0.00  0.00    +0.000 OA
ATOM      3  O   UNL     1       2.270   3.915  21.701  0.00  0.00    +0.000 OA
ENDROOT
BRANCH   1   7
ATOM      4  C   UNL     1       5.038   4.225  17.357  0.00  0.00    +0.000 A 
ATOM      5  C   UNL     1       3.696   3.853  17.194  0.00  0.00    +0.000 A 
ATOM      6  C   UNL     1       2.739   4.145  18.172  0.00  0.00    +0.000 A 
ATOM      7  C   UNL     1       3.129   4.716  19.383  0.00  0.00    +0.000 A 
ATOM      8  C   UNL     1       4.453   5.117  19.562  0.00  0.00    +0.000 A 
ATOM      9  C   UNL     1       5.398   4.849  18.555  0.00  0.00    +0.000 A 
BRANCH   4  13
ATOM     10  N   UNL     1       7.345   4.583  14.523  0.00  0.00    +0.000 N 
ATOM     11  C   UNL     1       6.331   4.917  15.382  0.00  0.00    +0.000 C 
ATOM     12  O   UNL     1       5.755   6.021  15.261  0.00  0.00    +0.000 OA
ATOM     13  N   UNL     1       6.025   3.997  16.348  0.00  0.00    +0.000 N 
ATOM     14  H   UNL     1       7.842   3.712  14.626  0.00  0.00    +0.000 HD
ATOM     15  H   UNL     1       6.612   3.176  16.450  0.00  0.00    +0.000 HD
BRANCH  10  16
ATOM     16  C   UNL     1       7.765   5.507  13.469  0.00  0.00    +0.000 C 
BRANCH  16  17
ATOM     17  C   UNL     1       7.843   4.867  12.076  0.00  0.00    +0.000 C 
BRANCH  17  18
ATOM     18  C   UNL     1       6.638   3.970  11.789  0.00  0.00    +0.000 C 
BRANCH  18  20
ATOM     19  C   UNL     1       5.846   1.625  11.355  0.00  0.00    +0.000 C 
ATOM     20  C   UNL     1       7.053   2.509  11.627  0.00  0.00    +0.000 C 
ENDBRANCH  18  20
ENDBRANCH  17  18
ENDBRANCH  16  17
ENDBRANCH  10  16
ENDBRANCH   4  13
ENDBRANCH   1   7
BRANCH   1  21
ATOM     21  N   UNL     1       2.176   6.457  21.318  0.00  0.00    +0.000 N 
ATOM     22  H   UNL     1       2.495   6.555  22.279  0.00  0.00    +0.000 HD
BRANCH  21  23
ATOM     23  C   UNL     1       1.620   7.586  20.669  0.00  0.00    +0.000 A 
ATOM     24  C   UNL     1       0.624   8.350  21.278  0.00  0.00    +0.000 A 
ATOM     25  C   UNL     1       0.003   9.406  20.596  0.00  0.00    +0.000 A 
ATOM     26  C   UNL     1       0.468   9.781  19.332  0.00  0.00    +0.000 A 
ATOM     27  C   UNL     1       1.471   8.992  18.746  0.00  0.00    +0.000 A 
ATOM     28  C   UNL     1       2.038   7.901  19.393  0.00  0.00    +0.000 A 
BRANCH  26  29
ATOM     29  C   UNL     1      -0.042  11.045  18.667  0.00  0.00    +0.000 C 
BRANCH  29  30
ATOM     30  C   UNL     1       0.899  12.277  18.841  0.00  0.00    +0.000 C 
ATOM     31  C   UNL     1       0.157  13.590  18.493  0.00  0.00    +0.000 C 
ATOM     32  C   UNL     1       1.561  12.252  20.238  0.00  0.00    +0.000 C 
BRANCH  30  33
ATOM     33  N   UNL     1       2.025  12.207  17.881  0.00  0.00    +0.000 NA
ATOM     34  H   UNL     1       2.852  11.812  18.329  0.00  0.00    +0.000 HD
ATOM     35  H   UNL     1       2.281  13.141  17.558  0.00  0.00    +0.000 HD
ENDBRANCH  30  33
ENDBRANCH  29  30
ENDBRANCH  26  29
ENDBRANCH  21  23
ENDBRANCH   1  21
TORSDOF 11
ENDMDL
MODEL 9
REMARK VINA RESULT:      -6.8      0.883      1.508
REMARK  Name = 
REMARK  14 active torsions:
REMARK  status: ('A' for Active; 'I' for Inactive)
REMARK    1  A    between atoms: C_1  and  C_2
REMARK    2  A    between atoms: C_2  and  C_3
REMARK    3  A    between atoms: C_3  and  C_4
REMARK    4  A    between atoms: C_4  and  C_5
REMARK    5  A    between atoms: C_5  and  N_6
REMARK    6  A    between atoms: N_9  and  C_10
REMARK    7  A    between atoms: C_13  and  S_14
REMARK    8  A    between atoms: S_14  and  N_17
REMARK    9  A    between atoms: N_17  and  C_18
REMARK   10  A    between atoms: C_21  and  C_22
REMARK   11  A    between atoms: C_22  and  C_23
REMARK   12  A    between atoms: C_23  and  C_24
REMARK   13  A    between atoms: C_23  and  C_25
REMARK   14  A    between atoms: C_23  and  N_26
REMARK                            x       y       z     vdW  Elec       q    Type
REMARK                         _______ _______ _______ _____ _____    ______ ____
ROOT
ATOM      1  S   UNL     1       1.837   4.863  20.752  0.00  0.00    +0.000 S 
ATOM      2  O   UNL     1       0.476   4.982  20.294  0.00  0.00    +0.000 OA
ATOM      3  O   UNL     1       2.193   3.914  21.803  0.00  0.00    +0.000 OA
ENDROOT
BRANCH   1   7
ATOM      4  C   UNL     1       4.435   3.598  17.162  0.00  0.00    +0.000 A 
ATOM      5  C   UNL     1       3.037   3.489  17.133  0.00  0.00    +0.000 A 
ATOM      6  C   UNL     1       2.252   3.961  18.190  0.00  0.00    +0.000 A 
ATOM      7  C   UNL     1       2.858   4.448  19.348  0.00  0.00    +0.000 A 
ATOM      8  C   UNL     1       4.245   4.587  19.394  0.00  0.00    +0.000 A 
ATOM      9  C   UNL     1       5.021   4.142  18.308  0.00  0.00    +0.000 A 
BRANCH   4  13
ATOM     10  N   UNL     1       6.494   3.505  14.123  0.00  0.00    +0.000 N 
ATOM     11  C   UNL     1       5.650   4.030  15.068  0.00  0.00    +0.000 C 
ATOM     12  O   UNL     1       5.297   5.227  14.986  0.00  0.00    +0.000 OA
ATOM     13  N   UNL     1       5.259   3.184  16.069  0.00  0.00    +0.000 N 
ATOM     14  H   UNL     1       6.815   2.552  14.191  0.00  0.00    +0.000 HD
ATOM     15  H   UNL     1       5.678   2.262  16.127  0.00  0.00    +0.000 HD
BRANCH  10  16
ATOM     16  C   UNL     1       6.989   4.333  13.023  0.00  0.00    +0.000 C 
BRANCH  16  17
ATOM     17  C   UNL     1       6.941   3.642  11.653  0.00  0.00    +0.000 C 
BRANCH  17  18
ATOM     18  C   UNL     1       6.077   2.379  11.679  0.00  0.00    +0.000 C 
BRANCH  18  20
ATOM     19  C   UNL     1       6.194  -0.111  11.363  0.00  0.00    +0.000 C 
ATOM     20  C   UNL     1       6.733   1.236  10.907  0.00  0.00    +0.000 C 
ENDBRANCH  18  20
ENDBRANCH  17  18
ENDBRANCH  16  17
ENDBRANCH  10  16
ENDBRANCH   4  13
ENDBRANCH   1   7
BRANCH   1  21
ATOM     21  N   UNL     1       2.335   6.416  21.227  0.00  0.00    +0.000 N 
ATOM     22  H   UNL     1       3.078   6.511  21.916  0.00  0.00    +0.000 HD
BRANCH  21  23
ATOM     23  C   UNL     1       1.509   7.536  20.961  0.00  0.00    +0.000 A 
ATOM     24  C   UNL     1       0.451   7.870  21.808  0.00  0.00    +0.000 A 
ATOM     25  C   UNL     1      -0.427   8.916  21.492  0.00  0.00    +0.000 A 
ATOM     26  C   UNL     1      -0.173   9.717  20.375  0.00  0.00    +0.000 A 
ATOM     27  C   UNL     1       0.897   9.354  19.541  0.00  0.00    +0.000 A 
ATOM     28  C   UNL     1       1.726   8.274  19.817  0.00  0.00    +0.000 A 
BRANCH  26  29
ATOM     29  C   UNL     1      -0.982  10.977  20.130  0.00  0.00    +0.000 C 
BRANCH  29  30
ATOM     30  C   UNL     1      -1.003  11.438  18.641  0.00  0.00    +0.000 C 
ATOM     31  C   UNL     1       0.304  12.182  18.275  0.00  0.00    +0.000 C 
ATOM     32  C   UNL     1      -1.357  10.249  17.717  0.00  0.00    +0.000 C 
BRANCH  30  33
ATOM     33  N   UNL     1      -2.082  12.430  18.421  0.00  0.00    +0.000 NA
ATOM     34  H   UNL     1      -2.335  12.469  17.433  0.00  0.00    +0.000 HD
ATOM     35  H   UNL     1      -1.770  13.365  18.685  0.00  0.00    +0.000 HD
ENDBRANCH  30  33
ENDBRANCH  29  30
ENDBRANCH  26  29
ENDBRANCH  21  23
ENDBRANCH   1  21
TORSDOF 11
ENDMDL
