MODEL 1
REMARK VINA RESULT:      -5.4      0.000      0.000
REMARK  Name = 
REMARK  7 active torsions:
REMARK  status: ('A' for Active; 'I' for Inactive)
REMARK    1  A    between atoms: C_1  and  C_2
REMARK    2  A    between atoms: C_2  and  C_3
REMARK    3  A    between atoms: C_3  and  C_4
REMARK    4  A    between atoms: CA_6  and  C_7
REMARK    5  A    between atoms: C_7  and  O_8
REMARK    6  A    between atoms: C_9  and  O_10
REMARK    7  A    between atoms: C_11  and  O_12
REMARK                            x       y       z     vdW  Elec       q    Type
REMARK                         _______ _______ _______ _____ _____    ______ ____
ROOT
ATOM      1  C   UNL     1       4.096   2.314  19.906  0.00  0.00    +0.000 C 
ATOM      2  N   UNL     1       5.032   3.339  19.398  0.00  0.00    +0.000 NA
ATOM      3  CA  UNL     1       4.339   3.969  18.253  0.00  0.00    +0.000 C 
ATOM      4  C   UNL     1       3.585   2.822  17.562  0.00  0.00    +0.000 C 
ATOM      5  C   UNL     1       3.428   1.738  18.643  0.00  0.00    +0.000 C 
ATOM      6  H   UNL     1       5.880   2.894  19.035  0.00  0.00    +0.000 HD
ENDROOT
BRANCH   4   7
ATOM      7  O   UNL     1       2.323   3.277  17.072  0.00  0.00    +0.000 OA
ATOM      8  H   UNL     1       2.482   4.024  16.469  0.00  0.00    +0.000 HD
ENDBRANCH   4   7
BRANCH   5   9
ATOM      9  O   UNL     1       4.106   0.541  18.238  0.00  0.00    +0.000 OA
ATOM     10  H   UNL     1       5.063   0.718  18.264  0.00  0.00    +0.000 HD
ENDBRANCH   5   9
BRANCH   1  11
ATOM     11  C   UNL     1       3.108   2.980  20.884  0.00  0.00    +0.000 C 
BRANCH  11  13
ATOM     12  C   UNL     1       0.851   3.898  20.250  0.00  0.00    +0.000 C 
ATOM     13  C   UNL     1       1.642   2.643  20.593  0.00  0.00    +0.000 C 
ENDBRANCH  11  13
ENDBRANCH   1  11
BRANCH   3  14
ATOM     14  C   UNL     1       5.312   4.689  17.310  0.00  0.00    +0.000 C 
BRANCH  14  15
ATOM     15  O   UNL     1       6.548   3.983  17.211  0.00  0.00    +0.000 OA
ATOM     16  H   UNL     1       6.346   3.038  17.340  0.00  0.00    +0.000 HD
ENDBRANCH  14  15
ENDBRANCH   3  14
TORSDOF 6
ENDMDL
MODEL 2
REMARK VINA RESULT:      -5.3      3.269      5.187
REMARK  Name = 
REMARK  7 active torsions:
REMARK  status: ('A' for Active; 'I' for Inactive)
REMARK    1  A    between atoms: C_1  and  C_2
REMARK    2  A    between atoms: C_2  and  C_3
REMARK    3  A    between atoms: C_3  and  C_4
REMARK    4  A    between atoms: CA_6  and  C_7
REMARK    5  A    between atoms: C_7  and  O_8
REMARK    6  A    between atoms: C_9  and  O_10
REMARK    7  A    between atoms: C_11  and  O_12
REMARK                            x       y       z     vdW  Elec       q    Type
REMARK                         _______ _______ _______ _____ _____    ______ ____
ROOT
ATOM      1  C   UNL     1       5.343   5.236  16.315  0.00  0.00    +0.000 C 
ATOM      2  N   UNL     1       6.557   5.896  16.841  0.00  0.00    +0.000 NA
ATOM      3  CA  UNL     1       6.915   5.140  18.061  0.00  0.00    +0.000 C 
ATOM      4  C   UNL     1       5.573   4.771  18.712  0.00  0.00    +0.000 C 
ATOM      5  C   UNL     1       4.543   4.837  17.569  0.00  0.00    +0.000 C 
ATOM      6  H   UNL     1       6.341   6.855  17.128  0.00  0.00    +0.000 HD
ENDROOT
BRANCH   4   7
ATOM      7  O   UNL     1       5.641   3.470  19.297  0.00  0.00    +0.000 OA
ATOM      8  H   UNL     1       5.808   2.826  18.587  0.00  0.00    +0.000 HD
ENDBRANCH   4   7
BRANCH   5   9
ATOM      9  O   UNL     1       3.557   5.838  17.856  0.00  0.00    +0.000 OA
ATOM     10  H   UNL     1       2.712   5.385  18.019  0.00  0.00    +0.000 HD
ENDBRANCH   5   9
BRANCH   1  11
ATOM     11  C   UNL     1       5.763   4.040  15.438  0.00  0.00    +0.000 C 
BRANCH  11  13
ATOM     12  C   UNL     1       6.119   3.618  12.982  0.00  0.00    +0.000 C 
ATOM     13  C   UNL     1       6.545   4.449  14.185  0.00  0.00    +0.000 C 
ENDBRANCH  11  13
ENDBRANCH   1  11
BRANCH   3  14
ATOM     14  C   UNL     1       7.824   5.946  18.999  0.00  0.00    +0.000 C 
BRANCH  14  15
ATOM     15  O   UNL     1       7.776   5.429  20.328  0.00  0.00    +0.000 OA
ATOM     16  H   UNL     1       7.103   5.945  20.809  0.00  0.00    +0.000 HD
ENDBRANCH  14  15
ENDBRANCH   3  14
TORSDOF 6
ENDMDL
MODEL 3
REMARK VINA RESULT:      -5.3      3.858      5.531
REMARK  Name = 
REMARK  7 active torsions:
REMARK  status: ('A' for Active; 'I' for Inactive)
REMARK    1  A    between atoms: C_1  and  C_2
REMARK    2  A    between atoms: C_2  and  C_3
REMARK    3  A    between atoms: C_3  and  C_4
REMARK    4  A    between atoms: CA_6  and  C_7
REMARK    5  A    between atoms: C_7  and  O_8
REMARK    6  A    between atoms: C_9  and  O_10
REMARK    7  A    between atoms: C_11  and  O_12
REMARK                            x       y       z     vdW  Elec       q    Type
REMARK                         _______ _______ _______ _____ _____    ______ ____
ROOT
ATOM      1  C   UNL     1       5.296   5.457  16.037  0.00  0.00    +0.000 C 
ATOM      2  N   UNL     1       5.896   6.704  16.557  0.00  0.00    +0.000 NA
ATOM      3  CA  UNL     1       7.241   6.319  17.039  0.00  0.00    +0.000 C 
ATOM      4  C   UNL     1       7.061   4.922  17.654  0.00  0.00    +0.000 C 
ATOM      5  C   UNL     1       5.787   4.359  17.000  0.00  0.00    +0.000 C 
ATOM      6  H   UNL     1       5.367   7.041  17.366  0.00  0.00    +0.000 HD
ENDROOT
BRANCH   4   7
ATOM      7  O   UNL     1       8.204   4.108  17.387  0.00  0.00    +0.000 OA
ATOM      8  H   UNL     1       7.897   3.202  17.210  0.00  0.00    +0.000 HD
ENDBRANCH   4   7
BRANCH   5   9
ATOM      9  O   UNL     1       4.791   4.111  18.002  0.00  0.00    +0.000 OA
ATOM     10  H   UNL     1       5.237   3.723  18.775  0.00  0.00    +0.000 HD
ENDBRANCH   5   9
BRANCH   1  11
ATOM     11  C   UNL     1       5.749   5.254  14.578  0.00  0.00    +0.000 C 
BRANCH  11  13
ATOM     12  C   UNL     1       6.032   3.562  12.736  0.00  0.00    +0.000 C 
ATOM     13  C   UNL     1       6.079   3.796  14.240  0.00  0.00    +0.000 C 
ENDBRANCH  11  13
ENDBRANCH   1  11
BRANCH   3  14
ATOM     14  C   UNL     1       7.814   7.334  18.038  0.00  0.00    +0.000 C 
BRANCH  14  15
ATOM     15  O   UNL     1       8.387   6.674  19.166  0.00  0.00    +0.000 OA
ATOM     16  H   UNL     1       8.141   5.734  19.100  0.00  0.00    +0.000 HD
ENDBRANCH  14  15
ENDBRANCH   3  14
TORSDOF 6
ENDMDL
MODEL 4
REMARK VINA RESULT:      -5.2      2.317      3.146
REMARK  Name = 
REMARK  7 active torsions:
REMARK  status: ('A' for Active; 'I' for Inactive)
REMARK    1  A    between atoms: C_1  and  C_2
REMARK    2  A    between atoms: C_2  and  C_3
REMARK    3  A    between atoms: C_3  and  C_4
REMARK    4  A    between atoms: CA_6  and  C_7
REMARK    5  A    between atoms: C_7  and  O_8
REMARK    6  A    between atoms: C_9  and  O_10
REMARK    7  A    between atoms: C_11  and  O_12
REMARK                            x       y       z     vdW  Elec       q    Type
REMARK                         _______ _______ _______ _____ _____    ______ ____
ROOT
ATOM      1  C   UNL     1       3.134   5.038  17.871  0.00  0.00    +0.000 C 
ATOM      2  N   UNL     1       4.297   5.218  16.978  0.00  0.00    +0.000 NA
ATOM      3  CA  UNL     1       5.317   4.263  17.465  0.00  0.00    +0.000 C 
ATOM      4  C   UNL     1       5.175   4.274  18.995  0.00  0.00    +0.000 C 
ATOM      5  C   UNL     1       3.747   4.783  19.261  0.00  0.00    +0.000 C 
ATOM      6  H   UNL     1       4.684   6.160  17.087  0.00  0.00    +0.000 HD
ENDROOT
BRANCH   4   7
ATOM      7  O   UNL     1       5.384   2.965  19.526  0.00  0.00    +0.000 OA
ATOM      8  H   UNL     1       4.535   2.637  19.870  0.00  0.00    +0.000 HD
ENDBRANCH   4   7
BRANCH   5   9
ATOM      9  O   UNL     1       3.795   6.010  20.003  0.00  0.00    +0.000 OA
ATOM     10  H   UNL     1       3.096   6.593  19.660  0.00  0.00    +0.000 HD
ENDBRANCH   5   9
BRANCH   1  11
ATOM     11  C   UNL     1       2.276   3.870  17.347  0.00  0.00    +0.000 C 
BRANCH  11  13
ATOM     12  C   UNL     1       1.437   2.040  18.858  0.00  0.00    +0.000 C 
ATOM     13  C   UNL     1       1.172   3.439  18.319  0.00  0.00    +0.000 C 
ENDBRANCH  11  13
ENDBRANCH   1  11
BRANCH   3  14
ATOM     14  C   UNL     1       6.731   4.635  17.001  0.00  0.00    +0.000 C 
BRANCH  14  15
ATOM     15  O   UNL     1       7.720   4.029  17.833  0.00  0.00    +0.000 OA
ATOM     16  H   UNL     1       8.182   4.751  18.296  0.00  0.00    +0.000 HD
ENDBRANCH  14  15
ENDBRANCH   3  14
TORSDOF 6
ENDMDL
MODEL 5
REMARK VINA RESULT:      -5.2      4.119      5.893
REMARK  Name = 
REMARK  7 active torsions:
REMARK  status: ('A' for Active; 'I' for Inactive)
REMARK    1  A    between atoms: C_1  and  C_2
REMARK    2  A    between atoms: C_2  and  C_3
REMARK    3  A    between atoms: C_3  and  C_4
REMARK    4  A    between atoms: CA_6  and  C_7
REMARK    5  A    between atoms: C_7  and  O_8
REMARK    6  A    between atoms: C_9  and  O_10
REMARK    7  A    between atoms: C_11  and  O_12
REMARK                            x       y       z     vdW  Elec       q    Type
REMARK                         _______ _______ _______ _____ _____    ______ ____
ROOT
ATOM      1  C   UNL     1       6.460   5.002  14.578  0.00  0.00    +0.000 C 
ATOM      2  N   UNL     1       7.542   4.890  15.580  0.00  0.00    +0.000 NA
ATOM      3  CA  UNL     1       6.872   4.475  16.833  0.00  0.00    +0.000 C 
ATOM      4  C   UNL     1       5.532   5.225  16.837  0.00  0.00    +0.000 C 
ATOM      5  C   UNL     1       5.263   5.572  15.362  0.00  0.00    +0.000 C 
ATOM      6  H   UNL     1       7.964   5.807  15.748  0.00  0.00    +0.000 HD
ENDROOT
BRANCH   4   7
ATOM      7  O   UNL     1       4.502   4.405  17.390  0.00  0.00    +0.000 OA
ATOM      8  H   UNL     1       4.139   4.858  18.172  0.00  0.00    +0.000 HD
ENDBRANCH   4   7
BRANCH   5   9
ATOM      9  O   UNL     1       5.208   6.996  15.196  0.00  0.00    +0.000 OA
ATOM     10  H   UNL     1       4.781   7.371  15.986  0.00  0.00    +0.000 HD
ENDBRANCH   5   9
BRANCH   1  11
ATOM     11  C   UNL     1       6.199   3.612  13.966  0.00  0.00    +0.000 C 
BRANCH  11  13
ATOM     12  C   UNL     1       4.938   3.229  11.821  0.00  0.00    +0.000 C 
ATOM     13  C   UNL     1       6.282   3.595  12.436  0.00  0.00    +0.000 C 
ENDBRANCH  11  13
ENDBRANCH   1  11
BRANCH   3  14
ATOM     14  C   UNL     1       7.722   4.778  18.074  0.00  0.00    +0.000 C 
BRANCH  14  15
ATOM     15  O   UNL     1       6.906   4.884  19.240  0.00  0.00    +0.000 OA
ATOM     16  H   UNL     1       6.639   5.818  19.315  0.00  0.00    +0.000 HD
ENDBRANCH  14  15
ENDBRANCH   3  14
TORSDOF 6
ENDMDL
MODEL 6
REMARK VINA RESULT:      -5.2      2.082      4.183
REMARK  Name = 
REMARK  7 active torsions:
REMARK  status: ('A' for Active; 'I' for Inactive)
REMARK    1  A    between atoms: C_1  and  C_2
REMARK    2  A    between atoms: C_2  and  C_3
REMARK    3  A    between atoms: C_3  and  C_4
REMARK    4  A    between atoms: CA_6  and  C_7
REMARK    5  A    between atoms: C_7  and  O_8
REMARK    6  A    between atoms: C_9  and  O_10
REMARK    7  A    between atoms: C_11  and  O_12
REMARK                            x       y       z     vdW  Elec       q    Type
REMARK                         _______ _______ _______ _____ _____    ______ ____
ROOT
ATOM      1  C   UNL     1       2.907   4.012  17.678  0.00  0.00    +0.000 C 
ATOM      2  N   UNL     1       2.269   4.471  18.929  0.00  0.00    +0.000 NA
ATOM      3  CA  UNL     1       3.106   3.922  20.019  0.00  0.00    +0.000 C 
ATOM      4  C   UNL     1       3.540   2.532  19.528  0.00  0.00    +0.000 C 
ATOM      5  C   UNL     1       3.408   2.590  17.995  0.00  0.00    +0.000 C 
ATOM      6  H   UNL     1       1.337   4.059  19.023  0.00  0.00    +0.000 HD
ENDROOT
BRANCH   4   7
ATOM      7  O   UNL     1       4.879   2.252  19.939  0.00  0.00    +0.000 OA
ATOM      8  H   UNL     1       5.163   1.428  19.508  0.00  0.00    +0.000 HD
ENDBRANCH   4   7
BRANCH   5   9
ATOM      9  O   UNL     1       2.444   1.625  17.551  0.00  0.00    +0.000 OA
ATOM     10  H   UNL     1       2.615   1.446  16.610  0.00  0.00    +0.000 HD
ENDBRANCH   5   9
BRANCH   1  11
ATOM     11  C   UNL     1       4.030   4.997  17.297  0.00  0.00    +0.000 C 
BRANCH  11  13
ATOM     12  C   UNL     1       5.453   4.630  15.253  0.00  0.00    +0.000 C 
ATOM     13  C   UNL     1       5.277   4.309  16.731  0.00  0.00    +0.000 C 
ENDBRANCH  11  13
ENDBRANCH   1  11
BRANCH   3  14
ATOM     14  C   UNL     1       2.357   3.868  21.357  0.00  0.00    +0.000 C 
BRANCH  14  15
ATOM     15  O   UNL     1       2.638   2.654  22.053  0.00  0.00    +0.000 OA
ATOM     16  H   UNL     1       1.886   2.488  22.649  0.00  0.00    +0.000 HD
ENDBRANCH  14  15
ENDBRANCH   3  14
TORSDOF 6
ENDMDL
MODEL 7
REMARK VINA RESULT:      -5.2      2.436      3.494
REMARK  Name = 
REMARK  7 active torsions:
REMARK  status: ('A' for Active; 'I' for Inactive)
REMARK    1  A    between atoms: C_1  and  C_2
REMARK    2  A    between atoms: C_2  and  C_3
REMARK    3  A    between atoms: C_3  and  C_4
REMARK    4  A    between atoms: CA_6  and  C_7
REMARK    5  A    between atoms: C_7  and  O_8
REMARK    6  A    between atoms: C_9  and  O_10
REMARK    7  A    between atoms: C_11  and  O_12
REMARK                            x       y       z     vdW  Elec       q    Type
REMARK                         _______ _______ _______ _____ _____    ______ ____
ROOT
ATOM      1  C   UNL     1       4.854   4.085  17.987  0.00  0.00    +0.000 C 
ATOM      2  N   UNL     1       5.898   4.369  18.994  0.00  0.00    +0.000 NA
ATOM      3  CA  UNL     1       6.543   5.622  18.546  0.00  0.00    +0.000 C 
ATOM      4  C   UNL     1       6.584   5.526  17.013  0.00  0.00    +0.000 C 
ATOM      5  C   UNL     1       5.479   4.517  16.647  0.00  0.00    +0.000 C 
ATOM      6  H   UNL     1       6.612   3.635  18.980  0.00  0.00    +0.000 HD
ENDROOT
BRANCH   4   7
ATOM      7  O   UNL     1       6.355   6.806  16.425  0.00  0.00    +0.000 OA
ATOM      8  H   UNL     1       5.636   6.719  15.774  0.00  0.00    +0.000 HD
ENDBRANCH   4   7
BRANCH   5   9
ATOM      9  O   UNL     1       6.054   3.380  15.990  0.00  0.00    +0.000 OA
ATOM     10  H   UNL     1       6.488   3.693  15.177  0.00  0.00    +0.000 HD
ENDBRANCH   5   9
BRANCH   1  11
ATOM     11  C   UNL     1       3.576   4.863  18.357  0.00  0.00    +0.000 C 
BRANCH  11  13
ATOM     12  C   UNL     1       1.351   3.752  18.746  0.00  0.00    +0.000 C 
ATOM     13  C   UNL     1       2.310   4.303  17.700  0.00  0.00    +0.000 C 
ENDBRANCH  11  13
ENDBRANCH   1  11
BRANCH   3  14
ATOM     14  C   UNL     1       7.936   5.812  19.162  0.00  0.00    +0.000 C 
BRANCH  14  15
ATOM     15  O   UNL     1       7.942   5.434  20.539  0.00  0.00    +0.000 OA
ATOM     16  H   UNL     1       8.831   5.637  20.884  0.00  0.00    +0.000 HD
ENDBRANCH  14  15
ENDBRANCH   3  14
TORSDOF 6
ENDMDL
MODEL 8
REMARK VINA RESULT:      -5.1      3.020      5.457
REMARK  Name = 
REMARK  7 active torsions:
REMARK  status: ('A' for Active; 'I' for Inactive)
REMARK    1  A    between atoms: C_1  and  C_2
REMARK    2  A    between atoms: C_2  and  C_3
REMARK    3  A    between atoms: C_3  and  C_4
REMARK    4  A    between atoms: CA_6  and  C_7
REMARK    5  A    between atoms: C_7  and  O_8
REMARK    6  A    between atoms: C_9  and  O_10
REMARK    7  A    between atoms: C_11  and  O_12
REMARK                            x       y       z     vdW  Elec       q    Type
REMARK                         _______ _______ _______ _____ _____    ______ ____
ROOT
ATOM      1  C   UNL     1       6.128   3.798  15.866  0.00  0.00    +0.000 C 
ATOM      2  N   UNL     1       5.000   3.538  16.786  0.00  0.00    +0.000 NA
ATOM      3  CA  UNL     1       4.709   4.839  17.427  0.00  0.00    +0.000 C 
ATOM      4  C   UNL     1       6.082   5.499  17.633  0.00  0.00    +0.000 C 
ATOM      5  C   UNL     1       7.011   4.815  16.613  0.00  0.00    +0.000 C 
ATOM      6  H   UNL     1       5.289   2.891  17.525  0.00  0.00    +0.000 HD
ENDROOT
BRANCH   4   7
ATOM      7  O   UNL     1       5.997   6.908  17.419  0.00  0.00    +0.000 OA
ATOM      8  H   UNL     1       6.756   7.180  16.875  0.00  0.00    +0.000 HD
ENDBRANCH   4   7
BRANCH   5   9
ATOM      9  O   UNL     1       8.068   4.130  17.297  0.00  0.00    +0.000 OA
ATOM     10  H   UNL     1       8.210   3.278  16.850  0.00  0.00    +0.000 HD
ENDBRANCH   5   9
BRANCH   1  11
ATOM     11  C   UNL     1       5.571   4.322  14.527  0.00  0.00    +0.000 C 
BRANCH  11  13
ATOM     12  C   UNL     1       5.563   3.276  12.237  0.00  0.00    +0.000 C 
ATOM     13  C   UNL     1       6.421   3.922  13.317  0.00  0.00    +0.000 C 
ENDBRANCH  11  13
ENDBRANCH   1  11
BRANCH   3  14
ATOM     14  C   UNL     1       3.928   4.680  18.738  0.00  0.00    +0.000 C 
BRANCH  14  15
ATOM     15  O   UNL     1       4.374   5.618  19.717  0.00  0.00    +0.000 OA
ATOM     16  H   UNL     1       4.439   5.137  20.561  0.00  0.00    +0.000 HD
ENDBRANCH  14  15
ENDBRANCH   3  14
TORSDOF 6
ENDMDL
MODEL 9
REMARK VINA RESULT:      -5.1      2.109      2.663
REMARK  Name = 
REMARK  7 active torsions:
REMARK  status: ('A' for Active; 'I' for Inactive)
REMARK    1  A    between atoms: C_1  and  C_2
REMARK    2  A    between atoms: C_2  and  C_3
REMARK    3  A    between atoms: C_3  and  C_4
REMARK    4  A    between atoms: CA_6  and  C_7
REMARK    5  A    between atoms: C_7  and  O_8
REMARK    6  A    between atoms: C_9  and  O_10
REMARK    7  A    between atoms: C_11  and  O_12
REMARK                            x       y       z     vdW  Elec       q    Type
REMARK                         _______ _______ _______ _____ _____    ______ ____
ROOT
ATOM      1  C   UNL     1       3.647   4.697  18.707  0.00  0.00    +0.000 C 
ATOM      2  N   UNL     1       4.370   5.960  18.451  0.00  0.00    +0.000 NA
ATOM      3  CA  UNL     1       5.204   5.697  17.257  0.00  0.00    +0.000 C 
ATOM      4  C   UNL     1       5.680   4.245  17.413  0.00  0.00    +0.000 C 
ATOM      5  C   UNL     1       4.662   3.591  18.365  0.00  0.00    +0.000 C 
ATOM      6  H   UNL     1       5.005   6.168  19.227  0.00  0.00    +0.000 HD
ENDROOT
BRANCH   4   7
ATOM      7  O   UNL     1       5.722   3.593  16.144  0.00  0.00    +0.000 OA
ATOM      8  H   UNL     1       5.097   4.044  15.549  0.00  0.00    +0.000 HD
ENDBRANCH   4   7
BRANCH   5   9
ATOM      9  O   UNL     1       5.322   3.150  19.559  0.00  0.00    +0.000 OA
ATOM     10  H   UNL     1       5.761   3.921  19.959  0.00  0.00    +0.000 HD
ENDBRANCH   5   9
BRANCH   1  11
ATOM     11  C   UNL     1       2.374   4.663  17.839  0.00  0.00    +0.000 C 
BRANCH  11  13
ATOM     12  C   UNL     1       1.081   3.698  19.771  0.00  0.00    +0.000 C 
ATOM     13  C   UNL     1       1.364   3.598  18.278  0.00  0.00    +0.000 C 
ENDBRANCH  11  13
ENDBRANCH   1  11
BRANCH   3  14
ATOM     14  C   UNL     1       6.367   6.690  17.130  0.00  0.00    +0.000 C 
BRANCH  14  15
ATOM     15  O   UNL     1       7.394   6.170  16.286  0.00  0.00    +0.000 OA
ATOM     16  H   UNL     1       8.143   6.792  16.335  0.00  0.00    +0.000 HD
ENDBRANCH  14  15
ENDBRANCH   3  14
TORSDOF 6
ENDMDL
