MODEL 1
REMARK VINA RESULT:      -7.6      0.000      0.000
REMARK  Name = 
REMARK  3 active torsions:
REMARK  status: ('A' for Active; 'I' for Inactive)
REMARK    1  A    between atoms: C_12  and  N_13
REMARK    2  A    between atoms: N_13  and  C_14
REMARK    3  A    between atoms: N_23  and  C_24
REMARK                            x       y       z     vdW  Elec       q    Type
REMARK                         _______ _______ _______ _____ _____    ______ ____
ROOT
ATOM      1  C   UNL     1      -2.724  13.930  22.148  0.00  0.00    +0.000 A 
ATOM      2  C   UNL     1      -1.920  12.931  22.672  0.00  0.00    +0.000 A 
ATOM      3  C   UNL     1      -1.486  11.939  21.780  0.00  0.00    +0.000 A 
ATOM      4  C   UNL     1      -0.692  10.771  21.914  0.00  0.00    +0.000 A 
ATOM      5  C   UNL     1      -0.042  10.119  22.955  0.00  0.00    +0.000 A 
ATOM      6  N   UNL     1       0.635   8.975  22.715  0.00  0.00    +0.000 NA
ATOM      7  C   UNL     1       0.753   8.539  21.445  0.00  0.00    +0.000 A 
ATOM      8  N   UNL     1       1.584   7.440  21.257  0.00  0.00    +0.000 N 
ATOM      9  C   UNL     1       2.215   7.085  20.071  0.00  0.00    +0.000 A 
ATOM     10  C   UNL     1       2.730   8.063  19.224  0.00  0.00    +0.000 A 
ATOM     11  C   UNL     1       3.321   7.698  18.020  0.00  0.00    +0.000 A 
ATOM     12  C   UNL     1       3.377   6.361  17.651  0.00  0.00    +0.000 A 
ATOM     13  C   UNL     1       2.929   5.447  18.605  0.00  0.00    +0.000 A 
ATOM     14  N   UNL     1       2.356   5.772  19.795  0.00  0.00    +0.000 NA
ATOM     15  N   UNL     1       0.155   9.106  20.378  0.00  0.00    +0.000 NA
ATOM     16  C   UNL     1      -0.578  10.193  20.661  0.00  0.00    +0.000 A 
ATOM     17  N   UNL     1      -1.345  10.918  19.781  0.00  0.00    +0.000 N 
ATOM     18  C   UNL     1      -1.880  12.019  20.442  0.00  0.00    +0.000 A 
ATOM     19  C   UNL     1      -2.686  13.062  19.987  0.00  0.00    +0.000 A 
ATOM     20  N   UNL     1      -3.102  14.010  20.856  0.00  0.00    +0.000 NA
ATOM     21  H   UNL     1       1.303   6.653  21.819  0.00  0.00    +0.000 HD
ENDROOT
BRANCH  17  22
ATOM     22  C   UNL     1      -1.644  10.617  18.396  0.00  0.00    +0.000 C 
ATOM     23  C   UNL     1      -2.899   9.778  18.168  0.00  0.00    +0.000 C 
ATOM     24  C   UNL     1      -2.985   9.724  16.643  0.00  0.00    +0.000 C 
ATOM     25  C   UNL     1      -2.362  11.033  16.146  0.00  0.00    +0.000 C 
ATOM     26  C   UNL     1      -1.837  11.754  17.391  0.00  0.00    +0.000 C 
ENDBRANCH  17  22
BRANCH  12  27
ATOM     27  N   UNL     1       3.960   6.052  16.417  0.00  0.00    +0.000 N 
ATOM     28  H   UNL     1       4.127   6.921  15.905  0.00  0.00    +0.000 HD
BRANCH  27  29
ATOM     29  C   UNL     1       5.130   5.173  16.395  0.00  0.00    +0.000 C 
ATOM     30  C   UNL     1       5.526   4.786  14.972  0.00  0.00    +0.000 C 
ATOM     31  C   UNL     1       7.026   4.615  15.067  0.00  0.00    +0.000 C 
ATOM     32  N   UNL     1       7.464   5.725  15.919  0.00  0.00    +0.000 NA
ATOM     33  C   UNL     1       6.386   5.907  16.912  0.00  0.00    +0.000 C 
ATOM     34  H   UNL     1       7.499   6.568  15.344  0.00  0.00    +0.000 HD
ENDBRANCH  27  29
ENDBRANCH  12  27
TORSDOF 3
ENDMDL
MODEL 2
REMARK VINA RESULT:      -7.0      3.246      8.761
REMARK  Name = 
REMARK  3 active torsions:
REMARK  status: ('A' for Active; 'I' for Inactive)
REMARK    1  A    between atoms: C_12  and  N_13
REMARK    2  A    between atoms: N_13  and  C_14
REMARK    3  A    between atoms: N_23  and  C_24
REMARK                            x       y       z     vdW  Elec       q    Type
REMARK                         _______ _______ _______ _____ _____    ______ ____
ROOT
ATOM      1  C   UNL     1       3.081   1.426  18.557  0.00  0.00    +0.000 A 
ATOM      2  C   UNL     1       2.289   2.265  19.323  0.00  0.00    +0.000 A 
ATOM      3  C   UNL     1       2.575   3.636  19.256  0.00  0.00    +0.000 A 
ATOM      4  C   UNL     1       2.031   4.790  19.879  0.00  0.00    +0.000 A 
ATOM      5  C   UNL     1       1.028   5.044  20.807  0.00  0.00    +0.000 A 
ATOM      6  N   UNL     1       0.780   6.312  21.200  0.00  0.00    +0.000 NA
ATOM      7  C   UNL     1       1.446   7.323  20.606  0.00  0.00    +0.000 A 
ATOM      8  N   UNL     1       1.037   8.605  20.955  0.00  0.00    +0.000 N 
ATOM      9  C   UNL     1       1.222   9.758  20.201  0.00  0.00    +0.000 A 
ATOM     10  C   UNL     1       1.110   9.719  18.813  0.00  0.00    +0.000 A 
ATOM     11  C   UNL     1       1.339  10.868  18.066  0.00  0.00    +0.000 A 
ATOM     12  C   UNL     1       1.704  12.048  18.699  0.00  0.00    +0.000 A 
ATOM     13  C   UNL     1       1.692  12.018  20.094  0.00  0.00    +0.000 A 
ATOM     14  N   UNL     1       1.462  10.913  20.854  0.00  0.00    +0.000 NA
ATOM     15  N   UNL     1       2.433   7.167  19.702  0.00  0.00    +0.000 NA
ATOM     16  C   UNL     1       2.711   5.892  19.393  0.00  0.00    +0.000 A 
ATOM     17  N   UNL     1       3.712   5.449  18.561  0.00  0.00    +0.000 N 
ATOM     18  C   UNL     1       3.618   4.066  18.432  0.00  0.00    +0.000 A 
ATOM     19  C   UNL     1       4.367   3.160  17.683  0.00  0.00    +0.000 A 
ATOM     20  N   UNL     1       4.086   1.840  17.759  0.00  0.00    +0.000 NA
ATOM     21  H   UNL     1       1.083   8.759  21.950  0.00  0.00    +0.000 HD
ENDROOT
BRANCH  17  22
ATOM     22  C   UNL     1       4.761   6.222  17.932  0.00  0.00    +0.000 C 
ATOM     23  C   UNL     1       6.180   5.885  18.385  0.00  0.00    +0.000 C 
ATOM     24  C   UNL     1       7.033   6.780  17.487  0.00  0.00    +0.000 C 
ATOM     25  C   UNL     1       6.241   6.935  16.183  0.00  0.00    +0.000 C 
ATOM     26  C   UNL     1       4.907   6.217  16.408  0.00  0.00    +0.000 C 
ENDBRANCH  17  22
BRANCH  12  27
ATOM     27  N   UNL     1       1.948  13.167  17.897  0.00  0.00    +0.000 N 
ATOM     28  H   UNL     1       1.119  13.351  17.327  0.00  0.00    +0.000 HD
BRANCH  27  29
ATOM     29  C   UNL     1       2.454  14.387  18.530  0.00  0.00    +0.000 C 
ATOM     30  C   UNL     1       3.408  15.150  17.615  0.00  0.00    +0.000 C 
ATOM     31  C   UNL     1       3.193  16.592  18.018  0.00  0.00    +0.000 C 
ATOM     32  N   UNL     1       1.742  16.703  18.205  0.00  0.00    +0.000 NA
ATOM     33  C   UNL     1       1.317  15.404  18.765  0.00  0.00    +0.000 C 
ATOM     34  H   UNL     1       1.313  16.796  17.282  0.00  0.00    +0.000 HD
ENDBRANCH  27  29
ENDBRANCH  12  27
TORSDOF 3
ENDMDL
MODEL 3
REMARK VINA RESULT:      -6.9      5.083      6.990
REMARK  Name = 
REMARK  3 active torsions:
REMARK  status: ('A' for Active; 'I' for Inactive)
REMARK    1  A    between atoms: C_12  and  N_13
REMARK    2  A    between atoms: N_13  and  C_14
REMARK    3  A    between atoms: N_23  and  C_24
REMARK                            x       y       z     vdW  Elec       q    Type
REMARK                         _______ _______ _______ _____ _____    ______ ____
ROOT
ATOM      1  C   UNL     1      -4.190  10.766  17.821  0.00  0.00    +0.000 A 
ATOM      2  C   UNL     1      -3.856  11.835  18.636  0.00  0.00    +0.000 A 
ATOM      3  C   UNL     1      -2.527  11.896  19.081  0.00  0.00    +0.000 A 
ATOM      4  C   UNL     1      -1.807  12.788  19.918  0.00  0.00    +0.000 A 
ATOM      5  C   UNL     1      -2.105  13.933  20.647  0.00  0.00    +0.000 A 
ATOM      6  N   UNL     1      -1.139  14.539  21.372  0.00  0.00    +0.000 NA
ATOM      7  C   UNL     1       0.125  14.077  21.294  0.00  0.00    +0.000 A 
ATOM      8  N   UNL     1       1.089  14.836  21.949  0.00  0.00    +0.000 N 
ATOM      9  C   UNL     1       2.450  14.850  21.669  0.00  0.00    +0.000 A 
ATOM     10  C   UNL     1       2.901  14.769  20.354  0.00  0.00    +0.000 A 
ATOM     11  C   UNL     1       4.265  14.741  20.089  0.00  0.00    +0.000 A 
ATOM     12  C   UNL     1       5.177  14.768  21.134  0.00  0.00    +0.000 A 
ATOM     13  C   UNL     1       4.637  14.951  22.407  0.00  0.00    +0.000 A 
ATOM     14  N   UNL     1       3.309  14.994  22.699  0.00  0.00    +0.000 NA
ATOM     15  N   UNL     1       0.500  12.974  20.616  0.00  0.00    +0.000 NA
ATOM     16  C   UNL     1      -0.496  12.348  19.974  0.00  0.00    +0.000 A 
ATOM     17  N   UNL     1      -0.407  11.170  19.271  0.00  0.00    +0.000 N 
ATOM     18  C   UNL     1      -1.638  10.896  18.681  0.00  0.00    +0.000 A 
ATOM     19  C   UNL     1      -2.048   9.854  17.850  0.00  0.00    +0.000 A 
ATOM     20  N   UNL     1      -3.331   9.803  17.431  0.00  0.00    +0.000 NA
ATOM     21  H   UNL     1       0.873  14.958  22.926  0.00  0.00    +0.000 HD
ENDROOT
BRANCH  17  22
ATOM     22  C   UNL     1       0.727  10.275  19.163  0.00  0.00    +0.000 C 
ATOM     23  C   UNL     1       0.707   9.082  20.114  0.00  0.00    +0.000 C 
ATOM     24  C   UNL     1       1.952   8.303  19.692  0.00  0.00    +0.000 C 
ATOM     25  C   UNL     1       2.131   8.588  18.196  0.00  0.00    +0.000 C 
ATOM     26  C   UNL     1       1.049   9.607  17.825  0.00  0.00    +0.000 C 
ENDBRANCH  17  22
BRANCH  12  27
ATOM     27  N   UNL     1       6.537  14.711  20.812  0.00  0.00    +0.000 N 
ATOM     28  H   UNL     1       6.937  13.864  21.220  0.00  0.00    +0.000 HD
BRANCH  27  29
ATOM     29  C   UNL     1       6.933  14.881  19.412  0.00  0.00    +0.000 C 
ATOM     30  C   UNL     1       7.386  16.308  19.117  0.00  0.00    +0.000 C 
ATOM     31  C   UNL     1       8.417  16.124  18.026  0.00  0.00    +0.000 C 
ATOM     32  N   UNL     1       9.176  14.939  18.441  0.00  0.00    +0.000 NA
ATOM     33  C   UNL     1       8.192  14.048  19.086  0.00  0.00    +0.000 C 
ATOM     34  H   UNL     1       9.845  15.230  19.157  0.00  0.00    +0.000 HD
ENDBRANCH  27  29
ENDBRANCH  12  27
TORSDOF 3
ENDMDL
MODEL 4
REMARK VINA RESULT:      -6.8      3.050      9.301
REMARK  Name = 
REMARK  3 active torsions:
REMARK  status: ('A' for Active; 'I' for Inactive)
REMARK    1  A    between atoms: C_12  and  N_13
REMARK    2  A    between atoms: N_13  and  C_14
REMARK    3  A    between atoms: N_23  and  C_24
REMARK                            x       y       z     vdW  Elec       q    Type
REMARK                         _______ _______ _______ _____ _____    ______ ____
ROOT
ATOM      1  C   UNL     1       2.512   7.411  18.670  0.00  0.00    +0.000 A 
ATOM      2  C   UNL     1       1.803   7.541  19.853  0.00  0.00    +0.000 A 
ATOM      3  C   UNL     1       1.222   8.793  20.104  0.00  0.00    +0.000 A 
ATOM      4  C   UNL     1       0.457   9.330  21.172  0.00  0.00    +0.000 A 
ATOM      5  C   UNL     1      -0.011   8.867  22.396  0.00  0.00    +0.000 A 
ATOM      6  N   UNL     1      -0.724   9.688  23.198  0.00  0.00    +0.000 NA
ATOM      7  C   UNL     1      -1.056  10.915  22.750  0.00  0.00    +0.000 A 
ATOM      8  N   UNL     1      -1.911  11.647  23.566  0.00  0.00    +0.000 N 
ATOM      9  C   UNL     1      -2.734  12.691  23.161  0.00  0.00    +0.000 A 
ATOM     10  C   UNL     1      -3.380  12.645  21.929  0.00  0.00    +0.000 A 
ATOM     11  C   UNL     1      -4.167  13.713  21.516  0.00  0.00    +0.000 A 
ATOM     12  C   UNL     1      -4.289  14.837  22.321  0.00  0.00    +0.000 A 
ATOM     13  C   UNL     1      -3.691  14.753  23.578  0.00  0.00    +0.000 A 
ATOM     14  N   UNL     1      -2.925  13.718  24.016  0.00  0.00    +0.000 NA
ATOM     15  N   UNL     1      -0.643  11.444  21.580  0.00  0.00    +0.000 NA
ATOM     16  C   UNL     1       0.131  10.634  20.844  0.00  0.00    +0.000 A 
ATOM     17  N   UNL     1       0.742  10.944  19.652  0.00  0.00    +0.000 N 
ATOM     18  C   UNL     1       1.385   9.811  19.161  0.00  0.00    +0.000 A 
ATOM     19  C   UNL     1       2.107   9.600  17.987  0.00  0.00    +0.000 A 
ATOM     20  N   UNL     1       2.667   8.392  17.758  0.00  0.00    +0.000 NA
ATOM     21  H   UNL     1      -1.542  11.757  24.496  0.00  0.00    +0.000 HD
ENDROOT
BRANCH  17  22
ATOM     22  C   UNL     1       0.802  12.227  18.984  0.00  0.00    +0.000 C 
ATOM     23  C   UNL     1      -0.525  12.976  18.889  0.00  0.00    +0.000 C 
ATOM     24  C   UNL     1      -0.113  14.296  18.240  0.00  0.00    +0.000 C 
ATOM     25  C   UNL     1       1.329  14.550  18.694  0.00  0.00    +0.000 C 
ATOM     26  C   UNL     1       1.742  13.317  19.504  0.00  0.00    +0.000 C 
ENDBRANCH  17  22
BRANCH  12  27
ATOM     27  N   UNL     1      -5.072  15.895  21.846  0.00  0.00    +0.000 N 
ATOM     28  H   UNL     1      -5.742  16.160  22.571  0.00  0.00    +0.000 HD
BRANCH  27  29
ATOM     29  C   UNL     1      -4.400  17.062  21.271  0.00  0.00    +0.000 C 
ATOM     30  C   UNL     1      -3.035  16.704  20.691  0.00  0.00    +0.000 C 
ATOM     31  C   UNL     1      -2.879  17.684  19.549  0.00  0.00    +0.000 C 
ATOM     32  N   UNL     1      -4.206  17.731  18.928  0.00  0.00    +0.000 NA
ATOM     33  C   UNL     1      -5.166  17.594  20.041  0.00  0.00    +0.000 C 
ATOM     34  H   UNL     1      -4.304  16.906  18.333  0.00  0.00    +0.000 HD
ENDBRANCH  27  29
ENDBRANCH  12  27
TORSDOF 3
ENDMDL
MODEL 5
REMARK VINA RESULT:      -6.7      2.766      4.950
REMARK  Name = 
REMARK  3 active torsions:
REMARK  status: ('A' for Active; 'I' for Inactive)
REMARK    1  A    between atoms: C_12  and  N_13
REMARK    2  A    between atoms: N_13  and  C_14
REMARK    3  A    between atoms: N_23  and  C_24
REMARK                            x       y       z     vdW  Elec       q    Type
REMARK                         _______ _______ _______ _____ _____    ______ ____
ROOT
ATOM      1  C   UNL     1      -7.342  16.408  21.966  0.00  0.00    +0.000 A 
ATOM      2  C   UNL     1      -6.204  16.054  22.671  0.00  0.00    +0.000 A 
ATOM      3  C   UNL     1      -5.534  14.897  22.245  0.00  0.00    +0.000 A 
ATOM      4  C   UNL     1      -4.380  14.204  22.693  0.00  0.00    +0.000 A 
ATOM      5  C   UNL     1      -3.460  14.357  23.724  0.00  0.00    +0.000 A 
ATOM      6  N   UNL     1      -2.455  13.466  23.868  0.00  0.00    +0.000 NA
ATOM      7  C   UNL     1      -2.303  12.497  22.944  0.00  0.00    +0.000 A 
ATOM      8  N   UNL     1      -1.165  11.708  23.075  0.00  0.00    +0.000 N 
ATOM      9  C   UNL     1      -0.554  10.979  22.062  0.00  0.00    +0.000 A 
ATOM     10  C   UNL     1      -0.478  11.491  20.770  0.00  0.00    +0.000 A 
ATOM     11  C   UNL     1       0.098  10.735  19.756  0.00  0.00    +0.000 A 
ATOM     12  C   UNL     1       0.576   9.460  20.026  0.00  0.00    +0.000 A 
ATOM     13  C   UNL     1       0.551   9.072  21.365  0.00  0.00    +0.000 A 
ATOM     14  N   UNL     1       0.004   9.793  22.381  0.00  0.00    +0.000 NA
ATOM     15  N   UNL     1      -3.147  12.274  21.917  0.00  0.00    +0.000 NA
ATOM     16  C   UNL     1      -4.180  13.126  21.849  0.00  0.00    +0.000 A 
ATOM     17  N   UNL     1      -5.221  13.084  20.951  0.00  0.00    +0.000 N 
ATOM     18  C   UNL     1      -6.043  14.189  21.154  0.00  0.00    +0.000 A 
ATOM     19  C   UNL     1      -7.192  14.614  20.489  0.00  0.00    +0.000 A 
ATOM     20  N   UNL     1      -7.833  15.727  20.911  0.00  0.00    +0.000 NA
ATOM     21  H   UNL     1      -1.112  11.270  23.980  0.00  0.00    +0.000 HD
ENDROOT
BRANCH  17  22
ATOM     22  C   UNL     1      -5.515  12.062  19.969  0.00  0.00    +0.000 C 
ATOM     23  C   UNL     1      -6.791  11.263  20.221  0.00  0.00    +0.000 C 
ATOM     24  C   UNL     1      -6.865  10.362  18.989  0.00  0.00    +0.000 C 
ATOM     25  C   UNL     1      -6.199  11.153  17.857  0.00  0.00    +0.000 C 
ATOM     26  C   UNL     1      -5.666  12.440  18.494  0.00  0.00    +0.000 C 
ENDBRANCH  17  22
BRANCH  12  27
ATOM     27  N   UNL     1       1.123   8.733  18.963  0.00  0.00    +0.000 N 
ATOM     28  H   UNL     1       1.144   9.329  18.132  0.00  0.00    +0.000 HD
BRANCH  27  29
ATOM     29  C   UNL     1       2.396   8.040  19.169  0.00  0.00    +0.000 C 
ATOM     30  C   UNL     1       2.196   6.638  19.737  0.00  0.00    +0.000 C 
ATOM     31  C   UNL     1       3.364   5.865  19.165  0.00  0.00    +0.000 C 
ATOM     32  N   UNL     1       3.467   6.337  17.780  0.00  0.00    +0.000 NA
ATOM     33  C   UNL     1       3.104   7.767  17.824  0.00  0.00    +0.000 C 
ATOM     34  H   UNL     1       2.754   5.854  17.230  0.00  0.00    +0.000 HD
ENDBRANCH  27  29
ENDBRANCH  12  27
TORSDOF 3
ENDMDL
MODEL 6
REMARK VINA RESULT:      -6.6      4.979      7.055
REMARK  Name = 
REMARK  3 active torsions:
REMARK  status: ('A' for Active; 'I' for Inactive)
REMARK    1  A    between atoms: C_12  and  N_13
REMARK    2  A    between atoms: N_13  and  C_14
REMARK    3  A    between atoms: N_23  and  C_24
REMARK                            x       y       z     vdW  Elec       q    Type
REMARK                         _______ _______ _______ _____ _____    ______ ____
ROOT
ATOM      1  C   UNL     1      -4.173  10.686  17.720  0.00  0.00    +0.000 A 
ATOM      2  C   UNL     1      -3.868  11.771  18.525  0.00  0.00    +0.000 A 
ATOM      3  C   UNL     1      -2.557  11.841  19.016  0.00  0.00    +0.000 A 
ATOM      4  C   UNL     1      -1.867  12.749  19.861  0.00  0.00    +0.000 A 
ATOM      5  C   UNL     1      -2.190  13.908  20.556  0.00  0.00    +0.000 A 
ATOM      6  N   UNL     1      -1.251  14.529  21.303  0.00  0.00    +0.000 NA
ATOM      7  C   UNL     1       0.015  14.067  21.280  0.00  0.00    +0.000 A 
ATOM      8  N   UNL     1       0.954  14.839  21.954  0.00  0.00    +0.000 N 
ATOM      9  C   UNL     1       2.325  14.848  21.722  0.00  0.00    +0.000 A 
ATOM     10  C   UNL     1       2.822  14.742  20.426  0.00  0.00    +0.000 A 
ATOM     11  C   UNL     1       4.195  14.709  20.210  0.00  0.00    +0.000 A 
ATOM     12  C   UNL     1       5.069  14.758  21.287  0.00  0.00    +0.000 A 
ATOM     13  C   UNL     1       4.485  14.965  22.536  0.00  0.00    +0.000 A 
ATOM     14  N   UNL     1       3.147  15.013  22.779  0.00  0.00    +0.000 NA
ATOM     15  N   UNL     1       0.414  12.951  20.637  0.00  0.00    +0.000 NA
ATOM     16  C   UNL     1      -0.558  12.312  19.972  0.00  0.00    +0.000 A 
ATOM     17  N   UNL     1      -0.444  11.120  19.295  0.00  0.00    +0.000 N 
ATOM     18  C   UNL     1      -1.653  10.834  18.668  0.00  0.00    +0.000 A 
ATOM     19  C   UNL     1      -2.033   9.776  17.844  0.00  0.00    +0.000 A 
ATOM     20  N   UNL     1      -3.301   9.715  17.380  0.00  0.00    +0.000 NA
ATOM     21  H   UNL     1       0.704  14.980  22.920  0.00  0.00    +0.000 HD
ENDROOT
BRANCH  17  22
ATOM     22  C   UNL     1       0.693  10.224  19.246  0.00  0.00    +0.000 C 
ATOM     23  C   UNL     1       0.631   9.041  20.208  0.00  0.00    +0.000 C 
ATOM     24  C   UNL     1       1.893   8.258  19.847  0.00  0.00    +0.000 C 
ATOM     25  C   UNL     1       2.137   8.527  18.358  0.00  0.00    +0.000 C 
ATOM     26  C   UNL     1       1.072   9.542  17.930  0.00  0.00    +0.000 C 
ENDBRANCH  17  22
BRANCH  12  27
ATOM     27  N   UNL     1       6.440  14.695  21.015  0.00  0.00    +0.000 N 
ATOM     28  H   UNL     1       6.714  15.541  20.509  0.00  0.00    +0.000 HD
BRANCH  27  29
ATOM     29  C   UNL     1       7.361  14.396  22.113  0.00  0.00    +0.000 C 
ATOM     30  C   UNL     1       7.463  12.896  22.378  0.00  0.00    +0.000 C 
ATOM     31  C   UNL     1       8.881  12.731  22.879  0.00  0.00    +0.000 C 
ATOM     32  N   UNL     1       9.674  13.612  22.016  0.00  0.00    +0.000 NA
ATOM     33  C   UNL     1       8.810  14.778  21.744  0.00  0.00    +0.000 C 
ATOM     34  H   UNL     1       9.828  13.128  21.129  0.00  0.00    +0.000 HD
ENDBRANCH  27  29
ENDBRANCH  12  27
TORSDOF 3
ENDMDL
MODEL 7
REMARK VINA RESULT:      -6.5      1.334      1.486
REMARK  Name = 
REMARK  3 active torsions:
REMARK  status: ('A' for Active; 'I' for Inactive)
REMARK    1  A    between atoms: C_12  and  N_13
REMARK    2  A    between atoms: N_13  and  C_14
REMARK    3  A    between atoms: N_23  and  C_24
REMARK                            x       y       z     vdW  Elec       q    Type
REMARK                         _______ _______ _______ _____ _____    ______ ____
ROOT
ATOM      1  C   UNL     1      -1.239  14.529  21.148  0.00  0.00    +0.000 A 
ATOM      2  C   UNL     1      -0.528  13.546  21.816  0.00  0.00    +0.000 A 
ATOM      3  C   UNL     1      -0.469  12.286  21.203  0.00  0.00    +0.000 A 
ATOM      4  C   UNL     1       0.122  11.044  21.555  0.00  0.00    +0.000 A 
ATOM      5  C   UNL     1       0.852  10.556  22.632  0.00  0.00    +0.000 A 
ATOM      6  N   UNL     1       1.256   9.267  22.642  0.00  0.00    +0.000 NA
ATOM      7  C   UNL     1       1.029   8.501  21.556  0.00  0.00    +0.000 A 
ATOM      8  N   UNL     1       1.599   7.233  21.578  0.00  0.00    +0.000 N 
ATOM      9  C   UNL     1       1.897   6.450  20.469  0.00  0.00    +0.000 A 
ATOM     10  C   UNL     1       2.385   7.034  19.303  0.00  0.00    +0.000 A 
ATOM     11  C   UNL     1       2.639   6.246  18.186  0.00  0.00    +0.000 A 
ATOM     12  C   UNL     1       2.384   4.882  18.225  0.00  0.00    +0.000 A 
ATOM     13  C   UNL     1       1.995   4.372  19.463  0.00  0.00    +0.000 A 
ATOM     14  N   UNL     1       1.748   5.114  20.577  0.00  0.00    +0.000 NA
ATOM     15  N   UNL     1       0.328   8.893  20.473  0.00  0.00    +0.000 NA
ATOM     16  C   UNL     1      -0.130  10.151  20.528  0.00  0.00    +0.000 A 
ATOM     17  N   UNL     1      -0.927  10.777  19.600  0.00  0.00    +0.000 N 
ATOM     18  C   UNL     1      -1.114  12.103  19.978  0.00  0.00    +0.000 A 
ATOM     19  C   UNL     1      -1.803  13.147  19.362  0.00  0.00    +0.000 A 
ATOM     20  N   UNL     1      -1.859  14.355  19.964  0.00  0.00    +0.000 NA
ATOM     21  H   UNL     1       1.310   6.703  22.384  0.00  0.00    +0.000 HD
ENDROOT
BRANCH  17  22
ATOM     22  C   UNL     1      -1.556  10.203  18.428  0.00  0.00    +0.000 C 
ATOM     23  C   UNL     1      -3.081  10.139  18.473  0.00  0.00    +0.000 C 
ATOM     24  C   UNL     1      -3.428   9.592  17.089  0.00  0.00    +0.000 C 
ATOM     25  C   UNL     1      -2.317  10.089  16.156  0.00  0.00    +0.000 C 
ATOM     26  C   UNL     1      -1.306  10.816  17.048  0.00  0.00    +0.000 C 
ENDBRANCH  17  22
BRANCH  12  27
ATOM     27  N   UNL     1       2.634   4.141  17.065  0.00  0.00    +0.000 N 
ATOM     28  H   UNL     1       2.259   4.651  16.262  0.00  0.00    +0.000 HD
BRANCH  27  29
ATOM     29  C   UNL     1       3.995   3.661  16.819  0.00  0.00    +0.000 C 
ATOM     30  C   UNL     1       4.904   4.770  16.294  0.00  0.00    +0.000 C 
ATOM     31  C   UNL     1       6.264   4.383  16.832  0.00  0.00    +0.000 C 
ATOM     32  N   UNL     1       5.996   3.925  18.199  0.00  0.00    +0.000 NA
ATOM     33  C   UNL     1       4.685   3.248  18.136  0.00  0.00    +0.000 C 
ATOM     34  H   UNL     1       5.889   4.750  18.791  0.00  0.00    +0.000 HD
ENDBRANCH  27  29
ENDBRANCH  12  27
TORSDOF 3
ENDMDL
MODEL 8
REMARK VINA RESULT:      -6.5      3.123      9.496
REMARK  Name = 
REMARK  3 active torsions:
REMARK  status: ('A' for Active; 'I' for Inactive)
REMARK    1  A    between atoms: C_12  and  N_13
REMARK    2  A    between atoms: N_13  and  C_14
REMARK    3  A    between atoms: N_23  and  C_24
REMARK                            x       y       z     vdW  Elec       q    Type
REMARK                         _______ _______ _______ _____ _____    ______ ____
ROOT
ATOM      1  C   UNL     1       2.475   7.683  18.434  0.00  0.00    +0.000 A 
ATOM      2  C   UNL     1       1.769   7.734  19.624  0.00  0.00    +0.000 A 
ATOM      3  C   UNL     1       1.164   8.959  19.944  0.00  0.00    +0.000 A 
ATOM      4  C   UNL     1       0.393   9.421  21.042  0.00  0.00    +0.000 A 
ATOM      5  C   UNL     1      -0.061   8.883  22.240  0.00  0.00    +0.000 A 
ATOM      6  N   UNL     1      -0.787   9.644  23.088  0.00  0.00    +0.000 NA
ATOM      7  C   UNL     1      -1.144  10.887  22.709  0.00  0.00    +0.000 A 
ATOM      8  N   UNL     1      -2.010  11.557  23.566  0.00  0.00    +0.000 N 
ATOM      9  C   UNL     1      -2.855  12.605  23.222  0.00  0.00    +0.000 A 
ATOM     10  C   UNL     1      -3.504  12.613  21.990  0.00  0.00    +0.000 A 
ATOM     11  C   UNL     1      -4.314  13.687  21.639  0.00  0.00    +0.000 A 
ATOM     12  C   UNL     1      -4.455  14.763  22.505  0.00  0.00    +0.000 A 
ATOM     13  C   UNL     1      -3.850  14.622  23.754  0.00  0.00    +0.000 A 
ATOM     14  N   UNL     1      -3.062  13.579  24.132  0.00  0.00    +0.000 NA
ATOM     15  N   UNL     1      -0.746  11.487  21.569  0.00  0.00    +0.000 NA
ATOM     16  C   UNL     1       0.040  10.735  20.787  0.00  0.00    +0.000 A 
ATOM     17  N   UNL     1       0.641  11.121  19.612  0.00  0.00    +0.000 N 
ATOM     18  C   UNL     1       1.304  10.030  19.058  0.00  0.00    +0.000 A 
ATOM     19  C   UNL     1       2.024   9.897  17.872  0.00  0.00    +0.000 A 
ATOM     20  N   UNL     1       2.608   8.714  17.576  0.00  0.00    +0.000 NA
ATOM     21  H   UNL     1      -1.639  11.624  24.500  0.00  0.00    +0.000 HD
ENDROOT
BRANCH  17  22
ATOM     22  C   UNL     1       0.673  12.440  19.015  0.00  0.00    +0.000 C 
ATOM     23  C   UNL     1      -0.668  13.168  18.971  0.00  0.00    +0.000 C 
ATOM     24  C   UNL     1      -0.284  14.529  18.392  0.00  0.00    +0.000 C 
ATOM     25  C   UNL     1       1.156  14.784  18.850  0.00  0.00    +0.000 C 
ATOM     26  C   UNL     1       1.598  13.516  19.588  0.00  0.00    +0.000 C 
ENDBRANCH  17  22
BRANCH  12  27
ATOM     27  N   UNL     1      -5.261  15.829  22.090  0.00  0.00    +0.000 N 
ATOM     28  H   UNL     1      -6.067  15.895  22.716  0.00  0.00    +0.000 HD
BRANCH  27  29
ATOM     29  C   UNL     1      -4.636  17.135  21.867  0.00  0.00    +0.000 C 
ATOM     30  C   UNL     1      -4.254  17.815  23.179  0.00  0.00    +0.000 C 
ATOM     31  C   UNL     1      -3.034  18.626  22.804  0.00  0.00    +0.000 C 
ATOM     32  N   UNL     1      -2.268  17.740  21.921  0.00  0.00    +0.000 NA
ATOM     33  C   UNL     1      -3.277  16.985  21.152  0.00  0.00    +0.000 C 
ATOM     34  H   UNL     1      -1.763  17.072  22.507  0.00  0.00    +0.000 HD
ENDBRANCH  27  29
ENDBRANCH  12  27
TORSDOF 3
ENDMDL
MODEL 9
REMARK VINA RESULT:      -6.4      5.524      6.603
REMARK  Name = 
REMARK  3 active torsions:
REMARK  status: ('A' for Active; 'I' for Inactive)
REMARK    1  A    between atoms: C_12  and  N_13
REMARK    2  A    between atoms: N_13  and  C_14
REMARK    3  A    between atoms: N_23  and  C_24
REMARK                            x       y       z     vdW  Elec       q    Type
REMARK                         _______ _______ _______ _____ _____    ______ ____
ROOT
ATOM      1  C   UNL     1      -4.347  13.058  20.540  0.00  0.00    +0.000 A 
ATOM      2  C   UNL     1      -3.424  13.806  21.251  0.00  0.00    +0.000 A 
ATOM      3  C   UNL     1      -2.073  13.609  20.931  0.00  0.00    +0.000 A 
ATOM      4  C   UNL     1      -0.854  14.145  21.421  0.00  0.00    +0.000 A 
ATOM      5  C   UNL     1      -0.488  15.050  22.411  0.00  0.00    +0.000 A 
ATOM      6  N   UNL     1       0.818  15.324  22.622  0.00  0.00    +0.000 NA
ATOM      7  C   UNL     1       1.741  14.789  21.798  0.00  0.00    +0.000 A 
ATOM      8  N   UNL     1       3.047  15.228  21.984  0.00  0.00    +0.000 N 
ATOM      9  C   UNL     1       4.064  15.196  21.037  0.00  0.00    +0.000 A 
ATOM     10  C   UNL     1       3.791  15.462  19.698  0.00  0.00    +0.000 A 
ATOM     11  C   UNL     1       4.808  15.385  18.754  0.00  0.00    +0.000 A 
ATOM     12  C   UNL     1       6.090  15.019  19.141  0.00  0.00    +0.000 A 
ATOM     13  C   UNL     1       6.291  14.872  20.513  0.00  0.00    +0.000 A 
ATOM     14  N   UNL     1       5.320  14.951  21.463  0.00  0.00    +0.000 NA
ATOM     15  N   UNL     1       1.475  13.902  20.818  0.00  0.00    +0.000 NA
ATOM     16  C   UNL     1       0.178  13.588  20.687  0.00  0.00    +0.000 A 
ATOM     17  N   UNL     1      -0.359  12.664  19.822  0.00  0.00    +0.000 N 
ATOM     18  C   UNL     1      -1.747  12.691  19.929  0.00  0.00    +0.000 A 
ATOM     19  C   UNL     1      -2.735  11.981  19.250  0.00  0.00    +0.000 A 
ATOM     20  N   UNL     1      -4.034  12.175  19.570  0.00  0.00    +0.000 NA
ATOM     21  H   UNL     1       3.365  15.079  22.928  0.00  0.00    +0.000 HD
ENDROOT
BRANCH  17  22
ATOM     22  C   UNL     1       0.339  11.738  18.955  0.00  0.00    +0.000 C 
ATOM     23  C   UNL     1       1.780  12.116  18.622  0.00  0.00    +0.000 C 
ATOM     24  C   UNL     1       2.253  10.920  17.797  0.00  0.00    +0.000 C 
ATOM     25  C   UNL     1       1.465   9.716  18.324  0.00  0.00    +0.000 C 
ATOM     26  C   UNL     1       0.485  10.270  19.362  0.00  0.00    +0.000 C 
ENDBRANCH  17  22
BRANCH  12  27
ATOM     27  N   UNL     1       7.069  14.932  18.146  0.00  0.00    +0.000 N 
ATOM     28  H   UNL     1       7.189  15.854  17.720  0.00  0.00    +0.000 HD
BRANCH  27  29
ATOM     29  C   UNL     1       8.355  14.315  18.479  0.00  0.00    +0.000 C 
ATOM     30  C   UNL     1       8.553  12.986  17.755  0.00  0.00    +0.000 C 
ATOM     31  C   UNL     1      10.052  12.919  17.564  0.00  0.00    +0.000 C 
ATOM     32  N   UNL     1      10.431  14.285  17.189  0.00  0.00    +0.000 NA
ATOM     33  C   UNL     1       9.531  15.167  17.958  0.00  0.00    +0.000 C 
ATOM     34  H   UNL     1      10.213  14.410  16.199  0.00  0.00    +0.000 HD
ENDBRANCH  27  29
ENDBRANCH  12  27
TORSDOF 3
ENDMDL
