MODEL 1
REMARK VINA RESULT:      -8.4      0.000      0.000
REMARK  Name = 
REMARK  8 active torsions:
REMARK  status: ('A' for Active; 'I' for Inactive)
REMARK    1  A    between atoms: C_1  and  C_2
REMARK    2  A    between atoms: C_2  and  N_3
REMARK    3  A    between atoms: N_3  and  C_4
REMARK    4  A    between atoms: C_4  and  C_5
REMARK    5  A    between atoms: C_14  and  C_15
REMARK    6  A    between atoms: N_17  and  C_18
REMARK    7  A    between atoms: C_20  and  C_21
REMARK    8  A    between atoms: N_28  and  C_29
REMARK                            x       y       z     vdW  Elec       q    Type
REMARK                         _______ _______ _______ _____ _____    ______ ____
ROOT
ATOM      1  N   UNL     1       3.207   3.872  18.581  0.00  0.00    +0.000 N 
ATOM      2  C   UNL     1       2.754   5.076  19.194  0.00  0.00    +0.000 A 
ATOM      3  C   UNL     1       2.357   5.084  20.532  0.00  0.00    +0.000 A 
ATOM      4  C   UNL     1       1.870   6.238  21.134  0.00  0.00    +0.000 A 
ATOM      5  C   UNL     1       1.838   7.394  20.398  0.00  0.00    +0.000 A 
ATOM      6  N   UNL     1       2.253   7.441  19.119  0.00  0.00    +0.000 NA
ATOM      7  N   UNL     1       2.706   6.260  18.527  0.00  0.00    +0.000 NA
ENDROOT
BRANCH   5   8
ATOM      8  C   UNL     1       1.340   8.639  21.023  0.00  0.00    +0.000 C 
ATOM      9  O   UNL     1       1.620   8.898  22.179  0.00  0.00    +0.000 OA
ATOM     10  N   UNL     1       0.486   9.496  20.241  0.00  0.00    +0.000 N 
ATOM     11  H   UNL     1       0.213   9.186  19.315  0.00  0.00    +0.000 HD
BRANCH  10  12
ATOM     12  C   UNL     1       0.015  10.711  20.743  0.00  0.00    +0.000 A 
ATOM     13  C   UNL     1      -0.780  10.902  21.849  0.00  0.00    +0.000 A 
ATOM     14  C   UNL     1      -0.999  12.299  21.960  0.00  0.00    +0.000 A 
ATOM     15  N   UNL     1      -0.354  12.942  20.974  0.00  0.00    +0.000 NA
ATOM     16  N   UNL     1       0.244  11.973  20.258  0.00  0.00    +0.000 N 
ATOM     17  C   UNL     1       0.952  12.346  19.057  0.00  0.00    +0.000 C 
BRANCH  14  18
ATOM     18  C   UNL     1      -1.789  13.005  22.974  0.00  0.00    +0.000 A 
ATOM     19  C   UNL     1      -1.294  14.155  23.612  0.00  0.00    +0.000 A 
ATOM     20  C   UNL     1      -2.057  14.826  24.571  0.00  0.00    +0.000 A 
ATOM     21  C   UNL     1      -3.323  14.355  24.910  0.00  0.00    +0.000 A 
ATOM     22  C   UNL     1      -3.826  13.211  24.293  0.00  0.00    +0.000 A 
ATOM     23  C   UNL     1      -3.063  12.541  23.332  0.00  0.00    +0.000 A 
ENDBRANCH  14  18
ENDBRANCH  10  12
ENDBRANCH   5   8
BRANCH   1  25
ATOM     24  C   UNL     1       1.013   2.603  18.431  0.00  0.00    +0.000 C 
ATOM     25  C   UNL     1       2.425   2.681  18.987  0.00  0.00    +0.000 C 
ENDBRANCH   1  25
BRANCH   1  26
ATOM     26  C   UNL     1       3.495   4.032  17.134  0.00  0.00    +0.000 C 
BRANCH  26  27
ATOM     27  C   UNL     1       4.971   4.274  16.854  0.00  0.00    +0.000 A 
ATOM     28  C   UNL     1       5.465   4.323  15.547  0.00  0.00    +0.000 A 
ATOM     29  C   UNL     1       6.833   4.444  15.352  0.00  0.00    +0.000 A 
ATOM     30  N   UNL     1       7.730   4.555  16.354  0.00  0.00    +0.000 NA
ATOM     31  C   UNL     1       7.232   4.567  17.608  0.00  0.00    +0.000 A 
ATOM     32  C   UNL     1       5.881   4.445  17.905  0.00  0.00    +0.000 A 
ENDBRANCH  26  27
ENDBRANCH   1  26
TORSDOF 6
ENDMDL
MODEL 2
REMARK VINA RESULT:      -8.4      2.816      3.569
REMARK  Name = 
REMARK  8 active torsions:
REMARK  status: ('A' for Active; 'I' for Inactive)
REMARK    1  A    between atoms: C_1  and  C_2
REMARK    2  A    between atoms: C_2  and  N_3
REMARK    3  A    between atoms: N_3  and  C_4
REMARK    4  A    between atoms: C_4  and  C_5
REMARK    5  A    between atoms: C_14  and  C_15
REMARK    6  A    between atoms: N_17  and  C_18
REMARK    7  A    between atoms: C_20  and  C_21
REMARK    8  A    between atoms: N_28  and  C_29
REMARK                            x       y       z     vdW  Elec       q    Type
REMARK                         _______ _______ _______ _____ _____    ______ ____
ROOT
ATOM      1  N   UNL     1       3.257   4.077  18.777  0.00  0.00    +0.000 N 
ATOM      2  C   UNL     1       2.772   5.401  18.988  0.00  0.00    +0.000 A 
ATOM      3  C   UNL     1       2.328   5.799  20.250  0.00  0.00    +0.000 A 
ATOM      4  C   UNL     1       1.810   7.070  20.465  0.00  0.00    +0.000 A 
ATOM      5  C   UNL     1       1.793   7.954  19.417  0.00  0.00    +0.000 A 
ATOM      6  N   UNL     1       2.254   7.626  18.196  0.00  0.00    +0.000 NA
ATOM      7  N   UNL     1       2.737   6.331  17.997  0.00  0.00    +0.000 NA
ENDROOT
BRANCH   5   8
ATOM      8  C   UNL     1       1.263   9.319  19.627  0.00  0.00    +0.000 C 
ATOM      9  O   UNL     1       0.998   9.708  20.750  0.00  0.00    +0.000 OA
ATOM     10  N   UNL     1       1.031  10.143  18.468  0.00  0.00    +0.000 N 
ATOM     11  H   UNL     1       1.186   9.736  17.552  0.00  0.00    +0.000 HD
BRANCH  10  12
ATOM     12  C   UNL     1       0.578  11.458  18.586  0.00  0.00    +0.000 A 
ATOM     13  C   UNL     1       1.343  12.600  18.637  0.00  0.00    +0.000 A 
ATOM     14  C   UNL     1       0.445  13.690  18.760  0.00  0.00    +0.000 A 
ATOM     15  N   UNL     1      -0.820  13.241  18.769  0.00  0.00    +0.000 NA
ATOM     16  N   UNL     1      -0.716  11.904  18.665  0.00  0.00    +0.000 N 
ATOM     17  C   UNL     1      -1.922  11.115  18.739  0.00  0.00    +0.000 C 
BRANCH  14  18
ATOM     18  C   UNL     1       0.774  15.116  18.860  0.00  0.00    +0.000 A 
ATOM     19  C   UNL     1      -0.234  16.088  18.986  0.00  0.00    +0.000 A 
ATOM     20  C   UNL     1       0.089  17.443  19.088  0.00  0.00    +0.000 A 
ATOM     21  C   UNL     1       1.421  17.848  19.062  0.00  0.00    +0.000 A 
ATOM     22  C   UNL     1       2.432  16.898  18.931  0.00  0.00    +0.000 A 
ATOM     23  C   UNL     1       2.109  15.542  18.829  0.00  0.00    +0.000 A 
ENDBRANCH  14  18
ENDBRANCH  10  12
ENDBRANCH   5   8
BRANCH   1  25
ATOM     24  C   UNL     1       1.258   2.511  18.752  0.00  0.00    +0.000 C 
ATOM     25  C   UNL     1       2.471   3.047  19.494  0.00  0.00    +0.000 C 
ENDBRANCH   1  25
BRANCH   1  26
ATOM     26  C   UNL     1       3.594   3.805  17.358  0.00  0.00    +0.000 C 
BRANCH  26  27
ATOM     27  C   UNL     1       5.062   4.054  17.047  0.00  0.00    +0.000 A 
ATOM     28  C   UNL     1       5.985   4.327  18.063  0.00  0.00    +0.000 A 
ATOM     29  C   UNL     1       7.289   4.648  17.714  0.00  0.00    +0.000 A 
ATOM     30  N   UNL     1       7.744   4.680  16.445  0.00  0.00    +0.000 NA
ATOM     31  C   UNL     1       6.857   4.356  15.481  0.00  0.00    +0.000 A 
ATOM     32  C   UNL     1       5.531   4.028  15.727  0.00  0.00    +0.000 A 
ENDBRANCH  26  27
ENDBRANCH   1  26
TORSDOF 6
ENDMDL
MODEL 3
REMARK VINA RESULT:      -8.4      2.820      3.422
REMARK  Name = 
REMARK  8 active torsions:
REMARK  status: ('A' for Active; 'I' for Inactive)
REMARK    1  A    between atoms: C_1  and  C_2
REMARK    2  A    between atoms: C_2  and  N_3
REMARK    3  A    between atoms: N_3  and  C_4
REMARK    4  A    between atoms: C_4  and  C_5
REMARK    5  A    between atoms: C_14  and  C_15
REMARK    6  A    between atoms: N_17  and  C_18
REMARK    7  A    between atoms: C_20  and  C_21
REMARK    8  A    between atoms: N_28  and  C_29
REMARK                            x       y       z     vdW  Elec       q    Type
REMARK                         _______ _______ _______ _____ _____    ______ ____
ROOT
ATOM      1  N   UNL     1       3.313   4.183  18.632  0.00  0.00    +0.000 N 
ATOM      2  C   UNL     1       2.810   5.498  18.854  0.00  0.00    +0.000 A 
ATOM      3  C   UNL     1       2.409   5.897  20.129  0.00  0.00    +0.000 A 
ATOM      4  C   UNL     1       1.874   7.159  20.357  0.00  0.00    +0.000 A 
ATOM      5  C   UNL     1       1.798   8.035  19.304  0.00  0.00    +0.000 A 
ATOM      6  N   UNL     1       2.216   7.707  18.068  0.00  0.00    +0.000 NA
ATOM      7  N   UNL     1       2.717   6.420  17.859  0.00  0.00    +0.000 NA
ENDROOT
BRANCH   5   8
ATOM      8  C   UNL     1       1.249   9.391  19.526  0.00  0.00    +0.000 C 
ATOM      9  O   UNL     1       0.944   9.752  20.648  0.00  0.00    +0.000 OA
ATOM     10  N   UNL     1       1.048  10.237  18.378  0.00  0.00    +0.000 N 
ATOM     11  H   UNL     1       1.236   9.852  17.459  0.00  0.00    +0.000 HD
BRANCH  10  12
ATOM     12  C   UNL     1       0.580  11.546  18.509  0.00  0.00    +0.000 A 
ATOM     13  C   UNL     1       1.333  12.693  18.601  0.00  0.00    +0.000 A 
ATOM     14  C   UNL     1       0.422  13.773  18.722  0.00  0.00    +0.000 A 
ATOM     15  N   UNL     1      -0.839  13.312  18.692  0.00  0.00    +0.000 NA
ATOM     16  N   UNL     1      -0.720  11.979  18.565  0.00  0.00    +0.000 N 
ATOM     17  C   UNL     1      -1.920  11.178  18.596  0.00  0.00    +0.000 C 
BRANCH  14  18
ATOM     18  C   UNL     1       0.735  15.200  18.857  0.00  0.00    +0.000 A 
ATOM     19  C   UNL     1       2.035  15.684  18.633  0.00  0.00    +0.000 A 
ATOM     20  C   UNL     1       2.322  17.046  18.756  0.00  0.00    +0.000 A 
ATOM     21  C   UNL     1       1.316  17.942  19.108  0.00  0.00    +0.000 A 
ATOM     22  C   UNL     1       0.024  17.478  19.341  0.00  0.00    +0.000 A 
ATOM     23  C   UNL     1      -0.264  16.116  19.217  0.00  0.00    +0.000 A 
ENDBRANCH  14  18
ENDBRANCH  10  12
ENDBRANCH   5   8
BRANCH   1  25
ATOM     24  C   UNL     1       1.281   2.664  18.754  0.00  0.00    +0.000 C 
ATOM     25  C   UNL     1       2.577   3.142  19.387  0.00  0.00    +0.000 C 
ENDBRANCH   1  25
BRANCH   1  26
ATOM     26  C   UNL     1       3.598   3.907  17.203  0.00  0.00    +0.000 C 
BRANCH  26  27
ATOM     27  C   UNL     1       5.038   4.221  16.822  0.00  0.00    +0.000 A 
ATOM     28  C   UNL     1       5.429   4.334  15.484  0.00  0.00    +0.000 A 
ATOM     29  C   UNL     1       6.773   4.519  15.193  0.00  0.00    +0.000 A 
ATOM     30  N   UNL     1       7.737   4.638  16.128  0.00  0.00    +0.000 NA
ATOM     31  C   UNL     1       7.336   4.587  17.415  0.00  0.00    +0.000 A 
ATOM     32  C   UNL     1       6.018   4.398  17.808  0.00  0.00    +0.000 A 
ENDBRANCH  26  27
ENDBRANCH   1  26
TORSDOF 6
ENDMDL
MODEL 4
REMARK VINA RESULT:      -8.3      2.210     11.495
REMARK  Name = 
REMARK  8 active torsions:
REMARK  status: ('A' for Active; 'I' for Inactive)
REMARK    1  A    between atoms: C_1  and  C_2
REMARK    2  A    between atoms: C_2  and  N_3
REMARK    3  A    between atoms: N_3  and  C_4
REMARK    4  A    between atoms: C_4  and  C_5
REMARK    5  A    between atoms: C_14  and  C_15
REMARK    6  A    between atoms: N_17  and  C_18
REMARK    7  A    between atoms: C_20  and  C_21
REMARK    8  A    between atoms: N_28  and  C_29
REMARK                            x       y       z     vdW  Elec       q    Type
REMARK                         _______ _______ _______ _____ _____    ______ ____
ROOT
ATOM      1  N   UNL     1      -0.339  11.355  20.775  0.00  0.00    +0.000 N 
ATOM      2  C   UNL     1       0.423  10.324  20.151  0.00  0.00    +0.000 A 
ATOM      3  C   UNL     1       0.865  10.468  18.835  0.00  0.00    +0.000 A 
ATOM      4  C   UNL     1       1.569   9.456  18.194  0.00  0.00    +0.000 A 
ATOM      5  C   UNL     1       1.872   8.323  18.903  0.00  0.00    +0.000 A 
ATOM      6  N   UNL     1       1.505   8.161  20.188  0.00  0.00    +0.000 NA
ATOM      7  N   UNL     1       0.768   9.179  20.798  0.00  0.00    +0.000 NA
ENDROOT
BRANCH   5   8
ATOM      8  C   UNL     1       2.637   7.239  18.247  0.00  0.00    +0.000 C 
ATOM      9  O   UNL     1       2.153   6.128  18.135  0.00  0.00    +0.000 OA
ATOM     10  N   UNL     1       3.972   7.531  17.793  0.00  0.00    +0.000 N 
ATOM     11  H   UNL     1       4.357   8.448  17.992  0.00  0.00    +0.000 HD
BRANCH  10  12
ATOM     12  C   UNL     1       4.740   6.578  17.121  0.00  0.00    +0.000 A 
ATOM     13  C   UNL     1       4.893   6.441  15.762  0.00  0.00    +0.000 A 
ATOM     14  C   UNL     1       5.759   5.337  15.555  0.00  0.00    +0.000 A 
ATOM     15  N   UNL     1       6.135   4.825  16.738  0.00  0.00    +0.000 NA
ATOM     16  N   UNL     1       5.513   5.581  17.659  0.00  0.00    +0.000 N 
ATOM     17  C   UNL     1       5.647   5.216  19.049  0.00  0.00    +0.000 C 
BRANCH  14  18
ATOM     18  C   UNL     1       6.222   4.787  14.277  0.00  0.00    +0.000 A 
ATOM     19  C   UNL     1       7.435   5.203  13.703  0.00  0.00    +0.000 A 
ATOM     20  C   UNL     1       7.873   4.669  12.489  0.00  0.00    +0.000 A 
ATOM     21  C   UNL     1       7.102   3.714  11.828  0.00  0.00    +0.000 A 
ATOM     22  C   UNL     1       5.893   3.297  12.380  0.00  0.00    +0.000 A 
ATOM     23  C   UNL     1       5.456   3.831  13.595  0.00  0.00    +0.000 A 
ENDBRANCH  14  18
ENDBRANCH  10  12
ENDBRANCH   5   8
BRANCH   1  25
ATOM     24  C   UNL     1      -0.945  13.336  19.307  0.00  0.00    +0.000 C 
ATOM     25  C   UNL     1      -1.331  11.977  19.869  0.00  0.00    +0.000 C 
ENDBRANCH   1  25
BRANCH   1  26
ATOM     26  C   UNL     1      -0.801  10.987  22.136  0.00  0.00    +0.000 C 
BRANCH  26  27
ATOM     27  C   UNL     1      -1.496  12.138  22.849  0.00  0.00    +0.000 A 
ATOM     28  C   UNL     1      -0.824  13.332  23.130  0.00  0.00    +0.000 A 
ATOM     29  C   UNL     1      -1.474  14.308  23.871  0.00  0.00    +0.000 A 
ATOM     30  N   UNL     1      -2.743  14.196  24.316  0.00  0.00    +0.000 NA
ATOM     31  C   UNL     1      -3.398  13.064  23.986  0.00  0.00    +0.000 A 
ATOM     32  C   UNL     1      -2.833  12.028  23.254  0.00  0.00    +0.000 A 
ENDBRANCH  26  27
ENDBRANCH   1  26
TORSDOF 6
ENDMDL
MODEL 5
REMARK VINA RESULT:      -8.3      2.700     11.195
REMARK  Name = 
REMARK  8 active torsions:
REMARK  status: ('A' for Active; 'I' for Inactive)
REMARK    1  A    between atoms: C_1  and  C_2
REMARK    2  A    between atoms: C_2  and  N_3
REMARK    3  A    between atoms: N_3  and  C_4
REMARK    4  A    between atoms: C_4  and  C_5
REMARK    5  A    between atoms: C_14  and  C_15
REMARK    6  A    between atoms: N_17  and  C_18
REMARK    7  A    between atoms: C_20  and  C_21
REMARK    8  A    between atoms: N_28  and  C_29
REMARK                            x       y       z     vdW  Elec       q    Type
REMARK                         _______ _______ _______ _____ _____    ______ ____
ROOT
ATOM      1  N   UNL     1      -0.588  11.042  20.678  0.00  0.00    +0.000 N 
ATOM      2  C   UNL     1       0.213  10.043  20.052  0.00  0.00    +0.000 A 
ATOM      3  C   UNL     1       0.705   8.966  20.790  0.00  0.00    +0.000 A 
ATOM      4  C   UNL     1       1.525   8.006  20.209  0.00  0.00    +0.000 A 
ATOM      5  C   UNL     1       1.800   8.108  18.869  0.00  0.00    +0.000 A 
ATOM      6  N   UNL     1       1.309   9.106  18.111  0.00  0.00    +0.000 NA
ATOM      7  N   UNL     1       0.516  10.076  18.727  0.00  0.00    +0.000 NA
ENDROOT
BRANCH   5   8
ATOM      8  C   UNL     1       2.656   7.088  18.225  0.00  0.00    +0.000 C 
ATOM      9  O   UNL     1       2.286   5.931  18.156  0.00  0.00    +0.000 OA
ATOM     10  N   UNL     1       3.945   7.500  17.730  0.00  0.00    +0.000 N 
ATOM     11  H   UNL     1       4.239   8.456  17.893  0.00  0.00    +0.000 HD
BRANCH  10  12
ATOM     12  C   UNL     1       4.791   6.609  17.066  0.00  0.00    +0.000 A 
ATOM     13  C   UNL     1       4.886   6.406  15.710  0.00  0.00    +0.000 A 
ATOM     14  C   UNL     1       5.874   5.408  15.512  0.00  0.00    +0.000 A 
ATOM     15  N   UNL     1       6.377   5.023  16.696  0.00  0.00    +0.000 NA
ATOM     16  N   UNL     1       5.714   5.753  17.611  0.00  0.00    +0.000 N 
ATOM     17  C   UNL     1       5.971   5.498  19.007  0.00  0.00    +0.000 C 
BRANCH  14  18
ATOM     18  C   UNL     1       6.333   4.839  14.241  0.00  0.00    +0.000 A 
ATOM     19  C   UNL     1       7.499   5.308  13.613  0.00  0.00    +0.000 A 
ATOM     20  C   UNL     1       7.934   4.755  12.406  0.00  0.00    +0.000 A 
ATOM     21  C   UNL     1       7.206   3.730  11.806  0.00  0.00    +0.000 A 
ATOM     22  C   UNL     1       6.043   3.259  12.411  0.00  0.00    +0.000 A 
ATOM     23  C   UNL     1       5.610   3.811  13.619  0.00  0.00    +0.000 A 
ENDBRANCH  14  18
ENDBRANCH  10  12
ENDBRANCH   5   8
BRANCH   1  25
ATOM     24  C   UNL     1      -1.202  11.589  23.080  0.00  0.00    +0.000 C 
ATOM     25  C   UNL     1      -0.116  11.404  22.035  0.00  0.00    +0.000 C 
ENDBRANCH   1  25
BRANCH   1  26
ATOM     26  C   UNL     1      -0.940  12.157  19.764  0.00  0.00    +0.000 C 
BRANCH  26  27
ATOM     27  C   UNL     1      -2.400  12.127  19.340  0.00  0.00    +0.000 A 
ATOM     28  C   UNL     1      -3.405  12.664  20.152  0.00  0.00    +0.000 A 
ATOM     29  C   UNL     1      -4.729  12.518  19.763  0.00  0.00    +0.000 A 
ATOM     30  N   UNL     1      -5.117  11.917  18.620  0.00  0.00    +0.000 NA
ATOM     31  C   UNL     1      -4.134  11.458  17.819  0.00  0.00    +0.000 A 
ATOM     32  C   UNL     1      -2.782  11.550  18.122  0.00  0.00    +0.000 A 
ENDBRANCH  26  27
ENDBRANCH   1  26
TORSDOF 6
ENDMDL
MODEL 6
REMARK VINA RESULT:      -8.3      1.064      1.082
REMARK  Name = 
REMARK  8 active torsions:
REMARK  status: ('A' for Active; 'I' for Inactive)
REMARK    1  A    between atoms: C_1  and  C_2
REMARK    2  A    between atoms: C_2  and  N_3
REMARK    3  A    between atoms: N_3  and  C_4
REMARK    4  A    between atoms: C_4  and  C_5
REMARK    5  A    between atoms: C_14  and  C_15
REMARK    6  A    between atoms: N_17  and  C_18
REMARK    7  A    between atoms: C_20  and  C_21
REMARK    8  A    between atoms: N_28  and  C_29
REMARK                            x       y       z     vdW  Elec       q    Type
REMARK                         _______ _______ _______ _____ _____    ______ ____
ROOT
ATOM      1  N   UNL     1       3.290   4.401  18.779  0.00  0.00    +0.000 N 
ATOM      2  C   UNL     1       2.708   5.676  19.041  0.00  0.00    +0.000 A 
ATOM      3  C   UNL     1       2.285   6.009  20.329  0.00  0.00    +0.000 A 
ATOM      4  C   UNL     1       1.674   7.229  20.595  0.00  0.00    +0.000 A 
ATOM      5  C   UNL     1       1.544   8.131  19.570  0.00  0.00    +0.000 A 
ATOM      6  N   UNL     1       1.980   7.868  18.325  0.00  0.00    +0.000 NA
ATOM      7  N   UNL     1       2.558   6.622  18.076  0.00  0.00    +0.000 NA
ENDROOT
BRANCH   5   8
ATOM      8  C   UNL     1       0.914   9.443  19.835  0.00  0.00    +0.000 C 
ATOM      9  O   UNL     1       0.347  10.043  18.940  0.00  0.00    +0.000 OA
ATOM     10  N   UNL     1       1.033   9.997  21.160  0.00  0.00    +0.000 N 
ATOM     11  H   UNL     1       1.591   9.496  21.841  0.00  0.00    +0.000 HD
BRANCH  10  12
ATOM     12  C   UNL     1       0.425  11.207  21.502  0.00  0.00    +0.000 A 
ATOM     13  C   UNL     1      -0.723  11.381  22.238  0.00  0.00    +0.000 A 
ATOM     14  C   UNL     1      -0.949  12.779  22.322  0.00  0.00    +0.000 A 
ATOM     15  N   UNL     1       0.028  13.438  21.677  0.00  0.00    +0.000 NA
ATOM     16  N   UNL     1       0.836  12.478  21.194  0.00  0.00    +0.000 N 
ATOM     17  C   UNL     1       1.947  12.873  20.363  0.00  0.00    +0.000 C 
BRANCH  14  18
ATOM     18  C   UNL     1      -2.052  13.471  22.997  0.00  0.00    +0.000 A 
ATOM     19  C   UNL     1      -2.058  14.870  23.133  0.00  0.00    +0.000 A 
ATOM     20  C   UNL     1      -3.116  15.522  23.771  0.00  0.00    +0.000 A 
ATOM     21  C   UNL     1      -4.181  14.785  24.286  0.00  0.00    +0.000 A 
ATOM     22  C   UNL     1      -4.186  13.397  24.166  0.00  0.00    +0.000 A 
ATOM     23  C   UNL     1      -3.128  12.746  23.527  0.00  0.00    +0.000 A 
ENDBRANCH  14  18
ENDBRANCH  10  12
ENDBRANCH   5   8
BRANCH   1  25
ATOM     24  C   UNL     1       1.332   2.788  18.873  0.00  0.00    +0.000 C 
ATOM     25  C   UNL     1       2.620   3.295  19.500  0.00  0.00    +0.000 C 
ENDBRANCH   1  25
BRANCH   1  26
ATOM     26  C   UNL     1       3.590   4.188  17.341  0.00  0.00    +0.000 C 
BRANCH  26  27
ATOM     27  C   UNL     1       5.062   4.393  17.015  0.00  0.00    +0.000 A 
ATOM     28  C   UNL     1       5.514   4.444  15.692  0.00  0.00    +0.000 A 
ATOM     29  C   UNL     1       6.878   4.528  15.453  0.00  0.00    +0.000 A 
ATOM     30  N   UNL     1       7.810   4.603  16.425  0.00  0.00    +0.000 NA
ATOM     31  C   UNL     1       7.355   4.613  17.695  0.00  0.00    +0.000 A 
ATOM     32  C   UNL     1       6.012   4.526  18.036  0.00  0.00    +0.000 A 
ENDBRANCH  26  27
ENDBRANCH   1  26
TORSDOF 6
ENDMDL
MODEL 7
REMARK VINA RESULT:      -8.3      1.172      1.523
REMARK  Name = 
REMARK  8 active torsions:
REMARK  status: ('A' for Active; 'I' for Inactive)
REMARK    1  A    between atoms: C_1  and  C_2
REMARK    2  A    between atoms: C_2  and  N_3
REMARK    3  A    between atoms: N_3  and  C_4
REMARK    4  A    between atoms: C_4  and  C_5
REMARK    5  A    between atoms: C_14  and  C_15
REMARK    6  A    between atoms: N_17  and  C_18
REMARK    7  A    between atoms: C_20  and  C_21
REMARK    8  A    between atoms: N_28  and  C_29
REMARK                            x       y       z     vdW  Elec       q    Type
REMARK                         _______ _______ _______ _____ _____    ______ ____
ROOT
ATOM      1  N   UNL     1       3.269   4.515  18.533  0.00  0.00    +0.000 N 
ATOM      2  C   UNL     1       2.726   5.789  18.873  0.00  0.00    +0.000 A 
ATOM      3  C   UNL     1       2.334   6.064  20.183  0.00  0.00    +0.000 A 
ATOM      4  C   UNL     1       1.762   7.284  20.525  0.00  0.00    +0.000 A 
ATOM      5  C   UNL     1       1.638   8.242  19.552  0.00  0.00    +0.000 A 
ATOM      6  N   UNL     1       2.045   8.034  18.286  0.00  0.00    +0.000 NA
ATOM      7  N   UNL     1       2.585   6.788  17.961  0.00  0.00    +0.000 NA
ENDROOT
BRANCH   5   8
ATOM      8  C   UNL     1       1.048   9.554  19.896  0.00  0.00    +0.000 C 
ATOM      9  O   UNL     1       1.528  10.579  19.450  0.00  0.00    +0.000 OA
ATOM     10  N   UNL     1      -0.071   9.576  20.803  0.00  0.00    +0.000 N 
ATOM     11  H   UNL     1      -0.374   8.700  21.214  0.00  0.00    +0.000 HD
BRANCH  10  12
ATOM     12  C   UNL     1      -0.714  10.768  21.140  0.00  0.00    +0.000 A 
ATOM     13  C   UNL     1      -0.706  11.402  22.360  0.00  0.00    +0.000 A 
ATOM     14  C   UNL     1      -1.497  12.571  22.221  0.00  0.00    +0.000 A 
ATOM     15  N   UNL     1      -1.961  12.661  20.964  0.00  0.00    +0.000 NA
ATOM     16  N   UNL     1      -1.482  11.573  20.337  0.00  0.00    +0.000 N 
ATOM     17  C   UNL     1      -1.888  11.334  18.973  0.00  0.00    +0.000 C 
BRANCH  14  18
ATOM     18  C   UNL     1      -1.800  13.576  23.245  0.00  0.00    +0.000 A 
ATOM     19  C   UNL     1      -0.902  14.619  23.529  0.00  0.00    +0.000 A 
ATOM     20  C   UNL     1      -1.202  15.577  24.501  0.00  0.00    +0.000 A 
ATOM     21  C   UNL     1      -2.401  15.504  25.206  0.00  0.00    +0.000 A 
ATOM     22  C   UNL     1      -3.299  14.472  24.942  0.00  0.00    +0.000 A 
ATOM     23  C   UNL     1      -2.999  13.514  23.969  0.00  0.00    +0.000 A 
ENDBRANCH  14  18
ENDBRANCH  10  12
ENDBRANCH   5   8
BRANCH   1  25
ATOM     24  C   UNL     1       3.050   2.000  18.809  0.00  0.00    +0.000 C 
ATOM     25  C   UNL     1       2.582   3.390  19.208  0.00  0.00    +0.000 C 
ENDBRANCH   1  25
BRANCH   1  26
ATOM     26  C   UNL     1       3.539   4.371  17.081  0.00  0.00    +0.000 C 
BRANCH  26  27
ATOM     27  C   UNL     1       5.025   4.387  16.758  0.00  0.00    +0.000 A 
ATOM     28  C   UNL     1       5.989   4.477  17.768  0.00  0.00    +0.000 A 
ATOM     29  C   UNL     1       7.324   4.591  17.411  0.00  0.00    +0.000 A 
ATOM     30  N   UNL     1       7.767   4.584  16.137  0.00  0.00    +0.000 NA
ATOM     31  C   UNL     1       6.832   4.437  15.176  0.00  0.00    +0.000 A 
ATOM     32  C   UNL     1       5.472   4.322  15.431  0.00  0.00    +0.000 A 
ENDBRANCH  26  27
ENDBRANCH   1  26
TORSDOF 6
ENDMDL
MODEL 8
REMARK VINA RESULT:      -8.2      2.693      3.890
REMARK  Name = 
REMARK  8 active torsions:
REMARK  status: ('A' for Active; 'I' for Inactive)
REMARK    1  A    between atoms: C_1  and  C_2
REMARK    2  A    between atoms: C_2  and  N_3
REMARK    3  A    between atoms: N_3  and  C_4
REMARK    4  A    between atoms: C_4  and  C_5
REMARK    5  A    between atoms: C_14  and  C_15
REMARK    6  A    between atoms: N_17  and  C_18
REMARK    7  A    between atoms: C_20  and  C_21
REMARK    8  A    between atoms: N_28  and  C_29
REMARK                            x       y       z     vdW  Elec       q    Type
REMARK                         _______ _______ _______ _____ _____    ______ ____
ROOT
ATOM      1  N   UNL     1       3.182   5.030  19.202  0.00  0.00    +0.000 N 
ATOM      2  C   UNL     1       2.585   6.321  19.115  0.00  0.00    +0.000 A 
ATOM      3  C   UNL     1       2.199   7.002  20.270  0.00  0.00    +0.000 A 
ATOM      4  C   UNL     1       1.575   8.242  20.204  0.00  0.00    +0.000 A 
ATOM      5  C   UNL     1       1.392   8.815  18.972  0.00  0.00    +0.000 A 
ATOM      6  N   UNL     1       1.791   8.214  17.836  0.00  0.00    +0.000 NA
ATOM      7  N   UNL     1       2.384   6.953  17.928  0.00  0.00    +0.000 NA
ENDROOT
BRANCH   5   8
ATOM      8  C   UNL     1       0.746  10.142  18.879  0.00  0.00    +0.000 C 
ATOM      9  O   UNL     1      -0.193  10.315  18.124  0.00  0.00    +0.000 OA
ATOM     10  N   UNL     1       1.290  11.218  19.668  0.00  0.00    +0.000 N 
ATOM     11  H   UNL     1       2.127  11.039  20.211  0.00  0.00    +0.000 HD
BRANCH  10  12
ATOM     12  C   UNL     1       0.707  12.487  19.673  0.00  0.00    +0.000 A 
ATOM     13  C   UNL     1       1.079  13.575  18.919  0.00  0.00    +0.000 A 
ATOM     14  C   UNL     1       0.202  14.634  19.267  0.00  0.00    +0.000 A 
ATOM     15  N   UNL     1      -0.683  14.211  20.184  0.00  0.00    +0.000 NA
ATOM     16  N   UNL     1      -0.361  12.926  20.413  0.00  0.00    +0.000 N 
ATOM     17  C   UNL     1      -1.084  12.210  21.435  0.00  0.00    +0.000 C 
BRANCH  14  18
ATOM     18  C   UNL     1       0.196  16.003  18.742  0.00  0.00    +0.000 A 
ATOM     19  C   UNL     1       1.351  16.571  18.177  0.00  0.00    +0.000 A 
ATOM     20  C   UNL     1       1.335  17.873  17.672  0.00  0.00    +0.000 A 
ATOM     21  C   UNL     1       0.166  18.629  17.728  0.00  0.00    +0.000 A 
ATOM     22  C   UNL     1      -0.986  18.084  18.291  0.00  0.00    +0.000 A 
ATOM     23  C   UNL     1      -0.969  16.780  18.796  0.00  0.00    +0.000 A 
ENDBRANCH  14  18
ENDBRANCH  10  12
ENDBRANCH   5   8
BRANCH   1  25
ATOM     24  C   UNL     1       1.333   3.389  19.782  0.00  0.00    +0.000 C 
ATOM     25  C   UNL     1       2.558   4.167  20.232  0.00  0.00    +0.000 C 
ENDBRANCH   1  25
BRANCH   1  26
ATOM     26  C   UNL     1       3.438   4.421  17.873  0.00  0.00    +0.000 C 
BRANCH  26  27
ATOM     27  C   UNL     1       4.910   4.446  17.491  0.00  0.00    +0.000 A 
ATOM     28  C   UNL     1       5.905   4.693  18.443  0.00  0.00    +0.000 A 
ATOM     29  C   UNL     1       7.222   4.806  18.022  0.00  0.00    +0.000 A 
ATOM     30  N   UNL     1       7.619   4.657  16.742  0.00  0.00    +0.000 NA
ATOM     31  C   UNL     1       6.657   4.361  15.845  0.00  0.00    +0.000 A 
ATOM     32  C   UNL     1       5.312   4.233  16.166  0.00  0.00    +0.000 A 
ENDBRANCH  26  27
ENDBRANCH   1  26
TORSDOF 6
ENDMDL
MODEL 9
REMARK VINA RESULT:      -8.1      6.712     11.166
REMARK  Name = 
REMARK  8 active torsions:
REMARK  status: ('A' for Active; 'I' for Inactive)
REMARK    1  A    between atoms: C_1  and  C_2
REMARK    2  A    between atoms: C_2  and  N_3
REMARK    3  A    between atoms: N_3  and  C_4
REMARK    4  A    between atoms: C_4  and  C_5
REMARK    5  A    between atoms: C_14  and  C_15
REMARK    6  A    between atoms: N_17  and  C_18
REMARK    7  A    between atoms: C_20  and  C_21
REMARK    8  A    between atoms: N_28  and  C_29
REMARK                            x       y       z     vdW  Elec       q    Type
REMARK                         _______ _______ _______ _____ _____    ______ ____
ROOT
ATOM      1  N   UNL     1      10.060  13.267  18.466  0.00  0.00    +0.000 N 
ATOM      2  C   UNL     1       9.474  11.971  18.371  0.00  0.00    +0.000 A 
ATOM      3  C   UNL     1       9.861  10.953  19.243  0.00  0.00    +0.000 A 
ATOM      4  C   UNL     1       9.334   9.672  19.137  0.00  0.00    +0.000 A 
ATOM      5  C   UNL     1       8.375   9.437  18.186  0.00  0.00    +0.000 A 
ATOM      6  N   UNL     1       7.939  10.402  17.355  0.00  0.00    +0.000 NA
ATOM      7  N   UNL     1       8.510  11.672  17.460  0.00  0.00    +0.000 NA
ENDROOT
BRANCH   5   8
ATOM      8  C   UNL     1       7.786   8.085  18.067  0.00  0.00    +0.000 C 
ATOM      9  O   UNL     1       8.274   7.149  18.672  0.00  0.00    +0.000 OA
ATOM     10  N   UNL     1       6.660   7.912  17.185  0.00  0.00    +0.000 N 
ATOM     11  H   UNL     1       6.352   8.708  16.638  0.00  0.00    +0.000 HD
BRANCH  10  12
ATOM     12  C   UNL     1       6.019   6.679  17.055  0.00  0.00    +0.000 A 
ATOM     13  C   UNL     1       4.899   6.249  17.727  0.00  0.00    +0.000 A 
ATOM     14  C   UNL     1       4.623   4.936  17.267  0.00  0.00    +0.000 A 
ATOM     15  N   UNL     1       5.525   4.578  16.340  0.00  0.00    +0.000 NA
ATOM     16  N   UNL     1       6.350   5.634  16.230  0.00  0.00    +0.000 N 
ATOM     17  C   UNL     1       7.498   5.520  15.363  0.00  0.00    +0.000 C 
BRANCH  14  18
ATOM     18  C   UNL     1       3.533   4.049  17.687  0.00  0.00    +0.000 A 
ATOM     19  C   UNL     1       2.238   4.545  17.918  0.00  0.00    +0.000 A 
ATOM     20  C   UNL     1       1.204   3.692  18.310  0.00  0.00    +0.000 A 
ATOM     21  C   UNL     1       1.450   2.331  18.483  0.00  0.00    +0.000 A 
ATOM     22  C   UNL     1       2.729   1.825  18.266  0.00  0.00    +0.000 A 
ATOM     23  C   UNL     1       3.763   2.678  17.872  0.00  0.00    +0.000 A 
ENDBRANCH  14  18
ENDBRANCH  10  12
ENDBRANCH   5   8
BRANCH   1  25
ATOM     24  C   UNL     1      12.013  14.227  19.775  0.00  0.00    +0.000 C 
ATOM     25  C   UNL     1      11.515  13.230  18.743  0.00  0.00    +0.000 C 
ENDBRANCH   1  25
BRANCH   1  26
ATOM     26  C   UNL     1       9.597  14.191  17.401  0.00  0.00    +0.000 C 
BRANCH  26  27
ATOM     27  C   UNL     1       8.896  15.421  17.958  0.00  0.00    +0.000 A 
ATOM     28  C   UNL     1       7.563  15.372  18.378  0.00  0.00    +0.000 A 
ATOM     29  C   UNL     1       6.944  16.546  18.780  0.00  0.00    +0.000 A 
ATOM     30  N   UNL     1       7.561  17.745  18.829  0.00  0.00    +0.000 NA
ATOM     31  C   UNL     1       8.863  17.766  18.478  0.00  0.00    +0.000 A 
ATOM     32  C   UNL     1       9.569  16.646  18.055  0.00  0.00    +0.000 A 
ENDBRANCH  26  27
ENDBRANCH   1  26
TORSDOF 6
ENDMDL
