MODEL 1
REMARK VINA RESULT:      -8.4      0.000      0.000
REMARK  Name = 
REMARK  9 active torsions:
REMARK  status: ('A' for Active; 'I' for Inactive)
REMARK    1  A    between atoms: C_1  and  O_2
REMARK    2  A    between atoms: O_2  and  C_3
REMARK    3  A    between atoms: C_8  and  C_9
REMARK    4  A    between atoms: C_12  and  C_13
REMARK    5  A    between atoms: N_15  and  C_16
REMARK    6  A    between atoms: C_16  and  C_17
REMARK    7  A    between atoms: C_20  and  C_21
REMARK    8  A    between atoms: C_21  and  C_22
REMARK    9  A    between atoms: C_21  and  C_23
REMARK                            x       y       z     vdW  Elec       q    Type
REMARK                         _______ _______ _______ _____ _____    ______ ____
ROOT
ATOM      1  C   UNL     1       2.859   6.149  19.835  0.00  0.00    +0.000 C 
ATOM      2  C   UNL     1       2.166   5.152  20.782  0.00  0.00    +0.000 C 
ATOM      3  C   UNL     1       1.074   4.312  20.118  0.00  0.00    +0.000 C 
ATOM      4  C   UNL     1       1.473   3.732  18.756  0.00  0.00    +0.000 C 
ATOM      5  C   UNL     1       2.066   2.326  18.903  0.00  0.00    +0.000 C 
ATOM      6  C   UNL     1       2.334   4.717  17.933  0.00  0.00    +0.000 C 
ATOM      7  N   UNL     1       3.407   5.428  18.647  0.00  0.00    +0.000 NA
ENDROOT
BRANCH   1  13
ATOM      8  C   UNL     1       1.480   8.370  20.304  0.00  0.00    +0.000 A 
ATOM      9  C   UNL     1       1.083   9.640  19.838  0.00  0.00    +0.000 A 
ATOM     10  C   UNL     1       1.230  10.003  18.505  0.00  0.00    +0.000 A 
ATOM     11  C   UNL     1       1.802   9.105  17.621  0.00  0.00    +0.000 A 
ATOM     12  C   UNL     1       2.268   7.871  18.087  0.00  0.00    +0.000 A 
ATOM     13  C   UNL     1       2.140   7.470  19.442  0.00  0.00    +0.000 A 
BRANCH   8  15
ATOM     14  C   UNL     1       0.662   9.057  22.412  0.00  0.00    +0.000 C 
ATOM     15  O   UNL     1       1.253   8.026  21.613  0.00  0.00    +0.000 OA
ENDBRANCH   8  15
ENDBRANCH   1  13
BRANCH   7  16
ATOM     16  C   UNL     1       4.539   4.514  18.925  0.00  0.00    +0.000 C 
BRANCH  16  17
ATOM     17  C   UNL     1       5.660   4.480  17.948  0.00  0.00    +0.000 A 
ATOM     18  N   UNL     1       6.951   4.588  18.189  0.00  0.00    +0.000 NA
ATOM     19  N   UNL     1       7.586   4.469  16.977  0.00  0.00    +0.000 NA
ATOM     20  C   UNL     1       6.640   4.288  16.081  0.00  0.00    +0.000 A 
ATOM     21  O   UNL     1       5.381   4.268  16.623  0.00  0.00    +0.000 OA
BRANCH  20  22
ATOM     22  C   UNL     1       6.748   4.162  14.605  0.00  0.00    +0.000 C 
ATOM     23  C   UNL     1       5.350   4.054  13.998  0.00  0.00    +0.000 C 
ATOM     24  C   UNL     1       7.510   5.342  14.005  0.00  0.00    +0.000 C 
ENDBRANCH  20  22
ENDBRANCH  16  17
ENDBRANCH   7  16
TORSDOF 5
ENDMDL
MODEL 2
REMARK VINA RESULT:      -7.8      2.486      5.009
REMARK  Name = 
REMARK  9 active torsions:
REMARK  status: ('A' for Active; 'I' for Inactive)
REMARK    1  A    between atoms: C_1  and  O_2
REMARK    2  A    between atoms: O_2  and  C_3
REMARK    3  A    between atoms: C_8  and  C_9
REMARK    4  A    between atoms: C_12  and  C_13
REMARK    5  A    between atoms: N_15  and  C_16
REMARK    6  A    between atoms: C_16  and  C_17
REMARK    7  A    between atoms: C_20  and  C_21
REMARK    8  A    between atoms: C_21  and  C_22
REMARK    9  A    between atoms: C_21  and  C_23
REMARK                            x       y       z     vdW  Elec       q    Type
REMARK                         _______ _______ _______ _____ _____    ______ ____
ROOT
ATOM      1  C   UNL     1       4.788   5.231  16.663  0.00  0.00    +0.000 C 
ATOM      2  C   UNL     1       4.842   6.708  17.095  0.00  0.00    +0.000 C 
ATOM      3  C   UNL     1       5.539   6.942  18.436  0.00  0.00    +0.000 C 
ATOM      4  C   UNL     1       6.858   6.177  18.598  0.00  0.00    +0.000 C 
ATOM      5  C   UNL     1       8.052   7.029  18.153  0.00  0.00    +0.000 C 
ATOM      6  C   UNL     1       6.795   4.768  17.968  0.00  0.00    +0.000 C 
ATOM      7  N   UNL     1       6.165   4.654  16.641  0.00  0.00    +0.000 NA
ENDROOT
BRANCH   1  13
ATOM      8  C   UNL     1       2.507   4.612  17.874  0.00  0.00    +0.000 A 
ATOM      9  C   UNL     1       1.582   3.606  18.217  0.00  0.00    +0.000 A 
ATOM     10  C   UNL     1       1.905   2.258  18.120  0.00  0.00    +0.000 A 
ATOM     11  C   UNL     1       3.157   1.897  17.653  0.00  0.00    +0.000 A 
ATOM     12  C   UNL     1       4.056   2.885  17.239  0.00  0.00    +0.000 A 
ATOM     13  C   UNL     1       3.758   4.270  17.319  0.00  0.00    +0.000 A 
BRANCH   8  15
ATOM     14  C   UNL     1       2.143   6.366  19.415  0.00  0.00    +0.000 C 
ATOM     15  O   UNL     1       2.172   5.931  18.052  0.00  0.00    +0.000 OA
ENDBRANCH   8  15
ENDBRANCH   1  13
BRANCH   7  16
ATOM     16  C   UNL     1       7.064   5.192  15.594  0.00  0.00    +0.000 C 
BRANCH  16  17
ATOM     17  C   UNL     1       6.893   4.687  14.205  0.00  0.00    +0.000 A 
ATOM     18  N   UNL     1       7.517   5.084  13.114  0.00  0.00    +0.000 NA
ATOM     19  N   UNL     1       7.042   4.305  12.087  0.00  0.00    +0.000 NA
ATOM     20  C   UNL     1       6.168   3.481  12.623  0.00  0.00    +0.000 A 
ATOM     21  O   UNL     1       6.025   3.653  13.976  0.00  0.00    +0.000 OA
BRANCH  20  22
ATOM     22  C   UNL     1       5.304   2.464  11.971  0.00  0.00    +0.000 C 
ATOM     23  C   UNL     1       4.216   3.163  11.157  0.00  0.00    +0.000 C 
ATOM     24  C   UNL     1       6.126   1.528  11.087  0.00  0.00    +0.000 C 
ENDBRANCH  20  22
ENDBRANCH  16  17
ENDBRANCH   7  16
TORSDOF 5
ENDMDL
MODEL 3
REMARK VINA RESULT:      -7.7      1.219      2.014
REMARK  Name = 
REMARK  9 active torsions:
REMARK  status: ('A' for Active; 'I' for Inactive)
REMARK    1  A    between atoms: C_1  and  O_2
REMARK    2  A    between atoms: O_2  and  C_3
REMARK    3  A    between atoms: C_8  and  C_9
REMARK    4  A    between atoms: C_12  and  C_13
REMARK    5  A    between atoms: N_15  and  C_16
REMARK    6  A    between atoms: C_16  and  C_17
REMARK    7  A    between atoms: C_20  and  C_21
REMARK    8  A    between atoms: C_21  and  C_22
REMARK    9  A    between atoms: C_21  and  C_23
REMARK                            x       y       z     vdW  Elec       q    Type
REMARK                         _______ _______ _______ _____ _____    ______ ____
ROOT
ATOM      1  C   UNL     1       3.025   5.680  19.648  0.00  0.00    +0.000 C 
ATOM      2  C   UNL     1       2.500   4.755  20.760  0.00  0.00    +0.000 C 
ATOM      3  C   UNL     1       1.155   4.098  20.444  0.00  0.00    +0.000 C 
ATOM      4  C   UNL     1       1.059   3.519  19.029  0.00  0.00    +0.000 C 
ATOM      5  C   UNL     1       1.462   2.040  19.004  0.00  0.00    +0.000 C 
ATOM      6  C   UNL     1       1.777   4.405  17.986  0.00  0.00    +0.000 C 
ATOM      7  N   UNL     1       3.101   4.935  18.356  0.00  0.00    +0.000 NA
ENDROOT
BRANCH   1  13
ATOM      8  C   UNL     1       2.428   7.893  18.305  0.00  0.00    +0.000 A 
ATOM      9  C   UNL     1       1.635   9.056  18.229  0.00  0.00    +0.000 A 
ATOM     10  C   UNL     1       0.911   9.515  19.323  0.00  0.00    +0.000 A 
ATOM     11  C   UNL     1       0.951   8.798  20.506  0.00  0.00    +0.000 A 
ATOM     12  C   UNL     1       1.674   7.602  20.571  0.00  0.00    +0.000 A 
ATOM     13  C   UNL     1       2.420   7.101  19.473  0.00  0.00    +0.000 A 
BRANCH   8  15
ATOM     14  C   UNL     1       4.587   7.753  17.358  0.00  0.00    +0.000 C 
ATOM     15  O   UNL     1       3.182   7.514  17.224  0.00  0.00    +0.000 OA
ENDBRANCH   8  15
ENDBRANCH   1  13
BRANCH   7  16
ATOM     16  C   UNL     1       4.122   3.864  18.298  0.00  0.00    +0.000 C 
BRANCH  16  17
ATOM     17  C   UNL     1       5.296   4.071  17.408  0.00  0.00    +0.000 A 
ATOM     18  N   UNL     1       6.515   4.442  17.744  0.00  0.00    +0.000 NA
ATOM     19  N   UNL     1       7.249   4.467  16.584  0.00  0.00    +0.000 NA
ATOM     20  C   UNL     1       6.431   4.102  15.621  0.00  0.00    +0.000 A 
ATOM     21  O   UNL     1       5.166   3.818  16.068  0.00  0.00    +0.000 OA
BRANCH  20  22
ATOM     22  C   UNL     1       6.672   4.013  14.158  0.00  0.00    +0.000 C 
ATOM     23  C   UNL     1       5.335   3.922  13.424  0.00  0.00    +0.000 C 
ATOM     24  C   UNL     1       7.484   5.208  13.660  0.00  0.00    +0.000 C 
ENDBRANCH  20  22
ENDBRANCH  16  17
ENDBRANCH   7  16
TORSDOF 5
ENDMDL
MODEL 4
REMARK VINA RESULT:      -7.7      1.851      6.484
REMARK  Name = 
REMARK  9 active torsions:
REMARK  status: ('A' for Active; 'I' for Inactive)
REMARK    1  A    between atoms: C_1  and  O_2
REMARK    2  A    between atoms: O_2  and  C_3
REMARK    3  A    between atoms: C_8  and  C_9
REMARK    4  A    between atoms: C_12  and  C_13
REMARK    5  A    between atoms: N_15  and  C_16
REMARK    6  A    between atoms: C_16  and  C_17
REMARK    7  A    between atoms: C_20  and  C_21
REMARK    8  A    between atoms: C_21  and  C_22
REMARK    9  A    between atoms: C_21  and  C_23
REMARK                            x       y       z     vdW  Elec       q    Type
REMARK                         _______ _______ _______ _____ _____    ______ ____
ROOT
ATOM      1  C   UNL     1       3.431   4.906  17.849  0.00  0.00    +0.000 C 
ATOM      2  C   UNL     1       2.247   4.036  17.390  0.00  0.00    +0.000 C 
ATOM      3  C   UNL     1       2.377   2.558  17.759  0.00  0.00    +0.000 C 
ATOM      4  C   UNL     1       2.832   2.312  19.202  0.00  0.00    +0.000 C 
ATOM      5  C   UNL     1       1.634   2.148  20.144  0.00  0.00    +0.000 C 
ATOM      6  C   UNL     1       3.885   3.344  19.665  0.00  0.00    +0.000 C 
ATOM      7  N   UNL     1       3.637   4.755  19.320  0.00  0.00    +0.000 NA
ENDROOT
BRANCH   1  13
ATOM      8  C   UNL     1       6.049   5.233  17.535  0.00  0.00    +0.000 A 
ATOM      9  C   UNL     1       7.200   4.922  16.785  0.00  0.00    +0.000 A 
ATOM     10  C   UNL     1       7.112   4.351  15.522  0.00  0.00    +0.000 A 
ATOM     11  C   UNL     1       5.864   4.057  15.000  0.00  0.00    +0.000 A 
ATOM     12  C   UNL     1       4.718   4.292  15.765  0.00  0.00    +0.000 A 
ATOM     13  C   UNL     1       4.771   4.869  17.061  0.00  0.00    +0.000 A 
BRANCH   8  15
ATOM     14  C   UNL     1       7.456   5.706  19.372  0.00  0.00    +0.000 C 
ATOM     15  O   UNL     1       6.178   5.862  18.748  0.00  0.00    +0.000 OA
ENDBRANCH   8  15
ENDBRANCH   1  13
BRANCH   7  16
ATOM     16  C   UNL     1       2.564   5.316  20.174  0.00  0.00    +0.000 C 
BRANCH  16  17
ATOM     17  C   UNL     1       2.167   6.732  19.949  0.00  0.00    +0.000 A 
ATOM     18  N   UNL     1       2.394   7.480  18.888  0.00  0.00    +0.000 NA
ATOM     19  N   UNL     1       1.814   8.699  19.139  0.00  0.00    +0.000 NA
ATOM     20  C   UNL     1       1.266   8.609  20.331  0.00  0.00    +0.000 A 
ATOM     21  O   UNL     1       1.436   7.378  20.910  0.00  0.00    +0.000 OA
BRANCH  20  22
ATOM     22  C   UNL     1       0.561   9.645  21.129  0.00  0.00    +0.000 C 
ATOM     23  C   UNL     1      -0.287  10.514  20.202  0.00  0.00    +0.000 C 
ATOM     24  C   UNL     1      -0.302   9.009  22.218  0.00  0.00    +0.000 C 
ENDBRANCH  20  22
ENDBRANCH  16  17
ENDBRANCH   7  16
TORSDOF 5
ENDMDL
MODEL 5
REMARK VINA RESULT:      -7.6      2.192      4.200
REMARK  Name = 
REMARK  9 active torsions:
REMARK  status: ('A' for Active; 'I' for Inactive)
REMARK    1  A    between atoms: C_1  and  O_2
REMARK    2  A    between atoms: O_2  and  C_3
REMARK    3  A    between atoms: C_8  and  C_9
REMARK    4  A    between atoms: C_12  and  C_13
REMARK    5  A    between atoms: N_15  and  C_16
REMARK    6  A    between atoms: C_16  and  C_17
REMARK    7  A    between atoms: C_20  and  C_21
REMARK    8  A    between atoms: C_21  and  C_22
REMARK    9  A    between atoms: C_21  and  C_23
REMARK                            x       y       z     vdW  Elec       q    Type
REMARK                         _______ _______ _______ _____ _____    ______ ____
ROOT
ATOM      1  C   UNL     1       3.712   5.448  17.940  0.00  0.00    +0.000 C 
ATOM      2  C   UNL     1       4.644   6.299  18.822  0.00  0.00    +0.000 C 
ATOM      3  C   UNL     1       5.809   5.521  19.434  0.00  0.00    +0.000 C 
ATOM      4  C   UNL     1       6.529   4.595  18.447  0.00  0.00    +0.000 C 
ATOM      5  C   UNL     1       7.720   5.301  17.788  0.00  0.00    +0.000 C 
ATOM      6  C   UNL     1       5.549   3.919  17.461  0.00  0.00    +0.000 C 
ATOM      7  N   UNL     1       4.501   4.768  16.870  0.00  0.00    +0.000 NA
ENDROOT
BRANCH   1  13
ATOM      8  C   UNL     1       1.995   4.694  19.822  0.00  0.00    +0.000 A 
ATOM      9  C   UNL     1       0.914   3.863  20.175  0.00  0.00    +0.000 A 
ATOM     10  C   UNL     1       0.552   2.770  19.397  0.00  0.00    +0.000 A 
ATOM     11  C   UNL     1       1.256   2.508  18.234  0.00  0.00    +0.000 A 
ATOM     12  C   UNL     1       2.283   3.369  17.835  0.00  0.00    +0.000 A 
ATOM     13  C   UNL     1       2.676   4.497  18.602  0.00  0.00    +0.000 A 
BRANCH   8  15
ATOM     14  C   UNL     1       1.487   6.852  20.637  0.00  0.00    +0.000 C 
ATOM     15  O   UNL     1       2.363   5.720  20.655  0.00  0.00    +0.000 OA
ENDBRANCH   8  15
ENDBRANCH   1  13
BRANCH   7  16
ATOM     16  C   UNL     1       5.079   5.662  15.840  0.00  0.00    +0.000 C 
BRANCH  16  17
ATOM     17  C   UNL     1       5.760   5.033  14.677  0.00  0.00    +0.000 A 
ATOM     18  N   UNL     1       6.950   5.312  14.185  0.00  0.00    +0.000 NA
ATOM     19  N   UNL     1       7.150   4.451  13.134  0.00  0.00    +0.000 NA
ATOM     20  C   UNL     1       6.072   3.700  13.063  0.00  0.00    +0.000 A 
ATOM     21  O   UNL     1       5.141   4.000  14.023  0.00  0.00    +0.000 OA
BRANCH  20  22
ATOM     22  C   UNL     1       5.719   2.644  12.079  0.00  0.00    +0.000 C 
ATOM     23  C   UNL     1       4.537   3.112  11.230  0.00  0.00    +0.000 C 
ATOM     24  C   UNL     1       6.915   2.290  11.196  0.00  0.00    +0.000 C 
ENDBRANCH  20  22
ENDBRANCH  16  17
ENDBRANCH   7  16
TORSDOF 5
ENDMDL
MODEL 6
REMARK VINA RESULT:      -7.6      1.992      6.482
REMARK  Name = 
REMARK  9 active torsions:
REMARK  status: ('A' for Active; 'I' for Inactive)
REMARK    1  A    between atoms: C_1  and  O_2
REMARK    2  A    between atoms: O_2  and  C_3
REMARK    3  A    between atoms: C_8  and  C_9
REMARK    4  A    between atoms: C_12  and  C_13
REMARK    5  A    between atoms: N_15  and  C_16
REMARK    6  A    between atoms: C_16  and  C_17
REMARK    7  A    between atoms: C_20  and  C_21
REMARK    8  A    between atoms: C_21  and  C_22
REMARK    9  A    between atoms: C_21  and  C_23
REMARK                            x       y       z     vdW  Elec       q    Type
REMARK                         _______ _______ _______ _____ _____    ______ ____
ROOT
ATOM      1  C   UNL     1       3.456   5.437  17.524  0.00  0.00    +0.000 C 
ATOM      2  C   UNL     1       2.352   4.364  17.560  0.00  0.00    +0.000 C 
ATOM      3  C   UNL     1       2.674   3.165  18.454  0.00  0.00    +0.000 C 
ATOM      4  C   UNL     1       3.247   3.543  19.825  0.00  0.00    +0.000 C 
ATOM      5  C   UNL     1       2.138   3.666  20.876  0.00  0.00    +0.000 C 
ATOM      6  C   UNL     1       4.201   4.756  19.743  0.00  0.00    +0.000 C 
ATOM      7  N   UNL     1       3.772   5.892  18.910  0.00  0.00    +0.000 NA
ENDROOT
BRANCH   1  13
ATOM      8  C   UNL     1       5.895   6.006  16.640  0.00  0.00    +0.000 A 
ATOM      9  C   UNL     1       7.065   5.540  16.007  0.00  0.00    +0.000 A 
ATOM     10  C   UNL     1       7.087   4.336  15.315  0.00  0.00    +0.000 A 
ATOM     11  C   UNL     1       5.939   3.564  15.268  0.00  0.00    +0.000 A 
ATOM     12  C   UNL     1       4.793   3.980  15.954  0.00  0.00    +0.000 A 
ATOM     13  C   UNL     1       4.737   5.201  16.676  0.00  0.00    +0.000 A 
BRANCH   8  15
ATOM     14  C   UNL     1       7.197   7.750  17.559  0.00  0.00    +0.000 C 
ATOM     15  O   UNL     1       5.897   7.234  17.252  0.00  0.00    +0.000 OA
ENDBRANCH   8  15
ENDBRANCH   1  13
BRANCH   7  16
ATOM     16  C   UNL     1       2.699   6.655  19.589  0.00  0.00    +0.000 C 
BRANCH  16  17
ATOM     17  C   UNL     1       2.223   7.909  18.945  0.00  0.00    +0.000 A 
ATOM     18  N   UNL     1       2.618   8.434  17.803  0.00  0.00    +0.000 NA
ATOM     19  N   UNL     1       1.873   9.573  17.619  0.00  0.00    +0.000 NA
ATOM     20  C   UNL     1       1.070   9.660  18.657  0.00  0.00    +0.000 A 
ATOM     21  O   UNL     1       1.222   8.626  19.544  0.00  0.00    +0.000 OA
BRANCH  20  22
ATOM     22  C   UNL     1       0.093  10.722  19.010  0.00  0.00    +0.000 C 
ATOM     23  C   UNL     1      -1.153  10.581  18.137  0.00  0.00    +0.000 C 
ATOM     24  C   UNL     1      -0.273  10.663  20.492  0.00  0.00    +0.000 C 
ENDBRANCH  20  22
ENDBRANCH  16  17
ENDBRANCH   7  16
TORSDOF 5
ENDMDL
MODEL 7
REMARK VINA RESULT:      -7.6      1.880      2.181
REMARK  Name = 
REMARK  9 active torsions:
REMARK  status: ('A' for Active; 'I' for Inactive)
REMARK    1  A    between atoms: C_1  and  O_2
REMARK    2  A    between atoms: O_2  and  C_3
REMARK    3  A    between atoms: C_8  and  C_9
REMARK    4  A    between atoms: C_12  and  C_13
REMARK    5  A    between atoms: N_15  and  C_16
REMARK    6  A    between atoms: C_16  and  C_17
REMARK    7  A    between atoms: C_20  and  C_21
REMARK    8  A    between atoms: C_21  and  C_22
REMARK    9  A    between atoms: C_21  and  C_23
REMARK                            x       y       z     vdW  Elec       q    Type
REMARK                         _______ _______ _______ _____ _____    ______ ____
ROOT
ATOM      1  C   UNL     1       2.812   6.228  19.668  0.00  0.00    +0.000 C 
ATOM      2  C   UNL     1       2.337   5.332  20.827  0.00  0.00    +0.000 C 
ATOM      3  C   UNL     1       1.095   4.500  20.505  0.00  0.00    +0.000 C 
ATOM      4  C   UNL     1       1.142   3.809  19.138  0.00  0.00    +0.000 C 
ATOM      5  C   UNL     1       1.712   2.391  19.251  0.00  0.00    +0.000 C 
ATOM      6  C   UNL     1       1.809   4.693  18.061  0.00  0.00    +0.000 C 
ATOM      7  N   UNL     1       3.041   5.402  18.445  0.00  0.00    +0.000 NA
ENDROOT
BRANCH   1  13
ATOM      8  C   UNL     1       1.415   8.405  20.273  0.00  0.00    +0.000 A 
ATOM      9  C   UNL     1       0.981   9.684  19.871  0.00  0.00    +0.000 A 
ATOM     10  C   UNL     1       1.073  10.101  18.549  0.00  0.00    +0.000 A 
ATOM     11  C   UNL     1       1.628   9.248  17.610  0.00  0.00    +0.000 A 
ATOM     12  C   UNL     1       2.130   8.006  18.011  0.00  0.00    +0.000 A 
ATOM     13  C   UNL     1       2.058   7.550  19.353  0.00  0.00    +0.000 A 
BRANCH   8  15
ATOM     14  C   UNL     1       0.946   9.065  22.492  0.00  0.00    +0.000 C 
ATOM     15  O   UNL     1       1.241   8.006  21.574  0.00  0.00    +0.000 OA
ENDBRANCH   8  15
ENDBRANCH   1  13
BRANCH   7  16
ATOM     16  C   UNL     1       4.180   4.458  18.519  0.00  0.00    +0.000 C 
BRANCH  16  17
ATOM     17  C   UNL     1       5.544   5.028  18.687  0.00  0.00    +0.000 A 
ATOM     18  N   UNL     1       6.521   4.583  19.452  0.00  0.00    +0.000 NA
ATOM     19  N   UNL     1       7.589   5.422  19.249  0.00  0.00    +0.000 NA
ATOM     20  C   UNL     1       7.194   6.316  18.369  0.00  0.00    +0.000 A 
ATOM     21  O   UNL     1       5.902   6.125  17.950  0.00  0.00    +0.000 OA
BRANCH  20  22
ATOM     22  C   UNL     1       7.916   7.496  17.830  0.00  0.00    +0.000 C 
ATOM     23  C   UNL     1       6.923   8.439  17.153  0.00  0.00    +0.000 C 
ATOM     24  C   UNL     1       8.687   8.222  18.933  0.00  0.00    +0.000 C 
ENDBRANCH  20  22
ENDBRANCH  16  17
ENDBRANCH   7  16
TORSDOF 5
ENDMDL
MODEL 8
REMARK VINA RESULT:      -7.6      1.754      6.486
REMARK  Name = 
REMARK  9 active torsions:
REMARK  status: ('A' for Active; 'I' for Inactive)
REMARK    1  A    between atoms: C_1  and  O_2
REMARK    2  A    between atoms: O_2  and  C_3
REMARK    3  A    between atoms: C_8  and  C_9
REMARK    4  A    between atoms: C_12  and  C_13
REMARK    5  A    between atoms: N_15  and  C_16
REMARK    6  A    between atoms: C_16  and  C_17
REMARK    7  A    between atoms: C_20  and  C_21
REMARK    8  A    between atoms: C_21  and  C_22
REMARK    9  A    between atoms: C_21  and  C_23
REMARK                            x       y       z     vdW  Elec       q    Type
REMARK                         _______ _______ _______ _____ _____    ______ ____
ROOT
ATOM      1  C   UNL     1       3.720   4.877  17.427  0.00  0.00    +0.000 C 
ATOM      2  C   UNL     1       2.807   3.638  17.394  0.00  0.00    +0.000 C 
ATOM      3  C   UNL     1       3.419   2.393  18.039  0.00  0.00    +0.000 C 
ATOM      4  C   UNL     1       4.094   2.656  19.389  0.00  0.00    +0.000 C 
ATOM      5  C   UNL     1       3.121   2.430  20.552  0.00  0.00    +0.000 C 
ATOM      6  C   UNL     1       4.834   4.012  19.416  0.00  0.00    +0.000 C 
ATOM      7  N   UNL     1       4.135   5.169  18.833  0.00  0.00    +0.000 NA
ENDROOT
BRANCH   1  13
ATOM      8  C   UNL     1       6.012   5.864  16.516  0.00  0.00    +0.000 A 
ATOM      9  C   UNL     1       7.123   5.690  15.667  0.00  0.00    +0.000 A 
ATOM     10  C   UNL     1       7.123   4.736  14.657  0.00  0.00    +0.000 A 
ATOM     11  C   UNL     1       6.015   3.921  14.499  0.00  0.00    +0.000 A 
ATOM     12  C   UNL     1       4.937   4.034  15.383  0.00  0.00    +0.000 A 
ATOM     13  C   UNL     1       4.906   4.992  16.429  0.00  0.00    +0.000 A 
BRANCH   8  15
ATOM     14  C   UNL     1       7.268   7.566  17.568  0.00  0.00    +0.000 C 
ATOM     15  O   UNL     1       6.025   6.864  17.455  0.00  0.00    +0.000 OA
ENDBRANCH   8  15
ENDBRANCH   1  13
BRANCH   7  16
ATOM     16  C   UNL     1       3.051   5.628  19.733  0.00  0.00    +0.000 C 
BRANCH  16  17
ATOM     17  C   UNL     1       2.465   6.972  19.485  0.00  0.00    +0.000 A 
ATOM     18  N   UNL     1       2.545   7.703  18.392  0.00  0.00    +0.000 NA
ATOM     19  N   UNL     1       1.824   8.847  18.634  0.00  0.00    +0.000 NA
ATOM     20  C   UNL     1       1.348   8.732  19.854  0.00  0.00    +0.000 A 
ATOM     21  O   UNL     1       1.701   7.555  20.462  0.00  0.00    +0.000 OA
BRANCH  20  22
ATOM     22  C   UNL     1       0.552   9.698  20.654  0.00  0.00    +0.000 C 
ATOM     23  C   UNL     1       0.785   9.443  22.143  0.00  0.00    +0.000 C 
ATOM     24  C   UNL     1       0.905  11.139  20.288  0.00  0.00    +0.000 C 
ENDBRANCH  20  22
ENDBRANCH  16  17
ENDBRANCH   7  16
TORSDOF 5
ENDMDL
MODEL 9
REMARK VINA RESULT:      -7.4      1.528      2.123
REMARK  Name = 
REMARK  9 active torsions:
REMARK  status: ('A' for Active; 'I' for Inactive)
REMARK    1  A    between atoms: C_1  and  O_2
REMARK    2  A    between atoms: O_2  and  C_3
REMARK    3  A    between atoms: C_8  and  C_9
REMARK    4  A    between atoms: C_12  and  C_13
REMARK    5  A    between atoms: N_15  and  C_16
REMARK    6  A    between atoms: C_16  and  C_17
REMARK    7  A    between atoms: C_20  and  C_21
REMARK    8  A    between atoms: C_21  and  C_22
REMARK    9  A    between atoms: C_21  and  C_23
REMARK                            x       y       z     vdW  Elec       q    Type
REMARK                         _______ _______ _______ _____ _____    ______ ____
ROOT
ATOM      1  C   UNL     1       2.826   5.830  19.263  0.00  0.00    +0.000 C 
ATOM      2  C   UNL     1       2.471   5.000  20.510  0.00  0.00    +0.000 C 
ATOM      3  C   UNL     1       1.106   4.313  20.437  0.00  0.00    +0.000 C 
ATOM      4  C   UNL     1       0.830   3.614  19.101  0.00  0.00    +0.000 C 
ATOM      5  C   UNL     1       1.250   2.140  19.147  0.00  0.00    +0.000 C 
ATOM      6  C   UNL     1       1.386   4.411  17.900  0.00  0.00    +0.000 C 
ATOM      7  N   UNL     1       2.739   4.977  18.040  0.00  0.00    +0.000 NA
ENDROOT
BRANCH   1  13
ATOM      8  C   UNL     1       1.537   8.024  20.024  0.00  0.00    +0.000 A 
ATOM      9  C   UNL     1       1.211   9.365  19.742  0.00  0.00    +0.000 A 
ATOM     10  C   UNL     1       1.412   9.912  18.481  0.00  0.00    +0.000 A 
ATOM     11  C   UNL     1       1.969   9.126  17.486  0.00  0.00    +0.000 A 
ATOM     12  C   UNL     1       2.365   7.816  17.775  0.00  0.00    +0.000 A 
ATOM     13  C   UNL     1       2.180   7.227  19.053  0.00  0.00    +0.000 A 
BRANCH   8  15
ATOM     14  C   UNL     1       0.333   8.271  22.042  0.00  0.00    +0.000 C 
ATOM     15  O   UNL     1       1.257   7.503  21.263  0.00  0.00    +0.000 OA
ENDBRANCH   8  15
ENDBRANCH   1  13
BRANCH   7  16
ATOM     16  C   UNL     1       3.761   3.909  17.935  0.00  0.00    +0.000 C 
BRANCH  16  17
ATOM     17  C   UNL     1       5.141   4.305  17.545  0.00  0.00    +0.000 A 
ATOM     18  N   UNL     1       5.816   3.946  16.472  0.00  0.00    +0.000 NA
ATOM     19  N   UNL     1       7.028   4.586  16.540  0.00  0.00    +0.000 NA
ATOM     20  C   UNL     1       7.007   5.299  17.646  0.00  0.00    +0.000 A 
ATOM     21  O   UNL     1       5.829   5.184  18.338  0.00  0.00    +0.000 OA
BRANCH  20  22
ATOM     22  C   UNL     1       8.073   6.138  18.250  0.00  0.00    +0.000 C 
ATOM     23  C   UNL     1       7.812   7.609  17.925  0.00  0.00    +0.000 C 
ATOM     24  C   UNL     1       8.154   5.922  19.761  0.00  0.00    +0.000 C 
ENDBRANCH  20  22
ENDBRANCH  16  17
ENDBRANCH   7  16
TORSDOF 5
ENDMDL
