MODEL 1
REMARK VINA RESULT:      -7.9      0.000      0.000
REMARK  Name = 
REMARK  5 active torsions:
REMARK  status: ('A' for Active; 'I' for Inactive)
REMARK    1  A    between atoms: C_1  and  C_2
REMARK    2  A    between atoms: C_2  and  S_3
REMARK    3  A    between atoms: S_3  and  N_6
REMARK    4  A    between atoms: C_10  and  C_12
REMARK    5  A    between atoms: C_18  and  C_19
REMARK                            x       y       z     vdW  Elec       q    Type
REMARK                         _______ _______ _______ _____ _____    ______ ____
ROOT
ATOM      1  N   UNL     1      -0.527   9.456  21.162  0.00  0.00    +0.000 NA
ATOM      2  C   UNL     1      -0.510   9.928  19.728  0.00  0.00    +0.000 C 
ATOM      3  C   UNL     1       0.918   9.894  19.134  0.00  0.00    +0.000 C 
ATOM      4  N   UNL     1       1.563   8.586  19.345  0.00  0.00    +0.000 N 
ATOM      5  C   UNL     1       2.343   8.058  18.320  0.00  0.00    +0.000 C 
ATOM      6  O   UNL     1       2.521   8.642  17.252  0.00  0.00    +0.000 OA
ATOM      7  C   UNL     1       1.548   8.154  20.755  0.00  0.00    +0.000 C 
ATOM      8  C   UNL     1       0.095   8.090  21.255  0.00  0.00    +0.000 C 
ENDROOT
BRANCH   5   9
ATOM      9  C   UNL     1       3.002   6.741  18.484  0.00  0.00    +0.000 A 
ATOM     10  C   UNL     1       4.276   6.559  17.948  0.00  0.00    +0.000 A 
ATOM     11  N   UNL     1       5.046   5.445  18.089  0.00  0.00    +0.000 NA
ATOM     12  C   UNL     1       4.451   4.510  18.857  0.00  0.00    +0.000 A 
ATOM     13  N   UNL     1       4.988   3.322  19.256  0.00  0.00    +0.000 N 
ATOM     14  N   UNL     1       4.195   2.616  20.092  0.00  0.00    +0.000 NA
ATOM     15  C   UNL     1       3.096   3.376  20.203  0.00  0.00    +0.000 A 
ATOM     16  C   UNL     1       1.998   2.995  21.127  0.00  0.00    +0.000 C 
ATOM     17  C   UNL     1       3.187   4.554  19.420  0.00  0.00    +0.000 A 
ATOM     18  C   UNL     1       2.392   5.674  19.153  0.00  0.00    +0.000 A 
ATOM     19  H   UNL     1       5.901   2.957  19.016  0.00  0.00    +0.000 HD
ENDBRANCH   5   9
BRANCH   1  20
ATOM     20  S   UNL     1       0.067  10.574  22.315  0.00  0.00    +0.000 S 
ATOM     21  O   UNL     1       0.910  11.529  21.631  0.00  0.00    +0.000 OA
ATOM     22  O   UNL     1       0.546   9.826  23.462  0.00  0.00    +0.000 OA
BRANCH  20  24
ATOM     23  C   UNL     1      -1.131  12.887  23.017  0.00  0.00    +0.000 C 
ATOM     24  C   UNL     1      -1.425  11.409  22.818  0.00  0.00    +0.000 C 
ENDBRANCH  20  24
ENDBRANCH   1  20
TORSDOF 3
ENDMDL
MODEL 2
REMARK VINA RESULT:      -7.4      3.438      7.504
REMARK  Name = 
REMARK  5 active torsions:
REMARK  status: ('A' for Active; 'I' for Inactive)
REMARK    1  A    between atoms: C_1  and  C_2
REMARK    2  A    between atoms: C_2  and  S_3
REMARK    3  A    between atoms: S_3  and  N_6
REMARK    4  A    between atoms: C_10  and  C_12
REMARK    5  A    between atoms: C_18  and  C_19
REMARK                            x       y       z     vdW  Elec       q    Type
REMARK                         _______ _______ _______ _____ _____    ______ ____
ROOT
ATOM      1  N   UNL     1       5.373   5.087  16.564  0.00  0.00    +0.000 NA
ATOM      2  C   UNL     1       4.444   4.065  17.173  0.00  0.00    +0.000 C 
ATOM      3  C   UNL     1       4.060   4.436  18.625  0.00  0.00    +0.000 C 
ATOM      4  N   UNL     1       3.573   5.824  18.719  0.00  0.00    +0.000 N 
ATOM      5  C   UNL     1       2.501   6.095  19.566  0.00  0.00    +0.000 C 
ATOM      6  O   UNL     1       1.953   5.226  20.243  0.00  0.00    +0.000 OA
ATOM      7  C   UNL     1       4.504   6.806  18.132  0.00  0.00    +0.000 C 
ATOM      8  C   UNL     1       4.753   6.455  16.656  0.00  0.00    +0.000 C 
ENDROOT
BRANCH   5   9
ATOM      9  C   UNL     1       1.971   7.473  19.685  0.00  0.00    +0.000 A 
ATOM     10  C   UNL     1       1.922   8.271  18.543  0.00  0.00    +0.000 A 
ATOM     11  N   UNL     1       1.384   9.519  18.468  0.00  0.00    +0.000 NA
ATOM     12  C   UNL     1       0.850   9.914  19.641  0.00  0.00    +0.000 A 
ATOM     13  N   UNL     1       0.168  11.070  19.877  0.00  0.00    +0.000 N 
ATOM     14  N   UNL     1      -0.328  11.167  21.131  0.00  0.00    +0.000 NA
ATOM     15  C   UNL     1       0.085  10.038  21.722  0.00  0.00    +0.000 A 
ATOM     16  C   UNL     1      -0.339   9.705  23.106  0.00  0.00    +0.000 C 
ATOM     17  C   UNL     1       0.859   9.235  20.848  0.00  0.00    +0.000 A 
ATOM     18  C   UNL     1       1.522   8.003  20.899  0.00  0.00    +0.000 A 
ATOM     19  H   UNL     1      -0.018  11.812  19.214  0.00  0.00    +0.000 HD
ENDBRANCH   5   9
BRANCH   1  20
ATOM     20  S   UNL     1       6.998   5.020  17.097  0.00  0.00    +0.000 S 
ATOM     21  O   UNL     1       7.799   4.444  16.040  0.00  0.00    +0.000 OA
ATOM     22  O   UNL     1       7.010   4.474  18.440  0.00  0.00    +0.000 OA
BRANCH  20  24
ATOM     23  C   UNL     1       8.094   7.002  18.563  0.00  0.00    +0.000 C 
ATOM     24  C   UNL     1       7.412   6.748  17.229  0.00  0.00    +0.000 C 
ENDBRANCH  20  24
ENDBRANCH   1  20
TORSDOF 3
ENDMDL
MODEL 3
REMARK VINA RESULT:      -7.2      5.377      7.405
REMARK  Name = 
REMARK  5 active torsions:
REMARK  status: ('A' for Active; 'I' for Inactive)
REMARK    1  A    between atoms: C_1  and  C_2
REMARK    2  A    between atoms: C_2  and  S_3
REMARK    3  A    between atoms: S_3  and  N_6
REMARK    4  A    between atoms: C_10  and  C_12
REMARK    5  A    between atoms: C_18  and  C_19
REMARK                            x       y       z     vdW  Elec       q    Type
REMARK                         _______ _______ _______ _____ _____    ______ ____
ROOT
ATOM      1  N   UNL     1       2.478   4.490  18.919  0.00  0.00    +0.000 NA
ATOM      2  C   UNL     1       3.707   4.742  19.758  0.00  0.00    +0.000 C 
ATOM      3  C   UNL     1       4.931   3.961  19.225  0.00  0.00    +0.000 C 
ATOM      4  N   UNL     1       5.130   4.185  17.782  0.00  0.00    +0.000 N 
ATOM      5  C   UNL     1       6.432   4.320  17.305  0.00  0.00    +0.000 C 
ATOM      6  O   UNL     1       7.418   4.252  18.037  0.00  0.00    +0.000 OA
ATOM      7  C   UNL     1       3.921   3.918  16.981  0.00  0.00    +0.000 C 
ATOM      8  C   UNL     1       2.771   4.810  17.479  0.00  0.00    +0.000 C 
ENDROOT
BRANCH   5   9
ATOM      9  C   UNL     1       6.680   4.557  15.864  0.00  0.00    +0.000 A 
ATOM     10  C   UNL     1       7.623   5.515  15.497  0.00  0.00    +0.000 A 
ATOM     11  N   UNL     1       8.027   5.787  14.225  0.00  0.00    +0.000 NA
ATOM     12  C   UNL     1       7.430   4.985  13.320  0.00  0.00    +0.000 A 
ATOM     13  N   UNL     1       7.675   4.946  11.980  0.00  0.00    +0.000 N 
ATOM     14  N   UNL     1       6.988   3.984  11.325  0.00  0.00    +0.000 NA
ATOM     15  C   UNL     1       6.254   3.409  12.288  0.00  0.00    +0.000 A 
ATOM     16  C   UNL     1       5.414   2.220  11.996  0.00  0.00    +0.000 C 
ATOM     17  C   UNL     1       6.462   4.022  13.548  0.00  0.00    +0.000 A 
ATOM     18  C   UNL     1       6.001   3.859  14.860  0.00  0.00    +0.000 A 
ATOM     19  H   UNL     1       8.323   5.528  11.464  0.00  0.00    +0.000 HD
ENDBRANCH   5   9
BRANCH   1  20
ATOM     20  S   UNL     1       1.716   2.976  19.158  0.00  0.00    +0.000 S 
ATOM     21  O   UNL     1       2.744   1.977  19.356  0.00  0.00    +0.000 OA
ATOM     22  O   UNL     1       0.695   2.820  18.140  0.00  0.00    +0.000 OA
BRANCH  20  24
ATOM     23  C   UNL     1       1.632   2.501  21.812  0.00  0.00    +0.000 C 
ATOM     24  C   UNL     1       0.878   3.227  20.710  0.00  0.00    +0.000 C 
ENDBRANCH  20  24
ENDBRANCH   1  20
TORSDOF 3
ENDMDL
MODEL 4
REMARK VINA RESULT:      -7.2      3.510      7.564
REMARK  Name = 
REMARK  5 active torsions:
REMARK  status: ('A' for Active; 'I' for Inactive)
REMARK    1  A    between atoms: C_1  and  C_2
REMARK    2  A    between atoms: C_2  and  S_3
REMARK    3  A    between atoms: S_3  and  N_6
REMARK    4  A    between atoms: C_10  and  C_12
REMARK    5  A    between atoms: C_18  and  C_19
REMARK                            x       y       z     vdW  Elec       q    Type
REMARK                         _______ _______ _______ _____ _____    ______ ____
ROOT
ATOM      1  N   UNL     1       5.471   5.400  16.152  0.00  0.00    +0.000 NA
ATOM      2  C   UNL     1       4.676   4.314  16.836  0.00  0.00    +0.000 C 
ATOM      3  C   UNL     1       4.366   4.675  18.308  0.00  0.00    +0.000 C 
ATOM      4  N   UNL     1       3.772   6.019  18.423  0.00  0.00    +0.000 N 
ATOM      5  C   UNL     1       2.744   6.213  19.342  0.00  0.00    +0.000 C 
ATOM      6  O   UNL     1       2.320   5.312  20.064  0.00  0.00    +0.000 OA
ATOM      7  C   UNL     1       4.573   7.065  17.761  0.00  0.00    +0.000 C 
ATOM      8  C   UNL     1       4.747   6.713  16.275  0.00  0.00    +0.000 C 
ENDROOT
BRANCH   5   9
ATOM      9  C   UNL     1       2.110   7.544  19.485  0.00  0.00    +0.000 A 
ATOM     10  C   UNL     1       1.993   8.353  18.356  0.00  0.00    +0.000 A 
ATOM     11  N   UNL     1       1.360   9.557  18.303  0.00  0.00    +0.000 NA
ATOM     12  C   UNL     1       0.803   9.891  19.485  0.00  0.00    +0.000 A 
ATOM     13  N   UNL     1       0.035  10.988  19.742  0.00  0.00    +0.000 N 
ATOM     14  N   UNL     1      -0.460  11.027  20.999  0.00  0.00    +0.000 NA
ATOM     15  C   UNL     1       0.042   9.923  21.571  0.00  0.00    +0.000 A 
ATOM     16  C   UNL     1      -0.346   9.538  22.951  0.00  0.00    +0.000 C 
ATOM     17  C   UNL     1       0.871   9.197  20.680  0.00  0.00    +0.000 A 
ATOM     18  C   UNL     1       1.628   8.019  20.709  0.00  0.00    +0.000 A 
ATOM     19  H   UNL     1      -0.211  11.723  19.092  0.00  0.00    +0.000 HD
ENDBRANCH   5   9
BRANCH   1  20
ATOM     20  S   UNL     1       7.129   5.477  16.568  0.00  0.00    +0.000 S 
ATOM     21  O   UNL     1       7.515   6.868  16.647  0.00  0.00    +0.000 OA
ATOM     22  O   UNL     1       7.848   4.538  15.728  0.00  0.00    +0.000 OA
BRANCH  20  24
ATOM     23  C   UNL     1       7.847   5.764  19.152  0.00  0.00    +0.000 C 
ATOM     24  C   UNL     1       7.125   4.807  18.219  0.00  0.00    +0.000 C 
ENDBRANCH  20  24
ENDBRANCH   1  20
TORSDOF 3
ENDMDL
MODEL 5
REMARK VINA RESULT:      -7.1      1.306      2.295
REMARK  Name = 
REMARK  5 active torsions:
REMARK  status: ('A' for Active; 'I' for Inactive)
REMARK    1  A    between atoms: C_1  and  C_2
REMARK    2  A    between atoms: C_2  and  S_3
REMARK    3  A    between atoms: S_3  and  N_6
REMARK    4  A    between atoms: C_10  and  C_12
REMARK    5  A    between atoms: C_18  and  C_19
REMARK                            x       y       z     vdW  Elec       q    Type
REMARK                         _______ _______ _______ _____ _____    ______ ____
ROOT
ATOM      1  N   UNL     1      -0.565   9.456  21.247  0.00  0.00    +0.000 NA
ATOM      2  C   UNL     1      -0.653  10.053  19.863  0.00  0.00    +0.000 C 
ATOM      3  C   UNL     1       0.737  10.140  19.190  0.00  0.00    +0.000 C 
ATOM      4  N   UNL     1       1.448   8.850  19.246  0.00  0.00    +0.000 N 
ATOM      5  C   UNL     1       2.188   8.452  18.135  0.00  0.00    +0.000 C 
ATOM      6  O   UNL     1       2.278   9.136  17.117  0.00  0.00    +0.000 OA
ATOM      7  C   UNL     1       1.535   8.294  20.609  0.00  0.00    +0.000 C 
ATOM      8  C   UNL     1       0.118   8.118  21.181  0.00  0.00    +0.000 C 
ENDROOT
BRANCH   5   9
ATOM      9  C   UNL     1       2.910   7.158  18.142  0.00  0.00    +0.000 A 
ATOM     10  C   UNL     1       2.338   6.077  18.810  0.00  0.00    +0.000 A 
ATOM     11  N   UNL     1       2.829   4.807  18.834  0.00  0.00    +0.000 NA
ATOM     12  C   UNL     1       3.947   4.680  18.092  0.00  0.00    +0.000 A 
ATOM     13  N   UNL     1       4.634   3.529  17.844  0.00  0.00    +0.000 N 
ATOM     14  N   UNL     1       5.675   3.684  16.996  0.00  0.00    +0.000 NA
ATOM     15  C   UNL     1       5.665   4.995  16.719  0.00  0.00    +0.000 A 
ATOM     16  C   UNL     1       6.609   5.571  15.729  0.00  0.00    +0.000 C 
ATOM     17  C   UNL     1       4.628   5.673  17.409  0.00  0.00    +0.000 A 
ATOM     18  C   UNL     1       4.144   6.983  17.507  0.00  0.00    +0.000 A 
ATOM     19  H   UNL     1       4.420   2.606  18.199  0.00  0.00    +0.000 HD
ENDBRANCH   5   9
BRANCH   1  20
ATOM     20  S   UNL     1       0.048  10.494  22.462  0.00  0.00    +0.000 S 
ATOM     21  O   UNL     1       0.869  11.502  21.828  0.00  0.00    +0.000 OA
ATOM     22  O   UNL     1       0.557   9.672  23.542  0.00  0.00    +0.000 OA
BRANCH  20  24
ATOM     23  C   UNL     1      -1.275  12.790  22.971  0.00  0.00    +0.000 C 
ATOM     24  C   UNL     1      -1.437  11.281  23.055  0.00  0.00    +0.000 C 
ENDBRANCH  20  24
ENDBRANCH   1  20
TORSDOF 3
ENDMDL
MODEL 6
REMARK VINA RESULT:      -6.9      3.443      7.795
REMARK  Name = 
REMARK  5 active torsions:
REMARK  status: ('A' for Active; 'I' for Inactive)
REMARK    1  A    between atoms: C_1  and  C_2
REMARK    2  A    between atoms: C_2  and  S_3
REMARK    3  A    between atoms: S_3  and  N_6
REMARK    4  A    between atoms: C_10  and  C_12
REMARK    5  A    between atoms: C_18  and  C_19
REMARK                            x       y       z     vdW  Elec       q    Type
REMARK                         _______ _______ _______ _____ _____    ______ ____
ROOT
ATOM      1  N   UNL     1       5.084   5.270  16.270  0.00  0.00    +0.000 NA
ATOM      2  C   UNL     1       4.314   4.228  17.045  0.00  0.00    +0.000 C 
ATOM      3  C   UNL     1       4.112   4.647  18.519  0.00  0.00    +0.000 C 
ATOM      4  N   UNL     1       3.555   6.008  18.624  0.00  0.00    +0.000 N 
ATOM      5  C   UNL     1       2.595   6.259  19.602  0.00  0.00    +0.000 C 
ATOM      6  O   UNL     1       2.202   5.394  20.384  0.00  0.00    +0.000 OA
ATOM      7  C   UNL     1       4.332   7.011  17.872  0.00  0.00    +0.000 C 
ATOM      8  C   UNL     1       4.397   6.602  16.391  0.00  0.00    +0.000 C 
ENDROOT
BRANCH   5   9
ATOM      9  C   UNL     1       2.000   7.609  19.737  0.00  0.00    +0.000 A 
ATOM     10  C   UNL     1       1.884   8.405  18.599  0.00  0.00    +0.000 A 
ATOM     11  N   UNL     1       1.283   9.625  18.540  0.00  0.00    +0.000 NA
ATOM     12  C   UNL     1       0.758   9.991  19.727  0.00  0.00    +0.000 A 
ATOM     13  N   UNL     1       0.025  11.111  19.982  0.00  0.00    +0.000 N 
ATOM     14  N   UNL     1      -0.446  11.181  21.247  0.00  0.00    +0.000 NA
ATOM     15  C   UNL     1       0.037  10.072  21.826  0.00  0.00    +0.000 A 
ATOM     16  C   UNL     1      -0.336   9.717  23.218  0.00  0.00    +0.000 C 
ATOM     17  C   UNL     1       0.829   9.311  20.931  0.00  0.00    +0.000 A 
ATOM     18  C   UNL     1       1.554   8.113  20.963  0.00  0.00    +0.000 A 
ATOM     19  H   UNL     1      -0.214  11.843  19.326  0.00  0.00    +0.000 HD
ENDBRANCH   5   9
BRANCH   1  20
ATOM     20  S   UNL     1       6.768   5.322  16.570  0.00  0.00    +0.000 S 
ATOM     21  O   UNL     1       7.066   4.402  17.646  0.00  0.00    +0.000 OA
ATOM     22  O   UNL     1       7.172   6.713  16.629  0.00  0.00    +0.000 OA
BRANCH  20  24
ATOM     23  C   UNL     1       6.296   4.399  14.080  0.00  0.00    +0.000 C 
ATOM     24  C   UNL     1       7.431   4.646  15.061  0.00  0.00    +0.000 C 
ENDBRANCH  20  24
ENDBRANCH   1  20
TORSDOF 3
ENDMDL
MODEL 7
REMARK VINA RESULT:      -6.7      0.931      1.085
REMARK  Name = 
REMARK  5 active torsions:
REMARK  status: ('A' for Active; 'I' for Inactive)
REMARK    1  A    between atoms: C_1  and  C_2
REMARK    2  A    between atoms: C_2  and  S_3
REMARK    3  A    between atoms: S_3  and  N_6
REMARK    4  A    between atoms: C_10  and  C_12
REMARK    5  A    between atoms: C_18  and  C_19
REMARK                            x       y       z     vdW  Elec       q    Type
REMARK                         _______ _______ _______ _____ _____    ______ ____
ROOT
ATOM      1  N   UNL     1      -0.269   9.709  20.263  0.00  0.00    +0.000 NA
ATOM      2  C   UNL     1      -0.064  10.013  18.799  0.00  0.00    +0.000 C 
ATOM      3  C   UNL     1       1.409   9.806  18.374  0.00  0.00    +0.000 C 
ATOM      4  N   UNL     1       1.913   8.485  18.792  0.00  0.00    +0.000 N 
ATOM      5  C   UNL     1       2.746   7.787  17.921  0.00  0.00    +0.000 C 
ATOM      6  O   UNL     1       3.084   8.232  16.825  0.00  0.00    +0.000 OA
ATOM      7  C   UNL     1       1.716   8.217  20.229  0.00  0.00    +0.000 C 
ATOM      8  C   UNL     1       0.219   8.320  20.567  0.00  0.00    +0.000 C 
ENDROOT
BRANCH   5   9
ATOM      9  C   UNL     1       3.268   6.451  18.294  0.00  0.00    +0.000 A 
ATOM     10  C   UNL     1       4.600   6.152  18.014  0.00  0.00    +0.000 A 
ATOM     11  N   UNL     1       5.250   5.010  18.371  0.00  0.00    +0.000 NA
ATOM     12  C   UNL     1       4.463   4.178  19.081  0.00  0.00    +0.000 A 
ATOM     13  N   UNL     1       4.832   2.997  19.653  0.00  0.00    +0.000 N 
ATOM     14  N   UNL     1       3.854   2.409  20.377  0.00  0.00    +0.000 NA
ATOM     15  C   UNL     1       2.811   3.239  20.232  0.00  0.00    +0.000 A 
ATOM     16  C   UNL     1       1.542   3.000  20.964  0.00  0.00    +0.000 C 
ATOM     17  C   UNL     1       3.125   4.341  19.399  0.00  0.00    +0.000 A 
ATOM     18  C   UNL     1       2.473   5.481  18.913  0.00  0.00    +0.000 A 
ATOM     19  H   UNL     1       5.744   2.561  19.610  0.00  0.00    +0.000 HD
ENDBRANCH   5   9
BRANCH   1  20
ATOM     20  S   UNL     1       0.297  10.902  21.352  0.00  0.00    +0.000 S 
ATOM     21  O   UNL     1       0.064  12.202  20.763  0.00  0.00    +0.000 OA
ATOM     22  O   UNL     1       1.613  10.503  21.813  0.00  0.00    +0.000 OA
BRANCH  20  24
ATOM     23  C   UNL     1      -0.292   9.627  23.656  0.00  0.00    +0.000 C 
ATOM     24  C   UNL     1      -0.822  10.705  22.725  0.00  0.00    +0.000 C 
ENDBRANCH  20  24
ENDBRANCH   1  20
TORSDOF 3
ENDMDL
MODEL 8
REMARK VINA RESULT:      -6.7      1.436      2.082
REMARK  Name = 
REMARK  5 active torsions:
REMARK  status: ('A' for Active; 'I' for Inactive)
REMARK    1  A    between atoms: C_1  and  C_2
REMARK    2  A    between atoms: C_2  and  S_3
REMARK    3  A    between atoms: S_3  and  N_6
REMARK    4  A    between atoms: C_10  and  C_12
REMARK    5  A    between atoms: C_18  and  C_19
REMARK                            x       y       z     vdW  Elec       q    Type
REMARK                         _______ _______ _______ _____ _____    ______ ____
ROOT
ATOM      1  N   UNL     1      -0.856  10.602  20.789  0.00  0.00    +0.000 NA
ATOM      2  C   UNL     1      -0.704  10.936  19.325  0.00  0.00    +0.000 C 
ATOM      3  C   UNL     1       0.750  10.727  18.840  0.00  0.00    +0.000 C 
ATOM      4  N   UNL     1       1.258   9.394  19.211  0.00  0.00    +0.000 N 
ATOM      5  C   UNL     1       2.052   8.708  18.294  0.00  0.00    +0.000 C 
ATOM      6  O   UNL     1       2.352   9.174  17.196  0.00  0.00    +0.000 OA
ATOM      7  C   UNL     1       1.113   9.096  20.648  0.00  0.00    +0.000 C 
ATOM      8  C   UNL     1      -0.369   9.203  21.044  0.00  0.00    +0.000 C 
ENDROOT
BRANCH   5   9
ATOM      9  C   UNL     1       2.576   7.361  18.618  0.00  0.00    +0.000 A 
ATOM     10  C   UNL     1       2.156   6.747  19.797  0.00  0.00    +0.000 A 
ATOM     11  N   UNL     1       2.474   5.483  20.192  0.00  0.00    +0.000 NA
ATOM     12  C   UNL     1       3.235   4.843  19.281  0.00  0.00    +0.000 A 
ATOM     13  N   UNL     1       3.652   3.546  19.336  0.00  0.00    +0.000 N 
ATOM     14  N   UNL     1       4.337   3.144  18.242  0.00  0.00    +0.000 NA
ATOM     15  C   UNL     1       4.381   4.243  17.476  0.00  0.00    +0.000 A 
ATOM     16  C   UNL     1       4.973   4.197  16.115  0.00  0.00    +0.000 C 
ATOM     17  C   UNL     1       3.740   5.345  18.094  0.00  0.00    +0.000 A 
ATOM     18  C   UNL     1       3.477   6.686  17.788  0.00  0.00    +0.000 A 
ATOM     19  H   UNL     1       3.473   2.881  20.078  0.00  0.00    +0.000 HD
ENDBRANCH   5   9
BRANCH   1  20
ATOM     20  S   UNL     1      -0.239  11.767  21.881  0.00  0.00    +0.000 S 
ATOM     21  O   UNL     1       1.030  12.239  21.374  0.00  0.00    +0.000 OA
ATOM     22  O   UNL     1      -0.368  11.237  23.225  0.00  0.00    +0.000 OA
BRANCH  20  24
ATOM     23  C   UNL     1      -2.812  12.560  22.060  0.00  0.00    +0.000 C 
ATOM     24  C   UNL     1      -1.427  13.086  21.720  0.00  0.00    +0.000 C 
ENDBRANCH  20  24
ENDBRANCH   1  20
TORSDOF 3
ENDMDL
MODEL 9
REMARK VINA RESULT:      -6.7      3.132      7.452
REMARK  Name = 
REMARK  5 active torsions:
REMARK  status: ('A' for Active; 'I' for Inactive)
REMARK    1  A    between atoms: C_1  and  C_2
REMARK    2  A    between atoms: C_2  and  S_3
REMARK    3  A    between atoms: S_3  and  N_6
REMARK    4  A    between atoms: C_10  and  C_12
REMARK    5  A    between atoms: C_18  and  C_19
REMARK                            x       y       z     vdW  Elec       q    Type
REMARK                         _______ _______ _______ _____ _____    ______ ____
ROOT
ATOM      1  N   UNL     1       3.984   3.716  19.045  0.00  0.00    +0.000 NA
ATOM      2  C   UNL     1       4.781   4.652  18.170  0.00  0.00    +0.000 C 
ATOM      3  C   UNL     1       3.869   5.664  17.438  0.00  0.00    +0.000 C 
ATOM      4  N   UNL     1       2.955   6.345  18.373  0.00  0.00    +0.000 N 
ATOM      5  C   UNL     1       2.703   7.702  18.184  0.00  0.00    +0.000 C 
ATOM      6  O   UNL     1       3.205   8.349  17.267  0.00  0.00    +0.000 OA
ATOM      7  C   UNL     1       2.176   5.410  19.206  0.00  0.00    +0.000 C 
ATOM      8  C   UNL     1       3.137   4.510  20.001  0.00  0.00    +0.000 C 
ENDROOT
BRANCH   5   9
ATOM      9  C   UNL     1       1.800   8.430  19.106  0.00  0.00    +0.000 A 
ATOM     10  C   UNL     1       1.833   8.114  20.463  0.00  0.00    +0.000 A 
ATOM     11  N   UNL     1       1.135   8.749  21.444  0.00  0.00    +0.000 NA
ATOM     12  C   UNL     1       0.405   9.777  20.965  0.00  0.00    +0.000 A 
ATOM     13  N   UNL     1      -0.337  10.658  21.694  0.00  0.00    +0.000 N 
ATOM     14  N   UNL     1      -0.900  11.641  20.957  0.00  0.00    +0.000 NA
ATOM     15  C   UNL     1      -0.523  11.352  19.704  0.00  0.00    +0.000 A 
ATOM     16  C   UNL     1      -0.859  12.261  18.579  0.00  0.00    +0.000 C 
ATOM     17  C   UNL     1       0.263  10.174  19.646  0.00  0.00    +0.000 A 
ATOM     18  C   UNL     1       0.915   9.419  18.663  0.00  0.00    +0.000 A 
ATOM     19  H   UNL     1      -0.468  10.657  22.697  0.00  0.00    +0.000 HD
ENDBRANCH   5   9
BRANCH   1  20
ATOM     20  S   UNL     1       3.134   2.478  18.223  0.00  0.00    +0.000 S 
ATOM     21  O   UNL     1       4.051   1.390  17.967  0.00  0.00    +0.000 OA
ATOM     22  O   UNL     1       2.369   3.091  17.155  0.00  0.00    +0.000 OA
BRANCH  20  24
ATOM     23  C   UNL     1       0.556   2.146  18.946  0.00  0.00    +0.000 C 
ATOM     24  C   UNL     1       1.971   1.945  19.463  0.00  0.00    +0.000 C 
ENDBRANCH  20  24
ENDBRANCH   1  20
TORSDOF 3
ENDMDL
