MODEL 1
REMARK VINA RESULT:      -7.5      0.000      0.000
REMARK  Name = 
REMARK  6 active torsions:
REMARK  status: ('A' for Active; 'I' for Inactive)
REMARK    1  A    between atoms: C_1  and  O_2
REMARK    2  A    between atoms: O_2  and  C_3
REMARK    3  A    between atoms: C_5  and  C_6
REMARK    4  A    between atoms: C_7  and  C_8
REMARK    5  A    between atoms: C_7  and  C_10
REMARK    6  A    between atoms: C_20  and  O_21
REMARK                            x       y       z     vdW  Elec       q    Type
REMARK                         _______ _______ _______ _____ _____    ______ ____
ROOT
ATOM      1  C   UNL     1       4.335   4.820  16.764  0.00  0.00    +0.000 C 
ATOM      2  C   UNL     1       5.641   5.086  16.995  0.00  0.00    +0.000 C 
ENDROOT
BRANCH   2   3
ATOM      3  C   UNL     1       6.642   5.508  15.947  0.00  0.00    +0.000 C 
ATOM      4  O   UNL     1       7.395   6.446  16.225  0.00  0.00    +0.000 OA
ATOM      5  N   UNL     1       6.717   4.845  14.702  0.00  0.00    +0.000 N 
ATOM      6  C   UNL     1       7.911   5.083  13.881  0.00  0.00    +0.000 C 
ATOM      7  C   UNL     1       7.600   5.073  12.381  0.00  0.00    +0.000 C 
ATOM      8  C   UNL     1       6.868   3.809  11.947  0.00  0.00    +0.000 C 
ATOM      9  C   UNL     1       5.621   3.637  12.780  0.00  0.00    +0.000 C 
ATOM     10  C   UNL     1       5.926   3.683  14.265  0.00  0.00    +0.000 C 
ENDBRANCH   2   3
BRANCH   1  13
ATOM     11  C   UNL     1       1.955   4.873  19.775  0.00  0.00    +0.000 A 
ATOM     12  C   UNL     1       2.850   5.290  18.760  0.00  0.00    +0.000 A 
ATOM     13  C   UNL     1       3.365   4.392  17.813  0.00  0.00    +0.000 A 
ATOM     14  C   UNL     1       2.973   3.050  17.900  0.00  0.00    +0.000 A 
ATOM     15  C   UNL     1       2.093   2.622  18.905  0.00  0.00    +0.000 A 
ATOM     16  C   UNL     1       1.590   3.524  19.841  0.00  0.00    +0.000 A 
BRANCH  11  18
ATOM     17  C   UNL     1       1.941   7.225  20.288  0.00  0.00    +0.000 C 
ATOM     18  O   UNL     1       1.552   5.889  20.603  0.00  0.00    +0.000 OA
ENDBRANCH  11  18
BRANCH  16  19
ATOM     19  O   UNL     1       0.743   3.050  20.800  0.00  0.00    +0.000 OA
ATOM     20  H   UNL     1       0.249   2.286  20.464  0.00  0.00    +0.000 HD
ENDBRANCH  16  19
ENDBRANCH   1  13
BRANCH   2  21
ATOM     21  C   UNL     1       6.123   5.044  18.436  0.00  0.00    +0.000 C 
ATOM     22  N   UNL     1       6.522   5.008  19.632  0.00  0.00    +0.000 NA
ENDBRANCH   2  21
TORSDOF 5
ENDMDL
MODEL 2
REMARK VINA RESULT:      -7.0      1.178      1.898
REMARK  Name = 
REMARK  6 active torsions:
REMARK  status: ('A' for Active; 'I' for Inactive)
REMARK    1  A    between atoms: C_1  and  O_2
REMARK    2  A    between atoms: O_2  and  C_3
REMARK    3  A    between atoms: C_5  and  C_6
REMARK    4  A    between atoms: C_7  and  C_8
REMARK    5  A    between atoms: C_7  and  C_10
REMARK    6  A    between atoms: C_20  and  O_21
REMARK                            x       y       z     vdW  Elec       q    Type
REMARK                         _______ _______ _______ _____ _____    ______ ____
ROOT
ATOM      1  C   UNL     1       4.493   4.746  16.857  0.00  0.00    +0.000 C 
ATOM      2  C   UNL     1       5.773   5.140  17.051  0.00  0.00    +0.000 C 
ENDROOT
BRANCH   2   3
ATOM      3  C   UNL     1       6.729   5.562  15.962  0.00  0.00    +0.000 C 
ATOM      4  O   UNL     1       7.469   6.521  16.196  0.00  0.00    +0.000 OA
ATOM      5  N   UNL     1       6.777   4.876  14.728  0.00  0.00    +0.000 N 
ATOM      6  C   UNL     1       7.936   5.123  13.863  0.00  0.00    +0.000 C 
ATOM      7  C   UNL     1       7.576   5.076  12.375  0.00  0.00    +0.000 C 
ATOM      8  C   UNL     1       6.858   3.788  11.991  0.00  0.00    +0.000 C 
ATOM      9  C   UNL     1       5.643   3.607  12.869  0.00  0.00    +0.000 C 
ATOM     10  C   UNL     1       5.997   3.689  14.341  0.00  0.00    +0.000 C 
ENDBRANCH   2   3
BRANCH   1  13
ATOM     11  C   UNL     1       3.093   3.037  19.995  0.00  0.00    +0.000 A 
ATOM     12  C   UNL     1       3.982   3.465  18.980  0.00  0.00    +0.000 A 
ATOM     13  C   UNL     1       3.569   4.321  17.948  0.00  0.00    +0.000 A 
ATOM     14  C   UNL     1       2.233   4.743  17.939  0.00  0.00    +0.000 A 
ATOM     15  C   UNL     1       1.340   4.320  18.935  0.00  0.00    +0.000 A 
ATOM     16  C   UNL     1       1.763   3.469  19.955  0.00  0.00    +0.000 A 
BRANCH  11  18
ATOM     17  C   UNL     1       4.912   1.580  20.597  0.00  0.00    +0.000 C 
ATOM     18  O   UNL     1       3.675   2.212  20.922  0.00  0.00    +0.000 OA
ENDBRANCH  11  18
BRANCH  16  19
ATOM     19  O   UNL     1       0.849   3.085  20.892  0.00  0.00    +0.000 OA
ATOM     20  H   UNL     1       0.178   3.776  21.009  0.00  0.00    +0.000 HD
ENDBRANCH  16  19
ENDBRANCH   1  13
BRANCH   2  21
ATOM     21  C   UNL     1       6.263   5.254  18.485  0.00  0.00    +0.000 C 
ATOM     22  N   UNL     1       6.669   5.349  19.676  0.00  0.00    +0.000 NA
ENDBRANCH   2  21
TORSDOF 5
ENDMDL
MODEL 3
REMARK VINA RESULT:      -6.9      3.952      6.774
REMARK  Name = 
REMARK  6 active torsions:
REMARK  status: ('A' for Active; 'I' for Inactive)
REMARK    1  A    between atoms: C_1  and  O_2
REMARK    2  A    between atoms: O_2  and  C_3
REMARK    3  A    between atoms: C_5  and  C_6
REMARK    4  A    between atoms: C_7  and  C_8
REMARK    5  A    between atoms: C_7  and  C_10
REMARK    6  A    between atoms: C_20  and  O_21
REMARK                            x       y       z     vdW  Elec       q    Type
REMARK                         _______ _______ _______ _____ _____    ______ ____
ROOT
ATOM      1  C   UNL     1       1.979   5.933  18.746  0.00  0.00    +0.000 C 
ATOM      2  C   UNL     1       2.581   7.037  18.247  0.00  0.00    +0.000 C 
ENDROOT
BRANCH   2   3
ATOM      3  C   UNL     1       2.044   8.444  18.352  0.00  0.00    +0.000 C 
ATOM      4  O   UNL     1       2.140   9.164  17.354  0.00  0.00    +0.000 OA
ATOM      5  N   UNL     1       1.447   8.910  19.544  0.00  0.00    +0.000 N 
ATOM      6  C   UNL     1       0.664  10.149  19.467  0.00  0.00    +0.000 C 
ATOM      7  C   UNL     1       0.770  10.988  20.744  0.00  0.00    +0.000 C 
ATOM      8  C   UNL     1       0.428  10.188  21.996  0.00  0.00    +0.000 C 
ATOM      9  C   UNL     1       1.297   8.955  22.059  0.00  0.00    +0.000 C 
ATOM     10  C   UNL     1       1.218   8.145  20.780  0.00  0.00    +0.000 C 
ENDBRANCH   2   3
BRANCH   1  13
ATOM     11  C   UNL     1       4.104   2.782  19.283  0.00  0.00    +0.000 A 
ATOM     12  C   UNL     1       3.570   4.086  19.428  0.00  0.00    +0.000 A 
ATOM     13  C   UNL     1       2.521   4.549  18.620  0.00  0.00    +0.000 A 
ATOM     14  C   UNL     1       2.010   3.682  17.645  0.00  0.00    +0.000 A 
ATOM     15  C   UNL     1       2.535   2.391  17.487  0.00  0.00    +0.000 A 
ATOM     16  C   UNL     1       3.578   1.943  18.295  0.00  0.00    +0.000 A 
BRANCH  11  18
ATOM     17  C   UNL     1       4.926   1.464  21.121  0.00  0.00    +0.000 C 
ATOM     18  O   UNL     1       5.117   2.504  20.164  0.00  0.00    +0.000 OA
ENDBRANCH  11  18
BRANCH  16  19
ATOM     19  O   UNL     1       4.054   0.681  18.091  0.00  0.00    +0.000 OA
ATOM     20  H   UNL     1       5.015   0.702  17.954  0.00  0.00    +0.000 HD
ENDBRANCH  16  19
ENDBRANCH   1  13
BRANCH   2  21
ATOM     21  C   UNL     1       3.950   6.863  17.609  0.00  0.00    +0.000 C 
ATOM     22  N   UNL     1       5.086   6.719  17.080  0.00  0.00    +0.000 NA
ENDBRANCH   2  21
TORSDOF 5
ENDMDL
MODEL 4
REMARK VINA RESULT:      -6.7      4.173      6.621
REMARK  Name = 
REMARK  6 active torsions:
REMARK  status: ('A' for Active; 'I' for Inactive)
REMARK    1  A    between atoms: C_1  and  O_2
REMARK    2  A    between atoms: O_2  and  C_3
REMARK    3  A    between atoms: C_5  and  C_6
REMARK    4  A    between atoms: C_7  and  C_8
REMARK    5  A    between atoms: C_7  and  C_10
REMARK    6  A    between atoms: C_20  and  O_21
REMARK                            x       y       z     vdW  Elec       q    Type
REMARK                         _______ _______ _______ _____ _____    ______ ____
ROOT
ATOM      1  C   UNL     1       1.987   8.792  17.655  0.00  0.00    +0.000 C 
ATOM      2  C   UNL     1       2.402   7.785  18.458  0.00  0.00    +0.000 C 
ENDROOT
BRANCH   2   3
ATOM      3  C   UNL     1       3.389   6.712  18.069  0.00  0.00    +0.000 C 
ATOM      4  O   UNL     1       4.487   7.078  17.641  0.00  0.00    +0.000 OA
ATOM      5  N   UNL     1       3.067   5.343  18.202  0.00  0.00    +0.000 N 
ATOM      6  C   UNL     1       4.171   4.379  18.124  0.00  0.00    +0.000 C 
ATOM      7  C   UNL     1       3.752   3.062  17.464  0.00  0.00    +0.000 C 
ATOM      8  C   UNL     1       2.521   2.448  18.121  0.00  0.00    +0.000 C 
ATOM      9  C   UNL     1       1.398   3.456  18.127  0.00  0.00    +0.000 C 
ATOM     10  C   UNL     1       1.826   4.771  18.749  0.00  0.00    +0.000 C 
ENDBRANCH   2   3
BRANCH   1  13
ATOM     11  C   UNL     1      -1.310  10.679  18.204  0.00  0.00    +0.000 A 
ATOM     12  C   UNL     1      -0.379   9.671  17.853  0.00  0.00    +0.000 A 
ATOM     13  C   UNL     1       1.000   9.836  18.055  0.00  0.00    +0.000 A 
ATOM     14  C   UNL     1       1.443  11.042  18.614  0.00  0.00    +0.000 A 
ATOM     15  C   UNL     1       0.531  12.051  18.960  0.00  0.00    +0.000 A 
ATOM     16  C   UNL     1      -0.836  11.875  18.753  0.00  0.00    +0.000 A 
BRANCH  11  18
ATOM     17  C   UNL     1      -2.963   9.946  16.616  0.00  0.00    +0.000 C 
ATOM     18  O   UNL     1      -2.611  10.338  17.942  0.00  0.00    +0.000 OA
ENDBRANCH  11  18
BRANCH  16  19
ATOM     19  O   UNL     1      -1.675  12.893  19.101  0.00  0.00    +0.000 OA
ATOM     20  H   UNL     1      -2.588  12.570  19.162  0.00  0.00    +0.000 HD
ENDBRANCH  16  19
ENDBRANCH   1  13
BRANCH   2  21
ATOM     21  C   UNL     1       1.906   7.783  19.894  0.00  0.00    +0.000 C 
ATOM     22  N   UNL     1       1.494   7.781  21.087  0.00  0.00    +0.000 NA
ENDBRANCH   2  21
TORSDOF 5
ENDMDL
MODEL 5
REMARK VINA RESULT:      -6.6      3.791      7.250
REMARK  Name = 
REMARK  6 active torsions:
REMARK  status: ('A' for Active; 'I' for Inactive)
REMARK    1  A    between atoms: C_1  and  O_2
REMARK    2  A    between atoms: O_2  and  C_3
REMARK    3  A    between atoms: C_5  and  C_6
REMARK    4  A    between atoms: C_7  and  C_8
REMARK    5  A    between atoms: C_7  and  C_10
REMARK    6  A    between atoms: C_20  and  O_21
REMARK                            x       y       z     vdW  Elec       q    Type
REMARK                         _______ _______ _______ _____ _____    ______ ____
ROOT
ATOM      1  C   UNL     1       1.515   6.269  20.868  0.00  0.00    +0.000 C 
ATOM      2  C   UNL     1       1.693   7.472  20.274  0.00  0.00    +0.000 C 
ENDROOT
BRANCH   2   3
ATOM      3  C   UNL     1       1.258   8.799  20.847  0.00  0.00    +0.000 C 
ATOM      4  O   UNL     1       1.512   9.015  22.036  0.00  0.00    +0.000 OA
ATOM      5  N   UNL     1       0.596   9.756  20.047  0.00  0.00    +0.000 N 
ATOM      6  C   UNL     1       0.505  11.125  20.570  0.00  0.00    +0.000 C 
ATOM      7  C   UNL     1      -0.800  11.819  20.167  0.00  0.00    +0.000 C 
ATOM      8  C   UNL     1      -1.039  11.779  18.662  0.00  0.00    +0.000 C 
ATOM      9  C   UNL     1      -0.992  10.348  18.182  0.00  0.00    +0.000 C 
ATOM     10  C   UNL     1       0.285   9.653  18.612  0.00  0.00    +0.000 C 
ENDBRANCH   2   3
BRANCH   1  13
ATOM     11  C   UNL     1       3.685   3.454  19.422  0.00  0.00    +0.000 A 
ATOM     12  C   UNL     1       3.288   4.677  20.013  0.00  0.00    +0.000 A 
ATOM     13  C   UNL     1       1.941   4.968  20.278  0.00  0.00    +0.000 A 
ATOM     14  C   UNL     1       0.981   4.007  19.932  0.00  0.00    +0.000 A 
ATOM     15  C   UNL     1       1.361   2.794  19.339  0.00  0.00    +0.000 A 
ATOM     16  C   UNL     1       2.703   2.519  19.080  0.00  0.00    +0.000 A 
BRANCH  11  18
ATOM     17  C   UNL     1       5.747   4.436  18.662  0.00  0.00    +0.000 C 
ATOM     18  O   UNL     1       5.040   3.344  19.247  0.00  0.00    +0.000 OA
ENDBRANCH  11  18
BRANCH  16  19
ATOM     19  O   UNL     1       3.013   1.325  18.494  0.00  0.00    +0.000 OA
ATOM     20  H   UNL     1       2.231   0.750  18.471  0.00  0.00    +0.000 HD
ENDBRANCH  16  19
ENDBRANCH   1  13
BRANCH   2  21
ATOM     21  C   UNL     1       2.471   7.502  18.969  0.00  0.00    +0.000 C 
ATOM     22  N   UNL     1       3.116   7.527  17.885  0.00  0.00    +0.000 NA
ENDBRANCH   2  21
TORSDOF 5
ENDMDL
MODEL 6
REMARK VINA RESULT:      -6.6      1.715      2.101
REMARK  Name = 
REMARK  6 active torsions:
REMARK  status: ('A' for Active; 'I' for Inactive)
REMARK    1  A    between atoms: C_1  and  O_2
REMARK    2  A    between atoms: O_2  and  C_3
REMARK    3  A    between atoms: C_5  and  C_6
REMARK    4  A    between atoms: C_7  and  C_8
REMARK    5  A    between atoms: C_7  and  C_10
REMARK    6  A    between atoms: C_20  and  O_21
REMARK                            x       y       z     vdW  Elec       q    Type
REMARK                         _______ _______ _______ _____ _____    ______ ____
ROOT
ATOM      1  C   UNL     1       4.742   3.935  16.858  0.00  0.00    +0.000 C 
ATOM      2  C   UNL     1       5.217   5.163  16.546  0.00  0.00    +0.000 C 
ENDROOT
BRANCH   2   3
ATOM      3  C   UNL     1       6.353   5.441  15.593  0.00  0.00    +0.000 C 
ATOM      4  O   UNL     1       7.186   6.287  15.933  0.00  0.00    +0.000 OA
ATOM      5  N   UNL     1       6.461   4.751  14.365  0.00  0.00    +0.000 N 
ATOM      6  C   UNL     1       7.744   4.828  13.657  0.00  0.00    +0.000 C 
ATOM      7  C   UNL     1       7.574   4.828  12.135  0.00  0.00    +0.000 C 
ATOM      8  C   UNL     1       6.735   3.654  11.644  0.00  0.00    +0.000 C 
ATOM      9  C   UNL     1       5.406   3.650  12.358  0.00  0.00    +0.000 C 
ATOM     10  C   UNL     1       5.577   3.685  13.865  0.00  0.00    +0.000 C 
ENDBRANCH   2   3
BRANCH   1  13
ATOM     11  C   UNL     1       2.786   2.919  20.000  0.00  0.00    +0.000 A 
ATOM     12  C   UNL     1       3.852   3.190  19.108  0.00  0.00    +0.000 A 
ATOM     13  C   UNL     1       3.626   3.681  17.813  0.00  0.00    +0.000 A 
ATOM     14  C   UNL     1       2.300   3.895  17.414  0.00  0.00    +0.000 A 
ATOM     15  C   UNL     1       1.235   3.624  18.286  0.00  0.00    +0.000 A 
ATOM     16  C   UNL     1       1.473   3.135  19.569  0.00  0.00    +0.000 A 
BRANCH  11  18
ATOM     17  C   UNL     1       4.411   1.703  21.295  0.00  0.00    +0.000 C 
ATOM     18  O   UNL     1       3.199   2.453  21.221  0.00  0.00    +0.000 OA
ENDBRANCH  11  18
BRANCH  16  19
ATOM     19  O   UNL     1       0.398   2.882  20.371  0.00  0.00    +0.000 OA
ATOM     20  H   UNL     1       0.571   2.107  20.929  0.00  0.00    +0.000 HD
ENDBRANCH  16  19
ENDBRANCH   1  13
BRANCH   2  21
ATOM     21  C   UNL     1       4.492   6.365  17.130  0.00  0.00    +0.000 C 
ATOM     22  N   UNL     1       3.891   7.362  17.615  0.00  0.00    +0.000 NA
ENDBRANCH   2  21
TORSDOF 5
ENDMDL
MODEL 7
REMARK VINA RESULT:      -6.6      2.428      7.181
REMARK  Name = 
REMARK  6 active torsions:
REMARK  status: ('A' for Active; 'I' for Inactive)
REMARK    1  A    between atoms: C_1  and  O_2
REMARK    2  A    between atoms: O_2  and  C_3
REMARK    3  A    between atoms: C_5  and  C_6
REMARK    4  A    between atoms: C_7  and  C_8
REMARK    5  A    between atoms: C_7  and  C_10
REMARK    6  A    between atoms: C_20  and  O_21
REMARK                            x       y       z     vdW  Elec       q    Type
REMARK                         _______ _______ _______ _____ _____    ______ ____
ROOT
ATOM      1  C   UNL     1       5.624   4.005  16.703  0.00  0.00    +0.000 C 
ATOM      2  C   UNL     1       4.958   4.955  17.399  0.00  0.00    +0.000 C 
ENDROOT
BRANCH   2   3
ATOM      3  C   UNL     1       4.474   4.814  18.821  0.00  0.00    +0.000 C 
ATOM      4  O   UNL     1       5.250   5.148  19.721  0.00  0.00    +0.000 OA
ATOM      5  N   UNL     1       3.179   4.327  19.106  0.00  0.00    +0.000 N 
ATOM      6  C   UNL     1       2.666   4.529  20.466  0.00  0.00    +0.000 C 
ATOM      7  C   UNL     1       1.773   3.375  20.931  0.00  0.00    +0.000 C 
ATOM      8  C   UNL     1       0.647   3.078  19.948  0.00  0.00    +0.000 C 
ATOM      9  C   UNL     1       1.227   2.823  18.578  0.00  0.00    +0.000 C 
ATOM     10  C   UNL     1       2.139   3.951  18.135  0.00  0.00    +0.000 C 
ENDBRANCH   2   3
BRANCH   1  13
ATOM     11  C   UNL     1       5.971   3.555  12.907  0.00  0.00    +0.000 A 
ATOM     12  C   UNL     1       5.511   3.429  14.240  0.00  0.00    +0.000 A 
ATOM     13  C   UNL     1       6.082   4.160  15.292  0.00  0.00    +0.000 A 
ATOM     14  C   UNL     1       7.141   5.028  14.991  0.00  0.00    +0.000 A 
ATOM     15  C   UNL     1       7.611   5.157  13.675  0.00  0.00    +0.000 A 
ATOM     16  C   UNL     1       7.035   4.423  12.639  0.00  0.00    +0.000 A 
BRANCH  11  18
ATOM     17  C   UNL     1       4.134   3.307  11.371  0.00  0.00    +0.000 C 
ATOM     18  O   UNL     1       5.289   2.770  12.015  0.00  0.00    +0.000 OA
ENDBRANCH  11  18
BRANCH  16  19
ATOM     19  O   UNL     1       7.539   4.583  11.381  0.00  0.00    +0.000 OA
ATOM     20  H   UNL     1       7.730   5.519  11.213  0.00  0.00    +0.000 HD
ENDBRANCH  16  19
ENDBRANCH   1  13
BRANCH   2  21
ATOM     21  C   UNL     1       4.758   6.305  16.729  0.00  0.00    +0.000 C 
ATOM     22  N   UNL     1       4.592   7.425  16.174  0.00  0.00    +0.000 NA
ENDBRANCH   2  21
TORSDOF 5
ENDMDL
MODEL 8
REMARK VINA RESULT:      -6.6      4.586      7.332
REMARK  Name = 
REMARK  6 active torsions:
REMARK  status: ('A' for Active; 'I' for Inactive)
REMARK    1  A    between atoms: C_1  and  O_2
REMARK    2  A    between atoms: O_2  and  C_3
REMARK    3  A    between atoms: C_5  and  C_6
REMARK    4  A    between atoms: C_7  and  C_8
REMARK    5  A    between atoms: C_7  and  C_10
REMARK    6  A    between atoms: C_20  and  O_21
REMARK                            x       y       z     vdW  Elec       q    Type
REMARK                         _______ _______ _______ _____ _____    ______ ____
ROOT
ATOM      1  C   UNL     1       1.788   8.631  18.041  0.00  0.00    +0.000 C 
ATOM      2  C   UNL     1       2.134   7.772  19.028  0.00  0.00    +0.000 C 
ENDROOT
BRANCH   2   3
ATOM      3  C   UNL     1       2.982   6.537  18.850  0.00  0.00    +0.000 C 
ATOM      4  O   UNL     1       3.972   6.628  18.118  0.00  0.00    +0.000 OA
ATOM      5  N   UNL     1       2.658   5.328  19.505  0.00  0.00    +0.000 N 
ATOM      6  C   UNL     1       3.691   4.286  19.552  0.00  0.00    +0.000 C 
ATOM      7  C   UNL     1       3.101   2.875  19.480  0.00  0.00    +0.000 C 
ATOM      8  C   UNL     1       2.024   2.640  20.532  0.00  0.00    +0.000 C 
ATOM      9  C   UNL     1       0.958   3.701  20.408  0.00  0.00    +0.000 C 
ATOM     10  C   UNL     1       1.548   5.097  20.444  0.00  0.00    +0.000 C 
ENDBRANCH   2   3
BRANCH   1  13
ATOM     11  C   UNL     1      -1.253  10.967  18.202  0.00  0.00    +0.000 A 
ATOM     12  C   UNL     1      -0.453   9.809  18.047  0.00  0.00    +0.000 A 
ATOM     13  C   UNL     1       0.937   9.839  18.237  0.00  0.00    +0.000 A 
ATOM     14  C   UNL     1       1.526  11.063  18.582  0.00  0.00    +0.000 A 
ATOM     15  C   UNL     1       0.746  12.219  18.732  0.00  0.00    +0.000 A 
ATOM     16  C   UNL     1      -0.634  12.175  18.539  0.00  0.00    +0.000 A 
BRANCH  11  18
ATOM     17  C   UNL     1      -2.979   9.991  16.837  0.00  0.00    +0.000 C 
ATOM     18  O   UNL     1      -2.587  10.744  17.984  0.00  0.00    +0.000 OA
ENDBRANCH  11  18
BRANCH  16  19
ATOM     19  O   UNL     1      -1.342  13.332  18.690  0.00  0.00    +0.000 OA
ATOM     20  H   UNL     1      -1.250  13.665  19.597  0.00  0.00    +0.000 HD
ENDBRANCH  16  19
ENDBRANCH   1  13
BRANCH   2  21
ATOM     21  C   UNL     1       1.711   8.123  20.445  0.00  0.00    +0.000 C 
ATOM     22  N   UNL     1       1.359   8.415  21.621  0.00  0.00    +0.000 NA
ENDBRANCH   2  21
TORSDOF 5
ENDMDL
MODEL 9
REMARK VINA RESULT:      -6.5      1.229      1.279
REMARK  Name = 
REMARK  6 active torsions:
REMARK  status: ('A' for Active; 'I' for Inactive)
REMARK    1  A    between atoms: C_1  and  O_2
REMARK    2  A    between atoms: O_2  and  C_3
REMARK    3  A    between atoms: C_5  and  C_6
REMARK    4  A    between atoms: C_7  and  C_8
REMARK    5  A    between atoms: C_7  and  C_10
REMARK    6  A    between atoms: C_20  and  O_21
REMARK                            x       y       z     vdW  Elec       q    Type
REMARK                         _______ _______ _______ _____ _____    ______ ____
ROOT
ATOM      1  C   UNL     1       4.691   3.989  16.967  0.00  0.00    +0.000 C 
ATOM      2  C   UNL     1       5.135   5.215  16.604  0.00  0.00    +0.000 C 
ENDROOT
BRANCH   2   3
ATOM      3  C   UNL     1       6.317   5.481  15.703  0.00  0.00    +0.000 C 
ATOM      4  O   UNL     1       7.146   6.312  16.085  0.00  0.00    +0.000 OA
ATOM      5  N   UNL     1       6.468   4.797  14.477  0.00  0.00    +0.000 N 
ATOM      6  C   UNL     1       7.783   4.859  13.827  0.00  0.00    +0.000 C 
ATOM      7  C   UNL     1       7.679   4.870  12.299  0.00  0.00    +0.000 C 
ATOM      8  C   UNL     1       6.846   3.711  11.764  0.00  0.00    +0.000 C 
ATOM      9  C   UNL     1       5.486   3.723  12.419  0.00  0.00    +0.000 C 
ATOM     10  C   UNL     1       5.591   3.747  13.932  0.00  0.00    +0.000 C 
ENDBRANCH   2   3
BRANCH   1  13
ATOM     11  C   UNL     1       2.264   4.213  19.931  0.00  0.00    +0.000 A 
ATOM     12  C   UNL     1       3.351   4.467  19.061  0.00  0.00    +0.000 A 
ATOM     13  C   UNL     1       3.528   3.749  17.869  0.00  0.00    +0.000 A 
ATOM     14  C   UNL     1       2.593   2.753  17.557  0.00  0.00    +0.000 A 
ATOM     15  C   UNL     1       1.515   2.486  18.414  0.00  0.00    +0.000 A 
ATOM     16  C   UNL     1       1.352   3.206  19.596  0.00  0.00    +0.000 A 
BRANCH  11  18
ATOM     17  C   UNL     1       1.634   6.300  20.951  0.00  0.00    +0.000 C 
ATOM     18  O   UNL     1       2.250   5.016  21.042  0.00  0.00    +0.000 OA
ENDBRANCH  11  18
BRANCH  16  19
ATOM     19  O   UNL     1       0.289   2.898  20.395  0.00  0.00    +0.000 OA
ATOM     20  H   UNL     1       0.574   2.329  21.128  0.00  0.00    +0.000 HD
ENDBRANCH  16  19
ENDBRANCH   1  13
BRANCH   2  21
ATOM     21  C   UNL     1       4.330   6.419  17.065  0.00  0.00    +0.000 C 
ATOM     22  N   UNL     1       3.661   7.418  17.447  0.00  0.00    +0.000 NA
ENDBRANCH   2  21
TORSDOF 5
ENDMDL
