MODEL 1
REMARK VINA RESULT:      -7.2      0.000      0.000
REMARK  Name = 
REMARK  9 active torsions:
REMARK  status: ('A' for Active; 'I' for Inactive)
REMARK    1  A    between atoms: C_1  and  C_2
REMARK    2  A    between atoms: C_2  and  C_3
REMARK    3  A    between atoms: C_4  and  C_5
REMARK    4  A    between atoms: C_5  and  C_6
REMARK    5  A    between atoms: N_12  and  C_13
REMARK    6  A    between atoms: C_13  and  O_14
REMARK    7  A    between atoms: O_14  and  C_15
REMARK    8  A    between atoms: C_15  and  C_16
REMARK    9  A    between atoms: C_16  and  O_17
REMARK                            x       y       z     vdW  Elec       q    Type
REMARK                         _______ _______ _______ _____ _____    ______ ____
ROOT
ATOM      1  C   UNL     1       3.405   4.137  18.435  0.00  0.00    +0.000 A 
ATOM      2  C   UNL     1       3.866   5.336  17.999  0.00  0.00    +0.000 A 
ATOM      3  N   UNL     1       5.243   5.634  18.097  0.00  0.00    +0.000 N 
ATOM      4  C   UNL     1       6.141   4.775  18.719  0.00  0.00    +0.000 A 
ATOM      5  O   UNL     1       7.358   4.952  18.767  0.00  0.00    +0.000 OA
ATOM      6  N   UNL     1       5.615   3.669  19.301  0.00  0.00    +0.000 N 
ATOM      7  C   UNL     1       4.344   3.229  19.156  0.00  0.00    +0.000 A 
ATOM      8  O   UNL     1       3.990   2.144  19.600  0.00  0.00    +0.000 OA
ATOM      9  H   UNL     1       6.262   3.037  19.741  0.00  0.00    +0.000 HD
ENDROOT
BRANCH   1  11
ATOM     10  C   UNL     1       1.103   3.747  19.444  0.00  0.00    +0.000 C 
ATOM     11  C   UNL     1       2.020   3.564  18.244  0.00  0.00    +0.000 C 
ENDBRANCH   1  11
BRANCH   2  12
ATOM     12  C   UNL     1       2.920   6.377  17.384  0.00  0.00    +0.000 C 
BRANCH  12  13
ATOM     13  C   UNL     1       2.346   7.382  18.378  0.00  0.00    +0.000 A 
ATOM     14  C   UNL     1       2.259   7.036  19.737  0.00  0.00    +0.000 A 
ATOM     15  C   UNL     1       1.638   7.888  20.654  0.00  0.00    +0.000 A 
ATOM     16  C   UNL     1       1.124   9.113  20.236  0.00  0.00    +0.000 A 
ATOM     17  C   UNL     1       1.267   9.503  18.908  0.00  0.00    +0.000 A 
ATOM     18  C   UNL     1       1.883   8.650  17.990  0.00  0.00    +0.000 A 
ENDBRANCH  12  13
ENDBRANCH   2  12
BRANCH   3  19
ATOM     19  C   UNL     1       5.855   6.760  17.400  0.00  0.00    +0.000 C 
BRANCH  19  20
ATOM     20  O   UNL     1       6.529   6.387  16.206  0.00  0.00    +0.000 OA
BRANCH  20  21
ATOM     21  C   UNL     1       5.814   5.497  15.340  0.00  0.00    +0.000 C 
BRANCH  21  22
ATOM     22  C   UNL     1       6.611   4.251  14.974  0.00  0.00    +0.000 C 
BRANCH  22  23
ATOM     23  O   UNL     1       6.068   3.107  15.627  0.00  0.00    +0.000 OA
ATOM     24  H   UNL     1       6.778   2.751  16.190  0.00  0.00    +0.000 HD
ENDBRANCH  22  23
ENDBRANCH  21  22
ENDBRANCH  20  21
ENDBRANCH  19  20
ENDBRANCH   3  19
TORSDOF 8
ENDMDL
MODEL 2
REMARK VINA RESULT:      -7.0      0.514      1.147
REMARK  Name = 
REMARK  9 active torsions:
REMARK  status: ('A' for Active; 'I' for Inactive)
REMARK    1  A    between atoms: C_1  and  C_2
REMARK    2  A    between atoms: C_2  and  C_3
REMARK    3  A    between atoms: C_4  and  C_5
REMARK    4  A    between atoms: C_5  and  C_6
REMARK    5  A    between atoms: N_12  and  C_13
REMARK    6  A    between atoms: C_13  and  O_14
REMARK    7  A    between atoms: O_14  and  C_15
REMARK    8  A    between atoms: C_15  and  C_16
REMARK    9  A    between atoms: C_16  and  O_17
REMARK                            x       y       z     vdW  Elec       q    Type
REMARK                         _______ _______ _______ _____ _____    ______ ____
ROOT
ATOM      1  C   UNL     1       3.400   4.217  18.367  0.00  0.00    +0.000 A 
ATOM      2  C   UNL     1       3.875   5.441  18.027  0.00  0.00    +0.000 A 
ATOM      3  N   UNL     1       5.244   5.735  18.208  0.00  0.00    +0.000 N 
ATOM      4  C   UNL     1       6.116   4.842  18.819  0.00  0.00    +0.000 A 
ATOM      5  O   UNL     1       7.328   5.018  18.935  0.00  0.00    +0.000 OA
ATOM      6  N   UNL     1       5.569   3.701  19.306  0.00  0.00    +0.000 N 
ATOM      7  C   UNL     1       4.308   3.268  19.074  0.00  0.00    +0.000 A 
ATOM      8  O   UNL     1       3.939   2.157  19.433  0.00  0.00    +0.000 OA
ATOM      9  H   UNL     1       6.197   3.045  19.737  0.00  0.00    +0.000 HD
ENDROOT
BRANCH   1  11
ATOM     10  C   UNL     1       1.091   3.654  19.273  0.00  0.00    +0.000 C 
ATOM     11  C   UNL     1       2.029   3.653  18.075  0.00  0.00    +0.000 C 
ENDBRANCH   1  11
BRANCH   2  12
ATOM     12  C   UNL     1       2.954   6.517  17.433  0.00  0.00    +0.000 C 
BRANCH  12  13
ATOM     13  C   UNL     1       2.263   7.403  18.464  0.00  0.00    +0.000 A 
ATOM     14  C   UNL     1       1.695   8.622  18.056  0.00  0.00    +0.000 A 
ATOM     15  C   UNL     1       1.154   9.508  18.992  0.00  0.00    +0.000 A 
ATOM     16  C   UNL     1       1.140   9.177  20.344  0.00  0.00    +0.000 A 
ATOM     17  C   UNL     1       1.632   7.943  20.756  0.00  0.00    +0.000 A 
ATOM     18  C   UNL     1       2.178   7.059  19.823  0.00  0.00    +0.000 A 
ENDBRANCH  12  13
ENDBRANCH   2  12
BRANCH   3  19
ATOM     19  C   UNL     1       5.882   6.904  17.612  0.00  0.00    +0.000 C 
BRANCH  19  20
ATOM     20  O   UNL     1       6.563   6.617  16.398  0.00  0.00    +0.000 OA
BRANCH  20  21
ATOM     21  C   UNL     1       5.881   5.740  15.494  0.00  0.00    +0.000 C 
BRANCH  21  22
ATOM     22  C   UNL     1       6.628   4.435  15.249  0.00  0.00    +0.000 C 
BRANCH  22  23
ATOM     23  O   UNL     1       7.865   4.433  15.956  0.00  0.00    +0.000 OA
ATOM     24  H   UNL     1       7.671   4.771  16.849  0.00  0.00    +0.000 HD
ENDBRANCH  22  23
ENDBRANCH  21  22
ENDBRANCH  20  21
ENDBRANCH  19  20
ENDBRANCH   3  19
TORSDOF 8
ENDMDL
MODEL 3
REMARK VINA RESULT:      -6.8      2.552      5.235
REMARK  Name = 
REMARK  9 active torsions:
REMARK  status: ('A' for Active; 'I' for Inactive)
REMARK    1  A    between atoms: C_1  and  C_2
REMARK    2  A    between atoms: C_2  and  C_3
REMARK    3  A    between atoms: C_4  and  C_5
REMARK    4  A    between atoms: C_5  and  C_6
REMARK    5  A    between atoms: N_12  and  C_13
REMARK    6  A    between atoms: C_13  and  O_14
REMARK    7  A    between atoms: O_14  and  C_15
REMARK    8  A    between atoms: C_15  and  C_16
REMARK    9  A    between atoms: C_16  and  O_17
REMARK                            x       y       z     vdW  Elec       q    Type
REMARK                         _______ _______ _______ _____ _____    ______ ____
ROOT
ATOM      1  C   UNL     1       2.546   6.317  19.148  0.00  0.00    +0.000 A 
ATOM      2  C   UNL     1       2.922   5.180  18.513  0.00  0.00    +0.000 A 
ATOM      3  N   UNL     1       2.331   3.949  18.873  0.00  0.00    +0.000 N 
ATOM      4  C   UNL     1       1.437   3.841  19.931  0.00  0.00    +0.000 A 
ATOM      5  O   UNL     1       0.840   2.810  20.239  0.00  0.00    +0.000 OA
ATOM      6  N   UNL     1       1.221   4.967  20.656  0.00  0.00    +0.000 N 
ATOM      7  C   UNL     1       1.632   6.212  20.323  0.00  0.00    +0.000 A 
ATOM      8  O   UNL     1       1.271   7.194  20.960  0.00  0.00    +0.000 OA
ATOM      9  H   UNL     1       0.565   4.897  21.416  0.00  0.00    +0.000 HD
ENDROOT
BRANCH   1  11
ATOM     10  C   UNL     1       1.932   8.407  17.833  0.00  0.00    +0.000 C 
ATOM     11  C   UNL     1       2.915   7.736  18.782  0.00  0.00    +0.000 C 
ENDBRANCH   1  11
BRANCH   2  12
ATOM     12  C   UNL     1       3.974   5.203  17.394  0.00  0.00    +0.000 C 
BRANCH  12  13
ATOM     13  C   UNL     1       5.331   5.765  17.807  0.00  0.00    +0.000 A 
ATOM     14  C   UNL     1       5.914   6.790  17.044  0.00  0.00    +0.000 A 
ATOM     15  C   UNL     1       7.203   7.250  17.329  0.00  0.00    +0.000 A 
ATOM     16  C   UNL     1       7.916   6.717  18.400  0.00  0.00    +0.000 A 
ATOM     17  C   UNL     1       7.325   5.753  19.211  0.00  0.00    +0.000 A 
ATOM     18  C   UNL     1       6.039   5.290  18.923  0.00  0.00    +0.000 A 
ENDBRANCH  12  13
ENDBRANCH   2  12
BRANCH   3  19
ATOM     19  C   UNL     1       2.464   2.746  18.058  0.00  0.00    +0.000 C 
BRANCH  19  20
ATOM     20  O   UNL     1       3.215   1.718  18.691  0.00  0.00    +0.000 OA
BRANCH  20  21
ATOM     21  C   UNL     1       4.389   2.145  19.392  0.00  0.00    +0.000 C 
BRANCH  21  22
ATOM     22  C   UNL     1       4.340   1.836  20.883  0.00  0.00    +0.000 C 
BRANCH  22  23
ATOM     23  O   UNL     1       5.585   1.295  21.317  0.00  0.00    +0.000 OA
ATOM     24  H   UNL     1       6.047   2.014  21.784  0.00  0.00    +0.000 HD
ENDBRANCH  22  23
ENDBRANCH  21  22
ENDBRANCH  20  21
ENDBRANCH  19  20
ENDBRANCH   3  19
TORSDOF 8
ENDMDL
MODEL 4
REMARK VINA RESULT:      -6.8      0.992      1.118
REMARK  Name = 
REMARK  9 active torsions:
REMARK  status: ('A' for Active; 'I' for Inactive)
REMARK    1  A    between atoms: C_1  and  C_2
REMARK    2  A    between atoms: C_2  and  C_3
REMARK    3  A    between atoms: C_4  and  C_5
REMARK    4  A    between atoms: C_5  and  C_6
REMARK    5  A    between atoms: N_12  and  C_13
REMARK    6  A    between atoms: C_13  and  O_14
REMARK    7  A    between atoms: O_14  and  C_15
REMARK    8  A    between atoms: C_15  and  C_16
REMARK    9  A    between atoms: C_16  and  O_17
REMARK                            x       y       z     vdW  Elec       q    Type
REMARK                         _______ _______ _______ _____ _____    ______ ____
ROOT
ATOM      1  C   UNL     1       3.052   3.923  19.190  0.00  0.00    +0.000 A 
ATOM      2  C   UNL     1       3.431   4.914  18.345  0.00  0.00    +0.000 A 
ATOM      3  N   UNL     1       4.799   5.088  18.040  0.00  0.00    +0.000 N 
ATOM      4  C   UNL     1       5.793   4.336  18.653  0.00  0.00    +0.000 A 
ATOM      5  O   UNL     1       6.989   4.397  18.371  0.00  0.00    +0.000 OA
ATOM      6  N   UNL     1       5.390   3.478  19.623  0.00  0.00    +0.000 N 
ATOM      7  C   UNL     1       4.108   3.145  19.901  0.00  0.00    +0.000 A 
ATOM      8  O   UNL     1       3.839   2.254  20.697  0.00  0.00    +0.000 OA
ATOM      9  H   UNL     1       6.104   2.922  20.062  0.00  0.00    +0.000 HD
ENDROOT
BRANCH   1  11
ATOM     10  C   UNL     1       1.142   2.366  18.557  0.00  0.00    +0.000 C 
ATOM     11  C   UNL     1       1.644   3.461  19.487  0.00  0.00    +0.000 C 
ENDBRANCH   1  11
BRANCH   2  12
ATOM     12  C   UNL     1       2.397   5.848  17.699  0.00  0.00    +0.000 C 
BRANCH  12  13
ATOM     13  C   UNL     1       2.084   7.106  18.503  0.00  0.00    +0.000 A 
ATOM     14  C   UNL     1       1.983   7.023  19.902  0.00  0.00    +0.000 A 
ATOM     15  C   UNL     1       1.589   8.130  20.658  0.00  0.00    +0.000 A 
ATOM     16  C   UNL     1       1.322   9.346  20.033  0.00  0.00    +0.000 A 
ATOM     17  C   UNL     1       1.488   9.465  18.657  0.00  0.00    +0.000 A 
ATOM     18  C   UNL     1       1.877   8.357  17.900  0.00  0.00    +0.000 A 
ENDBRANCH  12  13
ENDBRANCH   2  12
BRANCH   3  19
ATOM     19  C   UNL     1       5.256   5.927  16.938  0.00  0.00    +0.000 C 
BRANCH  19  20
ATOM     20  O   UNL     1       4.956   5.389  15.657  0.00  0.00    +0.000 OA
BRANCH  20  21
ATOM     21  C   UNL     1       5.780   4.298  15.231  0.00  0.00    +0.000 C 
BRANCH  21  22
ATOM     22  C   UNL     1       6.731   4.672  14.101  0.00  0.00    +0.000 C 
BRANCH  22  23
ATOM     23  O   UNL     1       7.806   5.463  14.600  0.00  0.00    +0.000 OA
ATOM     24  H   UNL     1       8.619   4.949  14.444  0.00  0.00    +0.000 HD
ENDBRANCH  22  23
ENDBRANCH  21  22
ENDBRANCH  20  21
ENDBRANCH  19  20
ENDBRANCH   3  19
TORSDOF 8
ENDMDL
MODEL 5
REMARK VINA RESULT:      -6.8      2.861      5.132
REMARK  Name = 
REMARK  9 active torsions:
REMARK  status: ('A' for Active; 'I' for Inactive)
REMARK    1  A    between atoms: C_1  and  C_2
REMARK    2  A    between atoms: C_2  and  C_3
REMARK    3  A    between atoms: C_4  and  C_5
REMARK    4  A    between atoms: C_5  and  C_6
REMARK    5  A    between atoms: N_12  and  C_13
REMARK    6  A    between atoms: C_13  and  O_14
REMARK    7  A    between atoms: O_14  and  C_15
REMARK    8  A    between atoms: C_15  and  C_16
REMARK    9  A    between atoms: C_16  and  O_17
REMARK                            x       y       z     vdW  Elec       q    Type
REMARK                         _______ _______ _______ _____ _____    ______ ____
ROOT
ATOM      1  C   UNL     1       3.241   3.756  19.581  0.00  0.00    +0.000 A 
ATOM      2  C   UNL     1       3.359   4.917  18.891  0.00  0.00    +0.000 A 
ATOM      3  N   UNL     1       2.677   6.070  19.337  0.00  0.00    +0.000 N 
ATOM      4  C   UNL     1       1.801   6.037  20.415  0.00  0.00    +0.000 A 
ATOM      5  O   UNL     1       1.239   7.024  20.889  0.00  0.00    +0.000 OA
ATOM      6  N   UNL     1       1.571   4.822  20.970  0.00  0.00    +0.000 N 
ATOM      7  C   UNL     1       2.262   3.688  20.705  0.00  0.00    +0.000 A 
ATOM      8  O   UNL     1       2.084   2.666  21.355  0.00  0.00    +0.000 OA
ATOM      9  H   UNL     1       0.947   4.794  21.759  0.00  0.00    +0.000 HD
ENDROOT
BRANCH   1  11
ATOM     10  C   UNL     1       3.443   1.551  18.329  0.00  0.00    +0.000 C 
ATOM     11  C   UNL     1       4.031   2.484  19.378  0.00  0.00    +0.000 C 
ENDBRANCH   1  11
BRANCH   2  12
ATOM     12  C   UNL     1       4.236   5.010  17.633  0.00  0.00    +0.000 C 
BRANCH  12  13
ATOM     13  C   UNL     1       5.599   5.657  17.853  0.00  0.00    +0.000 A 
ATOM     14  C   UNL     1       6.419   5.202  18.898  0.00  0.00    +0.000 A 
ATOM     15  C   UNL     1       7.623   5.846  19.197  0.00  0.00    +0.000 A 
ATOM     16  C   UNL     1       8.044   6.933  18.434  0.00  0.00    +0.000 A 
ATOM     17  C   UNL     1       7.280   7.351  17.350  0.00  0.00    +0.000 A 
ATOM     18  C   UNL     1       6.073   6.712  17.055  0.00  0.00    +0.000 A 
ENDBRANCH  12  13
ENDBRANCH   2  12
BRANCH   3  19
ATOM     19  C   UNL     1       2.974   7.405  18.829  0.00  0.00    +0.000 C 
BRANCH  19  20
ATOM     20  O   UNL     1       2.017   7.876  17.890  0.00  0.00    +0.000 OA
BRANCH  20  21
ATOM     21  C   UNL     1       1.843   9.297  17.838  0.00  0.00    +0.000 C 
BRANCH  21  22
ATOM     22  C   UNL     1       0.623   9.779  18.615  0.00  0.00    +0.000 C 
BRANCH  22  23
ATOM     23  O   UNL     1       0.945   9.937  19.993  0.00  0.00    +0.000 OA
ATOM     24  H   UNL     1       1.291   9.077  20.293  0.00  0.00    +0.000 HD
ENDBRANCH  22  23
ENDBRANCH  21  22
ENDBRANCH  20  21
ENDBRANCH  19  20
ENDBRANCH   3  19
TORSDOF 8
ENDMDL
MODEL 6
REMARK VINA RESULT:      -6.7      1.574      2.698
REMARK  Name = 
REMARK  9 active torsions:
REMARK  status: ('A' for Active; 'I' for Inactive)
REMARK    1  A    between atoms: C_1  and  C_2
REMARK    2  A    between atoms: C_2  and  C_3
REMARK    3  A    between atoms: C_4  and  C_5
REMARK    4  A    between atoms: C_5  and  C_6
REMARK    5  A    between atoms: N_12  and  C_13
REMARK    6  A    between atoms: C_13  and  O_14
REMARK    7  A    between atoms: O_14  and  C_15
REMARK    8  A    between atoms: C_15  and  C_16
REMARK    9  A    between atoms: C_16  and  O_17
REMARK                            x       y       z     vdW  Elec       q    Type
REMARK                         _______ _______ _______ _____ _____    ______ ____
ROOT
ATOM      1  C   UNL     1       2.586   3.984  18.612  0.00  0.00    +0.000 A 
ATOM      2  C   UNL     1       3.556   4.903  18.845  0.00  0.00    +0.000 A 
ATOM      3  N   UNL     1       4.740   4.881  18.075  0.00  0.00    +0.000 N 
ATOM      4  C   UNL     1       4.995   3.883  17.143  0.00  0.00    +0.000 A 
ATOM      5  O   UNL     1       5.974   3.857  16.398  0.00  0.00    +0.000 OA
ATOM      6  N   UNL     1       4.083   2.882  17.064  0.00  0.00    +0.000 N 
ATOM      7  C   UNL     1       2.866   2.873  17.656  0.00  0.00    +0.000 A 
ATOM      8  O   UNL     1       2.047   1.995  17.417  0.00  0.00    +0.000 OA
ATOM      9  H   UNL     1       4.257   2.163  16.382  0.00  0.00    +0.000 HD
ENDROOT
BRANCH   1  11
ATOM     10  C   UNL     1       1.090   3.279  20.544  0.00  0.00    +0.000 C 
ATOM     11  C   UNL     1       1.189   3.960  19.188  0.00  0.00    +0.000 C 
ENDBRANCH   1  11
BRANCH   2  12
ATOM     12  C   UNL     1       3.388   5.982  19.924  0.00  0.00    +0.000 C 
BRANCH  12  13
ATOM     13  C   UNL     1       2.519   7.166  19.512  0.00  0.00    +0.000 A 
ATOM     14  C   UNL     1       2.525   7.594  18.174  0.00  0.00    +0.000 A 
ATOM     15  C   UNL     1       1.828   8.742  17.787  0.00  0.00    +0.000 A 
ATOM     16  C   UNL     1       1.086   9.460  18.721  0.00  0.00    +0.000 A 
ATOM     17  C   UNL     1       1.010   9.009  20.035  0.00  0.00    +0.000 A 
ATOM     18  C   UNL     1       1.711   7.865  20.424  0.00  0.00    +0.000 A 
ENDBRANCH  12  13
ENDBRANCH   2  12
BRANCH   3  19
ATOM     19  C   UNL     1       5.690   5.988  18.064  0.00  0.00    +0.000 C 
BRANCH  19  20
ATOM     20  O   UNL     1       6.852   5.741  18.843  0.00  0.00    +0.000 OA
BRANCH  20  21
ATOM     21  C   UNL     1       7.929   6.669  18.667  0.00  0.00    +0.000 C 
BRANCH  21  22
ATOM     22  C   UNL     1       7.658   7.698  17.575  0.00  0.00    +0.000 C 
BRANCH  22  23
ATOM     23  O   UNL     1       8.208   8.961  17.939  0.00  0.00    +0.000 OA
ATOM     24  H   UNL     1       9.176   8.863  17.885  0.00  0.00    +0.000 HD
ENDBRANCH  22  23
ENDBRANCH  21  22
ENDBRANCH  20  21
ENDBRANCH  19  20
ENDBRANCH   3  19
TORSDOF 8
ENDMDL
MODEL 7
REMARK VINA RESULT:      -6.7      2.652      5.480
REMARK  Name = 
REMARK  9 active torsions:
REMARK  status: ('A' for Active; 'I' for Inactive)
REMARK    1  A    between atoms: C_1  and  C_2
REMARK    2  A    between atoms: C_2  and  C_3
REMARK    3  A    between atoms: C_4  and  C_5
REMARK    4  A    between atoms: C_5  and  C_6
REMARK    5  A    between atoms: N_12  and  C_13
REMARK    6  A    between atoms: C_13  and  O_14
REMARK    7  A    between atoms: O_14  and  C_15
REMARK    8  A    between atoms: C_15  and  C_16
REMARK    9  A    between atoms: C_16  and  O_17
REMARK                            x       y       z     vdW  Elec       q    Type
REMARK                         _______ _______ _______ _____ _____    ______ ____
ROOT
ATOM      1  C   UNL     1       2.436   5.851  18.829  0.00  0.00    +0.000 A 
ATOM      2  C   UNL     1       2.698   4.531  18.664  0.00  0.00    +0.000 A 
ATOM      3  N   UNL     1       2.546   3.646  19.755  0.00  0.00    +0.000 N 
ATOM      4  C   UNL     1       2.227   4.096  21.030  0.00  0.00    +0.000 A 
ATOM      5  O   UNL     1       2.012   3.364  21.995  0.00  0.00    +0.000 OA
ATOM      6  N   UNL     1       2.147   5.439  21.195  0.00  0.00    +0.000 N 
ATOM      7  C   UNL     1       2.148   6.359  20.202  0.00  0.00    +0.000 A 
ATOM      8  O   UNL     1       1.927   7.542  20.428  0.00  0.00    +0.000 OA
ATOM      9  H   UNL     1       1.903   5.770  22.113  0.00  0.00    +0.000 HD
ENDROOT
BRANCH   1  11
ATOM     10  C   UNL     1       3.662   7.652  17.515  0.00  0.00    +0.000 C 
ATOM     11  C   UNL     1       2.355   6.910  17.753  0.00  0.00    +0.000 C 
ENDBRANCH   1  11
BRANCH   2  12
ATOM     12  C   UNL     1       3.148   3.971  17.307  0.00  0.00    +0.000 C 
BRANCH  12  13
ATOM     13  C   UNL     1       4.613   4.221  16.968  0.00  0.00    +0.000 A 
ATOM     14  C   UNL     1       5.543   4.393  18.007  0.00  0.00    +0.000 A 
ATOM     15  C   UNL     1       6.870   4.735  17.732  0.00  0.00    +0.000 A 
ATOM     16  C   UNL     1       7.298   4.876  16.414  0.00  0.00    +0.000 A 
ATOM     17  C   UNL     1       6.408   4.639  15.371  0.00  0.00    +0.000 A 
ATOM     18  C   UNL     1       5.081   4.303  15.646  0.00  0.00    +0.000 A 
ENDBRANCH  12  13
ENDBRANCH   2  12
BRANCH   3  19
ATOM     19  C   UNL     1       2.529   2.197  19.594  0.00  0.00    +0.000 C 
BRANCH  19  20
ATOM     20  O   UNL     1       3.817   1.638  19.376  0.00  0.00    +0.000 OA
BRANCH  20  21
ATOM     21  C   UNL     1       4.793   1.913  20.388  0.00  0.00    +0.000 C 
BRANCH  21  22
ATOM     22  C   UNL     1       5.450   0.654  20.942  0.00  0.00    +0.000 C 
BRANCH  22  23
ATOM     23  O   UNL     1       6.003   0.910  22.230  0.00  0.00    +0.000 OA
ATOM     24  H   UNL     1       6.713   1.565  22.097  0.00  0.00    +0.000 HD
ENDBRANCH  22  23
ENDBRANCH  21  22
ENDBRANCH  20  21
ENDBRANCH  19  20
ENDBRANCH   3  19
TORSDOF 8
ENDMDL
MODEL 8
REMARK VINA RESULT:      -6.6      1.158      1.875
REMARK  Name = 
REMARK  9 active torsions:
REMARK  status: ('A' for Active; 'I' for Inactive)
REMARK    1  A    between atoms: C_1  and  C_2
REMARK    2  A    between atoms: C_2  and  C_3
REMARK    3  A    between atoms: C_4  and  C_5
REMARK    4  A    between atoms: C_5  and  C_6
REMARK    5  A    between atoms: N_12  and  C_13
REMARK    6  A    between atoms: C_13  and  O_14
REMARK    7  A    between atoms: O_14  and  C_15
REMARK    8  A    between atoms: C_15  and  C_16
REMARK    9  A    between atoms: C_16  and  O_17
REMARK                            x       y       z     vdW  Elec       q    Type
REMARK                         _______ _______ _______ _____ _____    ______ ____
ROOT
ATOM      1  C   UNL     1       3.077   4.108  19.024  0.00  0.00    +0.000 A 
ATOM      2  C   UNL     1       3.557   5.082  18.210  0.00  0.00    +0.000 A 
ATOM      3  N   UNL     1       4.945   5.168  17.966  0.00  0.00    +0.000 N 
ATOM      4  C   UNL     1       5.860   4.344  18.609  0.00  0.00    +0.000 A 
ATOM      5  O   UNL     1       7.068   4.329  18.379  0.00  0.00    +0.000 OA
ATOM      6  N   UNL     1       5.360   3.503  19.548  0.00  0.00    +0.000 N 
ATOM      7  C   UNL     1       4.048   3.252  19.766  0.00  0.00    +0.000 A 
ATOM      8  O   UNL     1       3.686   2.372  20.536  0.00  0.00    +0.000 OA
ATOM      9  H   UNL     1       6.016   2.895  20.008  0.00  0.00    +0.000 HD
ENDROOT
BRANCH   1  11
ATOM     10  C   UNL     1       1.197   2.463  18.543  0.00  0.00    +0.000 C 
ATOM     11  C   UNL     1       1.630   3.737  19.254  0.00  0.00    +0.000 C 
ENDBRANCH   1  11
BRANCH   2  12
ATOM     12  C   UNL     1       2.616   6.091  17.535  0.00  0.00    +0.000 C 
BRANCH  12  13
ATOM     13  C   UNL     1       2.193   7.258  18.420  0.00  0.00    +0.000 A 
ATOM     14  C   UNL     1       2.145   7.086  19.814  0.00  0.00    +0.000 A 
ATOM     15  C   UNL     1       1.656   8.098  20.644  0.00  0.00    +0.000 A 
ATOM     16  C   UNL     1       1.239   9.310  20.100  0.00  0.00    +0.000 A 
ATOM     17  C   UNL     1       1.347   9.524  18.729  0.00  0.00    +0.000 A 
ATOM     18  C   UNL     1       1.831   8.511  17.898  0.00  0.00    +0.000 A 
ENDBRANCH  12  13
ENDBRANCH   2  12
BRANCH   3  19
ATOM     19  C   UNL     1       5.504   5.988  16.897  0.00  0.00    +0.000 C 
BRANCH  19  20
ATOM     20  O   UNL     1       6.022   7.231  17.352  0.00  0.00    +0.000 OA
BRANCH  20  21
ATOM     21  C   UNL     1       7.413   7.458  17.094  0.00  0.00    +0.000 C 
BRANCH  21  22
ATOM     22  C   UNL     1       8.205   7.805  18.348  0.00  0.00    +0.000 C 
BRANCH  22  23
ATOM     23  O   UNL     1       8.336   6.659  19.184  0.00  0.00    +0.000 OA
ATOM     24  H   UNL     1       7.482   6.556  19.642  0.00  0.00    +0.000 HD
ENDBRANCH  22  23
ENDBRANCH  21  22
ENDBRANCH  20  21
ENDBRANCH  19  20
ENDBRANCH   3  19
TORSDOF 8
ENDMDL
MODEL 9
REMARK VINA RESULT:      -6.6      2.868      6.136
REMARK  Name = 
REMARK  9 active torsions:
REMARK  status: ('A' for Active; 'I' for Inactive)
REMARK    1  A    between atoms: C_1  and  C_2
REMARK    2  A    between atoms: C_2  and  C_3
REMARK    3  A    between atoms: C_4  and  C_5
REMARK    4  A    between atoms: C_5  and  C_6
REMARK    5  A    between atoms: N_12  and  C_13
REMARK    6  A    between atoms: C_13  and  O_14
REMARK    7  A    between atoms: O_14  and  C_15
REMARK    8  A    between atoms: C_15  and  C_16
REMARK    9  A    between atoms: C_16  and  O_17
REMARK                            x       y       z     vdW  Elec       q    Type
REMARK                         _______ _______ _______ _____ _____    ______ ____
ROOT
ATOM      1  C   UNL     1       6.762   5.725  17.590  0.00  0.00    +0.000 A 
ATOM      2  C   UNL     1       5.656   5.276  16.946  0.00  0.00    +0.000 A 
ATOM      3  N   UNL     1       4.824   4.320  17.569  0.00  0.00    +0.000 N 
ATOM      4  C   UNL     1       5.149   3.743  18.790  0.00  0.00    +0.000 A 
ATOM      5  O   UNL     1       4.426   2.962  19.408  0.00  0.00    +0.000 OA
ATOM      6  N   UNL     1       6.349   4.084  19.319  0.00  0.00    +0.000 N 
ATOM      7  C   UNL     1       7.156   5.076  18.874  0.00  0.00    +0.000 A 
ATOM      8  O   UNL     1       8.155   5.413  19.496  0.00  0.00    +0.000 OA
ATOM      9  H   UNL     1       6.584   3.679  20.209  0.00  0.00    +0.000 HD
ENDROOT
BRANCH   1  11
ATOM     10  C   UNL     1       7.182   8.233  17.656  0.00  0.00    +0.000 C 
ATOM     11  C   UNL     1       7.659   6.869  17.179  0.00  0.00    +0.000 C 
ENDBRANCH   1  11
BRANCH   2  12
ATOM     12  C   UNL     1       5.280   5.796  15.551  0.00  0.00    +0.000 C 
BRANCH  12  13
ATOM     13  C   UNL     1       5.899   5.021  14.393  0.00  0.00    +0.000 A 
ATOM     14  C   UNL     1       7.185   5.363  13.942  0.00  0.00    +0.000 A 
ATOM     15  C   UNL     1       7.736   4.749  12.814  0.00  0.00    +0.000 A 
ATOM     16  C   UNL     1       7.025   3.760  12.139  0.00  0.00    +0.000 A 
ATOM     17  C   UNL     1       5.781   3.358  12.614  0.00  0.00    +0.000 A 
ATOM     18  C   UNL     1       5.228   3.975  13.738  0.00  0.00    +0.000 A 
ENDBRANCH  12  13
ENDBRANCH   2  12
BRANCH   3  19
ATOM     19  C   UNL     1       3.486   4.004  17.078  0.00  0.00    +0.000 C 
BRANCH  19  20
ATOM     20  O   UNL     1       2.454   4.692  17.772  0.00  0.00    +0.000 OA
BRANCH  20  21
ATOM     21  C   UNL     1       1.303   3.909  18.110  0.00  0.00    +0.000 C 
BRANCH  21  22
ATOM     22  C   UNL     1       1.085   3.784  19.613  0.00  0.00    +0.000 C 
BRANCH  22  23
ATOM     23  O   UNL     1       1.675   2.582  20.100  0.00  0.00    +0.000 OA
ATOM     24  H   UNL     1       2.052   2.129  19.325  0.00  0.00    +0.000 HD
ENDBRANCH  22  23
ENDBRANCH  21  22
ENDBRANCH  20  21
ENDBRANCH  19  20
ENDBRANCH   3  19
TORSDOF 8
ENDMDL
