MODEL 1
REMARK VINA RESULT:      -7.0      0.000      0.000
REMARK  Name = 
REMARK  7 active torsions:
REMARK  status: ('A' for Active; 'I' for Inactive)
REMARK    1  A    between atoms: C_1  and  N_2
REMARK    2  A    between atoms: N_2  and  C_3
REMARK    3  A    between atoms: N_2  and  C_4
REMARK    4  A    between atoms: C_4  and  C_5
REMARK    5  A    between atoms: C_7  and  N_8
REMARK    6  A    between atoms: N_9  and  C_10
REMARK    7  A    between atoms: C_20  and  O_21
REMARK                            x       y       z     vdW  Elec       q    Type
REMARK                         _______ _______ _______ _____ _____    ______ ____
ROOT
ATOM      1  C   UNL     1       4.545   4.142  19.317  0.00  0.00    +0.000 A 
ATOM      2  C   UNL     1       3.714   5.247  19.580  0.00  0.00    +0.000 A 
ATOM      3  C   UNL     1       2.540   5.121  20.333  0.00  0.00    +0.000 A 
ATOM      4  C   UNL     1       2.184   3.848  20.800  0.00  0.00    +0.000 A 
ATOM      5  C   UNL     1       2.988   2.735  20.539  0.00  0.00    +0.000 A 
ATOM      6  C   UNL     1       4.160   2.889  19.801  0.00  0.00    +0.000 A 
ENDROOT
BRANCH   3   7
ATOM      7  N   UNL     1       1.754   6.275  20.544  0.00  0.00    +0.000 NA
ATOM      8  N   UNL     1       2.208   7.275  19.951  0.00  0.00    +0.000 NA
BRANCH   8   9
ATOM      9  C   UNL     1       1.438   8.437  20.164  0.00  0.00    +0.000 A 
ATOM     10  C   UNL     1       1.151   9.382  19.167  0.00  0.00    +0.000 A 
ATOM     11  C   UNL     1       0.352  10.498  19.441  0.00  0.00    +0.000 A 
ATOM     12  C   UNL     1      -0.182  10.679  20.718  0.00  0.00    +0.000 A 
ATOM     13 CL   UNL     1      -1.165  12.073  20.989  0.00  0.00    +0.000 Cl
ATOM     14  C   UNL     1       0.087   9.742  21.719  0.00  0.00    +0.000 A 
ATOM     15 CL   UNL     1      -0.546   9.891  23.321  0.00  0.00    +0.000 Cl
ATOM     16  C   UNL     1       0.890   8.630  21.439  0.00  0.00    +0.000 A 
ENDBRANCH   8   9
ENDBRANCH   3   7
BRANCH   6  17
ATOM     17  O   UNL     1       4.953   1.804  19.556  0.00  0.00    +0.000 OA
ATOM     18  H   UNL     1       4.580   1.030  20.009  0.00  0.00    +0.000 HD
ENDBRANCH   6  17
BRANCH   1  19
ATOM     19  C   UNL     1       5.837   4.342  18.551  0.00  0.00    +0.000 C 
BRANCH  19  21
ATOM     20  C   UNL     1       6.914   5.161  16.533  0.00  0.00    +0.000 C 
ATOM     21  N   UNL     1       5.634   4.930  17.210  0.00  0.00    +0.000 NA
ATOM     22  C   UNL     1       4.806   4.035  16.398  0.00  0.00    +0.000 C 
ENDBRANCH  19  21
ENDBRANCH   1  19
TORSDOF 5
ENDMDL
MODEL 2
REMARK VINA RESULT:      -7.0      5.776      7.358
REMARK  Name = 
REMARK  7 active torsions:
REMARK  status: ('A' for Active; 'I' for Inactive)
REMARK    1  A    between atoms: C_1  and  N_2
REMARK    2  A    between atoms: N_2  and  C_3
REMARK    3  A    between atoms: N_2  and  C_4
REMARK    4  A    between atoms: C_4  and  C_5
REMARK    5  A    between atoms: C_7  and  N_8
REMARK    6  A    between atoms: N_9  and  C_10
REMARK    7  A    between atoms: C_20  and  O_21
REMARK                            x       y       z     vdW  Elec       q    Type
REMARK                         _______ _______ _______ _____ _____    ______ ____
ROOT
ATOM      1  C   UNL     1       5.829   5.928  17.540  0.00  0.00    +0.000 A 
ATOM      2  C   UNL     1       6.309   7.236  17.339  0.00  0.00    +0.000 A 
ATOM      3  C   UNL     1       7.508   7.676  17.913  0.00  0.00    +0.000 A 
ATOM      4  C   UNL     1       8.218   6.787  18.732  0.00  0.00    +0.000 A 
ATOM      5  C   UNL     1       7.753   5.488  18.955  0.00  0.00    +0.000 A 
ATOM      6  C   UNL     1       6.566   5.067  18.360  0.00  0.00    +0.000 A 
ENDROOT
BRANCH   3   7
ATOM      7  N   UNL     1       7.916   9.006  17.673  0.00  0.00    +0.000 NA
ATOM      8  N   UNL     1       8.792   9.388  18.475  0.00  0.00    +0.000 NA
BRANCH   8   9
ATOM      9  C   UNL     1       9.200  10.719  18.252  0.00  0.00    +0.000 A 
ATOM     10  C   UNL     1      10.540  11.133  18.207  0.00  0.00    +0.000 A 
ATOM     11  C   UNL     1      10.873  12.468  17.950  0.00  0.00    +0.000 A 
ATOM     12  C   UNL     1       9.868  13.408  17.722  0.00  0.00    +0.000 A 
ATOM     13 CL   UNL     1      10.346  15.037  17.402  0.00  0.00    +0.000 Cl
ATOM     14  C   UNL     1       8.528  13.009  17.753  0.00  0.00    +0.000 A 
ATOM     15 CL   UNL     1       7.228  14.112  17.470  0.00  0.00    +0.000 Cl
ATOM     16  C   UNL     1       8.202  11.674  18.016  0.00  0.00    +0.000 A 
ENDBRANCH   8   9
ENDBRANCH   3   7
BRANCH   6  17
ATOM     17  O   UNL     1       6.117   3.794  18.567  0.00  0.00    +0.000 OA
ATOM     18  H   UNL     1       5.900   3.391  17.711  0.00  0.00    +0.000 HD
ENDBRANCH   6  17
BRANCH   1  19
ATOM     19  C   UNL     1       4.560   5.480  16.846  0.00  0.00    +0.000 C 
BRANCH  19  21
ATOM     20  C   UNL     1       2.535   5.985  18.090  0.00  0.00    +0.000 C 
ATOM     21  N   UNL     1       3.537   4.961  17.780  0.00  0.00    +0.000 NA
ATOM     22  C   UNL     1       2.878   3.793  17.191  0.00  0.00    +0.000 C 
ENDBRANCH  19  21
ENDBRANCH   1  19
TORSDOF 5
ENDMDL
MODEL 3
REMARK VINA RESULT:      -7.0      1.776      3.163
REMARK  Name = 
REMARK  7 active torsions:
REMARK  status: ('A' for Active; 'I' for Inactive)
REMARK    1  A    between atoms: C_1  and  N_2
REMARK    2  A    between atoms: N_2  and  C_3
REMARK    3  A    between atoms: N_2  and  C_4
REMARK    4  A    between atoms: C_4  and  C_5
REMARK    5  A    between atoms: C_7  and  N_8
REMARK    6  A    between atoms: N_9  and  C_10
REMARK    7  A    between atoms: C_20  and  O_21
REMARK                            x       y       z     vdW  Elec       q    Type
REMARK                         _______ _______ _______ _____ _____    ______ ____
ROOT
ATOM      1  C   UNL     1       4.104   4.308  17.429  0.00  0.00    +0.000 A 
ATOM      2  C   UNL     1       3.366   5.422  17.872  0.00  0.00    +0.000 A 
ATOM      3  C   UNL     1       3.687   6.725  17.472  0.00  0.00    +0.000 A 
ATOM      4  C   UNL     1       4.795   6.906  16.633  0.00  0.00    +0.000 A 
ATOM      5  C   UNL     1       5.550   5.816  16.191  0.00  0.00    +0.000 A 
ATOM      6  C   UNL     1       5.201   4.528  16.590  0.00  0.00    +0.000 A 
ENDROOT
BRANCH   3   7
ATOM      7  N   UNL     1       2.905   7.789  17.969  0.00  0.00    +0.000 NA
ATOM      8  N   UNL     1       2.364   7.513  19.059  0.00  0.00    +0.000 NA
BRANCH   8   9
ATOM      9  C   UNL     1       1.570   8.565  19.562  0.00  0.00    +0.000 A 
ATOM     10  C   UNL     1       1.073   9.617  18.777  0.00  0.00    +0.000 A 
ATOM     11  C   UNL     1       0.265  10.613  19.337  0.00  0.00    +0.000 A 
ATOM     12  C   UNL     1      -0.069  10.564  20.691  0.00  0.00    +0.000 A 
ATOM     13 CL   UNL     1      -1.077  11.818  21.318  0.00  0.00    +0.000 Cl
ATOM     14  C   UNL     1       0.409   9.517  21.483  0.00  0.00    +0.000 A 
ATOM     15 CL   UNL     1       0.032   9.381  23.165  0.00  0.00    +0.000 Cl
ATOM     16  C   UNL     1       1.222   8.527  20.918  0.00  0.00    +0.000 A 
ENDBRANCH   8   9
ENDBRANCH   3   7
BRANCH   6  17
ATOM     17  O   UNL     1       5.930   3.461  16.149  0.00  0.00    +0.000 OA
ATOM     18  H   UNL     1       6.318   3.677  15.285  0.00  0.00    +0.000 HD
ENDBRANCH   6  17
BRANCH   1  19
ATOM     19  C   UNL     1       3.678   2.914  17.840  0.00  0.00    +0.000 C 
BRANCH  19  21
ATOM     20  C   UNL     1       2.016   2.078  19.403  0.00  0.00    +0.000 C 
ATOM     21  N   UNL     1       3.269   2.825  19.259  0.00  0.00    +0.000 NA
ATOM     22  C   UNL     1       4.322   2.168  20.036  0.00  0.00    +0.000 C 
ENDBRANCH  19  21
ENDBRANCH   1  19
TORSDOF 5
ENDMDL
MODEL 4
REMARK VINA RESULT:      -6.9      1.470      2.257
REMARK  Name = 
REMARK  7 active torsions:
REMARK  status: ('A' for Active; 'I' for Inactive)
REMARK    1  A    between atoms: C_1  and  N_2
REMARK    2  A    between atoms: N_2  and  C_3
REMARK    3  A    between atoms: N_2  and  C_4
REMARK    4  A    between atoms: C_4  and  C_5
REMARK    5  A    between atoms: C_7  and  N_8
REMARK    6  A    between atoms: N_9  and  C_10
REMARK    7  A    between atoms: C_20  and  O_21
REMARK                            x       y       z     vdW  Elec       q    Type
REMARK                         _______ _______ _______ _____ _____    ______ ____
ROOT
ATOM      1  C   UNL     1       4.058   5.470  17.801  0.00  0.00    +0.000 A 
ATOM      2  C   UNL     1       3.398   6.607  18.306  0.00  0.00    +0.000 A 
ATOM      3  C   UNL     1       2.647   6.558  19.486  0.00  0.00    +0.000 A 
ATOM      4  C   UNL     1       2.534   5.328  20.151  0.00  0.00    +0.000 A 
ATOM      5  C   UNL     1       3.170   4.184  19.660  0.00  0.00    +0.000 A 
ATOM      6  C   UNL     1       3.927   4.262  18.493  0.00  0.00    +0.000 A 
ENDROOT
BRANCH   3   7
ATOM      7  N   UNL     1       2.006   7.738  19.920  0.00  0.00    +0.000 NA
ATOM      8  N   UNL     1       1.340   7.563  20.962  0.00  0.00    +0.000 NA
BRANCH   8   9
ATOM      9  C   UNL     1       0.686   8.733  21.400  0.00  0.00    +0.000 A 
ATOM     10  C   UNL     1      -0.023   8.831  22.606  0.00  0.00    +0.000 A 
ATOM     11  C   UNL     1      -0.623  10.035  22.993  0.00  0.00    +0.000 A 
ATOM     12  C   UNL     1      -0.511  11.165  22.182  0.00  0.00    +0.000 A 
ATOM     13 CL   UNL     1      -1.266  12.621  22.720  0.00  0.00    +0.000 Cl
ATOM     14  C   UNL     1       0.202  11.086  20.982  0.00  0.00    +0.000 A 
ATOM     15 CL   UNL     1       0.394  12.443  19.928  0.00  0.00    +0.000 Cl
ATOM     16  C   UNL     1       0.795   9.877  20.599  0.00  0.00    +0.000 A 
ENDBRANCH   8   9
ENDBRANCH   3   7
BRANCH   6  17
ATOM     17  O   UNL     1       4.559   3.148  18.019  0.00  0.00    +0.000 OA
ATOM     18  H   UNL     1       5.356   3.419  17.534  0.00  0.00    +0.000 HD
ENDBRANCH   6  17
BRANCH   1  19
ATOM     19  C   UNL     1       4.911   5.590  16.555  0.00  0.00    +0.000 C 
BRANCH  19  21
ATOM     20  C   UNL     1       6.884   4.619  15.523  0.00  0.00    +0.000 C 
ATOM     21  N   UNL     1       6.309   5.152  16.761  0.00  0.00    +0.000 NA
ATOM     22  C   UNL     1       7.116   6.280  17.230  0.00  0.00    +0.000 C 
ENDBRANCH  19  21
ENDBRANCH   1  19
TORSDOF 5
ENDMDL
MODEL 5
REMARK VINA RESULT:      -6.8      2.040      3.404
REMARK  Name = 
REMARK  7 active torsions:
REMARK  status: ('A' for Active; 'I' for Inactive)
REMARK    1  A    between atoms: C_1  and  N_2
REMARK    2  A    between atoms: N_2  and  C_3
REMARK    3  A    between atoms: N_2  and  C_4
REMARK    4  A    between atoms: C_4  and  C_5
REMARK    5  A    between atoms: C_7  and  N_8
REMARK    6  A    between atoms: N_9  and  C_10
REMARK    7  A    between atoms: C_20  and  O_21
REMARK                            x       y       z     vdW  Elec       q    Type
REMARK                         _______ _______ _______ _____ _____    ______ ____
ROOT
ATOM      1  C   UNL     1       3.264   5.249  18.875  0.00  0.00    +0.000 A 
ATOM      2  C   UNL     1       2.444   6.258  19.415  0.00  0.00    +0.000 A 
ATOM      3  C   UNL     1       2.411   7.548  18.871  0.00  0.00    +0.000 A 
ATOM      4  C   UNL     1       3.246   7.830  17.781  0.00  0.00    +0.000 A 
ATOM      5  C   UNL     1       4.076   6.847  17.237  0.00  0.00    +0.000 A 
ATOM      6  C   UNL     1       4.080   5.566  17.785  0.00  0.00    +0.000 A 
ENDROOT
BRANCH   3   7
ATOM      7  N   UNL     1       1.571   8.506  19.477  0.00  0.00    +0.000 NA
ATOM      8  N   UNL     1       1.370   8.268  20.686  0.00  0.00    +0.000 NA
BRANCH   8   9
ATOM      9  C   UNL     1       0.523   9.214  21.300  0.00  0.00    +0.000 A 
ATOM     10  C   UNL     1       0.162   9.181  22.655  0.00  0.00    +0.000 A 
ATOM     11  C   UNL     1      -0.660  10.172  23.206  0.00  0.00    +0.000 A 
ATOM     12  C   UNL     1      -1.123  11.219  22.408  0.00  0.00    +0.000 A 
ATOM     13 CL   UNL     1      -2.125  12.414  23.150  0.00  0.00    +0.000 Cl
ATOM     14  C   UNL     1      -0.762  11.272  21.059  0.00  0.00    +0.000 A 
ATOM     15 CL   UNL     1      -1.287  12.542  20.010  0.00  0.00    +0.000 Cl
ATOM     16  C   UNL     1       0.055  10.275  20.514  0.00  0.00    +0.000 A 
ENDBRANCH   8   9
ENDBRANCH   3   7
BRANCH   6  17
ATOM     17  O   UNL     1       4.883   4.601  17.247  0.00  0.00    +0.000 OA
ATOM     18  H   UNL     1       5.712   4.561  17.752  0.00  0.00    +0.000 HD
ENDBRANCH   6  17
BRANCH   1  19
ATOM     19  C   UNL     1       3.217   3.852  19.460  0.00  0.00    +0.000 C 
BRANCH  19  21
ATOM     20  C   UNL     1       3.362   1.664  18.414  0.00  0.00    +0.000 C 
ATOM     21  N   UNL     1       2.548   2.873  18.576  0.00  0.00    +0.000 NA
ATOM     22  C   UNL     1       1.244   2.512  19.136  0.00  0.00    +0.000 C 
ENDBRANCH  19  21
ENDBRANCH   1  19
TORSDOF 5
ENDMDL
MODEL 6
REMARK VINA RESULT:      -6.7      1.697      3.134
REMARK  Name = 
REMARK  7 active torsions:
REMARK  status: ('A' for Active; 'I' for Inactive)
REMARK    1  A    between atoms: C_1  and  N_2
REMARK    2  A    between atoms: N_2  and  C_3
REMARK    3  A    between atoms: N_2  and  C_4
REMARK    4  A    between atoms: C_4  and  C_5
REMARK    5  A    between atoms: C_7  and  N_8
REMARK    6  A    between atoms: N_9  and  C_10
REMARK    7  A    between atoms: C_20  and  O_21
REMARK                            x       y       z     vdW  Elec       q    Type
REMARK                         _______ _______ _______ _____ _____    ______ ____
ROOT
ATOM      1  C   UNL     1       3.786   4.639  19.145  0.00  0.00    +0.000 A 
ATOM      2  C   UNL     1       2.904   5.736  19.124  0.00  0.00    +0.000 A 
ATOM      3  C   UNL     1       3.129   6.845  18.299  0.00  0.00    +0.000 A 
ATOM      4  C   UNL     1       4.285   6.858  17.506  0.00  0.00    +0.000 A 
ATOM      5  C   UNL     1       5.181   5.786  17.521  0.00  0.00    +0.000 A 
ATOM      6  C   UNL     1       4.927   4.686  18.338  0.00  0.00    +0.000 A 
ENDROOT
BRANCH   3   7
ATOM      7  N   UNL     1       2.203   7.909  18.343  0.00  0.00    +0.000 NA
ATOM      8  N   UNL     1       1.906   8.234  19.511  0.00  0.00    +0.000 NA
BRANCH   8   9
ATOM      9  C   UNL     1       0.973   9.290  19.569  0.00  0.00    +0.000 A 
ATOM     10  C   UNL     1       0.425   9.916  18.438  0.00  0.00    +0.000 A 
ATOM     11  C   UNL     1      -0.521  10.939  18.570  0.00  0.00    +0.000 A 
ATOM     12  C   UNL     1      -0.942  11.343  19.837  0.00  0.00    +0.000 A 
ATOM     13 CL   UNL     1      -2.118  12.605  19.931  0.00  0.00    +0.000 Cl
ATOM     14  C   UNL     1      -0.413  10.722  20.972  0.00  0.00    +0.000 A 
ATOM     15 CL   UNL     1      -0.892  11.160  22.575  0.00  0.00    +0.000 Cl
ATOM     16  C   UNL     1       0.536   9.703  20.834  0.00  0.00    +0.000 A 
ENDBRANCH   8   9
ENDBRANCH   3   7
BRANCH   6  17
ATOM     17  O   UNL     1       5.795   3.632  18.345  0.00  0.00    +0.000 OA
ATOM     18  H   UNL     1       5.729   3.162  17.497  0.00  0.00    +0.000 HD
ENDBRANCH   6  17
BRANCH   1  19
ATOM     19  C   UNL     1       3.465   3.435  20.007  0.00  0.00    +0.000 C 
BRANCH  19  21
ATOM     20  C   UNL     1       1.595   2.137  19.159  0.00  0.00    +0.000 C 
ATOM     21  N   UNL     1       2.015   3.167  20.115  0.00  0.00    +0.000 NA
ATOM     22  C   UNL     1       1.692   2.732  21.476  0.00  0.00    +0.000 C 
ENDBRANCH  19  21
ENDBRANCH   1  19
TORSDOF 5
ENDMDL
MODEL 7
REMARK VINA RESULT:      -6.7      0.852      1.101
REMARK  Name = 
REMARK  7 active torsions:
REMARK  status: ('A' for Active; 'I' for Inactive)
REMARK    1  A    between atoms: C_1  and  N_2
REMARK    2  A    between atoms: N_2  and  C_3
REMARK    3  A    between atoms: N_2  and  C_4
REMARK    4  A    between atoms: C_4  and  C_5
REMARK    5  A    between atoms: C_7  and  N_8
REMARK    6  A    between atoms: N_9  and  C_10
REMARK    7  A    between atoms: C_20  and  O_21
REMARK                            x       y       z     vdW  Elec       q    Type
REMARK                         _______ _______ _______ _____ _____    ______ ____
ROOT
ATOM      1  C   UNL     1       4.278   4.310  18.187  0.00  0.00    +0.000 A 
ATOM      2  C   UNL     1       3.676   5.578  18.304  0.00  0.00    +0.000 A 
ATOM      3  C   UNL     1       2.861   5.908  19.393  0.00  0.00    +0.000 A 
ATOM      4  C   UNL     1       2.624   4.926  20.366  0.00  0.00    +0.000 A 
ATOM      5  C   UNL     1       3.201   3.657  20.263  0.00  0.00    +0.000 A 
ATOM      6  C   UNL     1       4.022   3.358  19.178  0.00  0.00    +0.000 A 
ENDROOT
BRANCH   3   7
ATOM      7  N   UNL     1       2.286   7.196  19.432  0.00  0.00    +0.000 NA
ATOM      8  N   UNL     1       1.683   7.416  20.503  0.00  0.00    +0.000 NA
BRANCH   8   9
ATOM      9  C   UNL     1       1.094   8.697  20.549  0.00  0.00    +0.000 A 
ATOM     10  C   UNL     1       1.147   9.624  19.497  0.00  0.00    +0.000 A 
ATOM     11  C   UNL     1       0.513  10.868  19.601  0.00  0.00    +0.000 A 
ATOM     12  C   UNL     1      -0.195  11.197  20.757  0.00  0.00    +0.000 A 
ATOM     13 CL   UNL     1      -0.962  12.743  20.819  0.00  0.00    +0.000 Cl
ATOM     14  C   UNL     1      -0.266  10.280  21.810  0.00  0.00    +0.000 A 
ATOM     15 CL   UNL     1      -1.132  10.610  23.269  0.00  0.00    +0.000 Cl
ATOM     16  C   UNL     1       0.375   9.041  21.701  0.00  0.00    +0.000 A 
ENDBRANCH   8   9
ENDBRANCH   3   7
BRANCH   6  17
ATOM     17  O   UNL     1       4.596   2.122  19.083  0.00  0.00    +0.000 OA
ATOM     18  H   UNL     1       4.183   1.531  19.733  0.00  0.00    +0.000 HD
ENDBRANCH   6  17
BRANCH   1  19
ATOM     19  C   UNL     1       5.202   4.024  17.021  0.00  0.00    +0.000 C 
BRANCH  19  21
ATOM     20  C   UNL     1       7.445   4.657  17.707  0.00  0.00    +0.000 C 
ATOM     21  N   UNL     1       6.288   5.018  16.882  0.00  0.00    +0.000 NA
ATOM     22  C   UNL     1       6.697   5.109  15.478  0.00  0.00    +0.000 C 
ENDBRANCH  19  21
ENDBRANCH   1  19
TORSDOF 5
ENDMDL
MODEL 8
REMARK VINA RESULT:      -6.7      1.873      3.447
REMARK  Name = 
REMARK  7 active torsions:
REMARK  status: ('A' for Active; 'I' for Inactive)
REMARK    1  A    between atoms: C_1  and  N_2
REMARK    2  A    between atoms: N_2  and  C_3
REMARK    3  A    between atoms: N_2  and  C_4
REMARK    4  A    between atoms: C_4  and  C_5
REMARK    5  A    between atoms: C_7  and  N_8
REMARK    6  A    between atoms: N_9  and  C_10
REMARK    7  A    between atoms: C_20  and  O_21
REMARK                            x       y       z     vdW  Elec       q    Type
REMARK                         _______ _______ _______ _____ _____    ______ ____
ROOT
ATOM      1  C   UNL     1       3.934   4.369  17.526  0.00  0.00    +0.000 A 
ATOM      2  C   UNL     1       3.174   5.416  18.080  0.00  0.00    +0.000 A 
ATOM      3  C   UNL     1       3.431   6.757  17.769  0.00  0.00    +0.000 A 
ATOM      4  C   UNL     1       4.499   7.045  16.908  0.00  0.00    +0.000 A 
ATOM      5  C   UNL     1       5.275   6.022  16.357  0.00  0.00    +0.000 A 
ATOM      6  C   UNL     1       4.989   4.694  16.668  0.00  0.00    +0.000 A 
ENDROOT
BRANCH   3   7
ATOM      7  N   UNL     1       2.631   7.748  18.374  0.00  0.00    +0.000 NA
ATOM      8  N   UNL     1       2.302   7.449  19.541  0.00  0.00    +0.000 NA
BRANCH   8   9
ATOM      9  C   UNL     1       1.492   8.428  20.153  0.00  0.00    +0.000 A 
ATOM     10  C   UNL     1       1.137   8.417  21.510  0.00  0.00    +0.000 A 
ATOM     11  C   UNL     1       0.354   9.440  22.058  0.00  0.00    +0.000 A 
ATOM     12  C   UNL     1      -0.077  10.497  21.256  0.00  0.00    +0.000 A 
ATOM     13 CL   UNL     1      -1.033  11.731  21.994  0.00  0.00    +0.000 Cl
ATOM     14  C   UNL     1       0.277  10.527  19.904  0.00  0.00    +0.000 A 
ATOM     15 CL   UNL     1      -0.209  11.807  18.848  0.00  0.00    +0.000 Cl
ATOM     16  C   UNL     1       1.056   9.499  19.362  0.00  0.00    +0.000 A 
ENDBRANCH   8   9
ENDBRANCH   3   7
BRANCH   6  17
ATOM     17  O   UNL     1       5.739   3.693  16.120  0.00  0.00    +0.000 OA
ATOM     18  H   UNL     1       5.827   2.973  16.767  0.00  0.00    +0.000 HD
ENDBRANCH   6  17
BRANCH   1  19
ATOM     19  C   UNL     1       3.576   2.932  17.844  0.00  0.00    +0.000 C 
BRANCH  19  21
ATOM     20  C   UNL     1       1.970   1.898  19.346  0.00  0.00    +0.000 C 
ATOM     21  N   UNL     1       3.174   2.730  19.253  0.00  0.00    +0.000 NA
ATOM     22  C   UNL     1       4.266   2.096  19.993  0.00  0.00    +0.000 C 
ENDBRANCH  19  21
ENDBRANCH   1  19
TORSDOF 5
ENDMDL
MODEL 9
REMARK VINA RESULT:      -6.7      1.811      2.289
REMARK  Name = 
REMARK  7 active torsions:
REMARK  status: ('A' for Active; 'I' for Inactive)
REMARK    1  A    between atoms: C_1  and  N_2
REMARK    2  A    between atoms: N_2  and  C_3
REMARK    3  A    between atoms: N_2  and  C_4
REMARK    4  A    between atoms: C_4  and  C_5
REMARK    5  A    between atoms: C_7  and  N_8
REMARK    6  A    between atoms: N_9  and  C_10
REMARK    7  A    between atoms: C_20  and  O_21
REMARK                            x       y       z     vdW  Elec       q    Type
REMARK                         _______ _______ _______ _____ _____    ______ ____
ROOT
ATOM      1  C   UNL     1       5.265   5.497  16.821  0.00  0.00    +0.000 A 
ATOM      2  C   UNL     1       4.430   6.529  17.290  0.00  0.00    +0.000 A 
ATOM      3  C   UNL     1       3.170   6.263  17.840  0.00  0.00    +0.000 A 
ATOM      4  C   UNL     1       2.734   4.931  17.886  0.00  0.00    +0.000 A 
ATOM      5  C   UNL     1       3.541   3.893  17.415  0.00  0.00    +0.000 A 
ATOM      6  C   UNL     1       4.798   4.181  16.887  0.00  0.00    +0.000 A 
ENDROOT
BRANCH   3   7
ATOM      7  N   UNL     1       2.389   7.353  18.278  0.00  0.00    +0.000 NA
ATOM      8  N   UNL     1       2.316   7.417  19.522  0.00  0.00    +0.000 NA
BRANCH   8   9
ATOM      9  C   UNL     1       1.527   8.497  19.973  0.00  0.00    +0.000 A 
ATOM     10  C   UNL     1       1.063   9.529  19.143  0.00  0.00    +0.000 A 
ATOM     11  C   UNL     1       0.258  10.555  19.653  0.00  0.00    +0.000 A 
ATOM     12  C   UNL     1      -0.104  10.556  21.000  0.00  0.00    +0.000 A 
ATOM     13 CL   UNL     1      -1.106  11.845  21.564  0.00  0.00    +0.000 Cl
ATOM     14  C   UNL     1       0.343   9.529  21.837  0.00  0.00    +0.000 A 
ATOM     15 CL   UNL     1      -0.071   9.455  23.514  0.00  0.00    +0.000 Cl
ATOM     16  C   UNL     1       1.151   8.509  21.322  0.00  0.00    +0.000 A 
ENDBRANCH   8   9
ENDBRANCH   3   7
BRANCH   6  17
ATOM     17  O   UNL     1       5.593   3.165  16.437  0.00  0.00    +0.000 OA
ATOM     18  H   UNL     1       6.460   3.225  16.871  0.00  0.00    +0.000 HD
ENDBRANCH   6  17
BRANCH   1  19
ATOM     19  C   UNL     1       6.645   5.831  16.294  0.00  0.00    +0.000 C 
BRANCH  19  21
ATOM     20  C   UNL     1       7.644   7.616  17.605  0.00  0.00    +0.000 C 
ATOM     21  N   UNL     1       7.611   6.170  17.362  0.00  0.00    +0.000 NA
ATOM     22  C   UNL     1       7.245   5.474  18.597  0.00  0.00    +0.000 C 
ENDBRANCH  19  21
ENDBRANCH   1  19
TORSDOF 5
ENDMDL
