MODEL 1
REMARK VINA RESULT:      -8.0      0.000      0.000
REMARK  Name = 
REMARK  8 active torsions:
REMARK  status: ('A' for Active; 'I' for Inactive)
REMARK    1  A    between atoms: C_1  and  O_2
REMARK    2  A    between atoms: O_2  and  C_3
REMARK    3  A    between atoms: C_4  and  C_5
REMARK    4  A    between atoms: C_7  and  C_8
REMARK    5  A    between atoms: C_8  and  C_9
REMARK    6  A    between atoms: C_9  and  N_10
REMARK    7  A    between atoms: N_10  and  C_11
REMARK    8  A    between atoms: C_12  and  C_14
REMARK                            x       y       z     vdW  Elec       q    Type
REMARK                         _______ _______ _______ _____ _____    ______ ____
ROOT
ATOM      1  C   UNL     1       7.012   5.608  17.050  0.00  0.00    +0.000 A 
ATOM      2  C   UNL     1       6.108   5.059  17.990  0.00  0.00    +0.000 A 
ATOM      3  C   UNL     1       5.096   4.127  17.593  0.00  0.00    +0.000 A 
ATOM      4  C   UNL     1       5.022   3.748  16.242  0.00  0.00    +0.000 A 
ATOM      5  C   UNL     1       5.936   4.276  15.355  0.00  0.00    +0.000 A 
ATOM      6  C   UNL     1       6.904   5.176  15.738  0.00  0.00    +0.000 A 
ATOM      7  O   UNL     1       7.704   5.515  14.688  0.00  0.00    +0.000 OA
ATOM      8  C   UNL     1       7.162   4.701  13.631  0.00  0.00    +0.000 C 
ATOM      9  O   UNL     1       6.002   3.956  14.034  0.00  0.00    +0.000 OA
ENDROOT
BRANCH   1  11
ATOM     10  C   UNL     1       7.655   7.869  17.415  0.00  0.00    +0.000 C 
ATOM     11  O   UNL     1       7.960   6.479  17.515  0.00  0.00    +0.000 OA
ENDBRANCH   1  11
BRANCH   2  12
ATOM     12  C   UNL     1       6.249   5.515  19.406  0.00  0.00    +0.000 C 
ATOM     13  O   UNL     1       7.220   5.270  20.113  0.00  0.00    +0.000 OA
ENDBRANCH   2  12
BRANCH   3  14
ATOM     14  C   UNL     1       4.148   3.543  18.619  0.00  0.00    +0.000 C 
BRANCH  14  15
ATOM     15  C   UNL     1       2.644   3.822  18.503  0.00  0.00    +0.000 C 
BRANCH  15  16
ATOM     16  N   UNL     1       2.116   4.940  19.306  0.00  0.00    +0.000 N 
ATOM     17  C   UNL     1       1.446   4.668  20.575  0.00  0.00    +0.000 C 
ATOM     18  C   UNL     1       2.339   6.228  18.784  0.00  0.00    +0.000 C 
ATOM     19  O   UNL     1       2.882   6.400  17.691  0.00  0.00    +0.000 OA
BRANCH  18  20
ATOM     20  C   UNL     1       1.879   7.447  19.513  0.00  0.00    +0.000 A 
ATOM     21  C   UNL     1       1.701   7.487  20.902  0.00  0.00    +0.000 A 
ATOM     22  C   UNL     1       1.179   8.629  21.516  0.00  0.00    +0.000 A 
ATOM     23  C   UNL     1       0.914   9.757  20.750  0.00  0.00    +0.000 A 
ATOM     24  F   UNL     1       0.415  10.850  21.341  0.00  0.00    +0.000 F 
ATOM     25  C   UNL     1       1.172   9.770  19.385  0.00  0.00    +0.000 A 
ATOM     26  C   UNL     1       1.652   8.613  18.763  0.00  0.00    +0.000 A 
ENDBRANCH  18  20
ENDBRANCH  15  16
ENDBRANCH  14  15
ENDBRANCH   3  14
TORSDOF 6
ENDMDL
MODEL 2
REMARK VINA RESULT:      -7.5      3.109      4.730
REMARK  Name = 
REMARK  8 active torsions:
REMARK  status: ('A' for Active; 'I' for Inactive)
REMARK    1  A    between atoms: C_1  and  O_2
REMARK    2  A    between atoms: O_2  and  C_3
REMARK    3  A    between atoms: C_4  and  C_5
REMARK    4  A    between atoms: C_7  and  C_8
REMARK    5  A    between atoms: C_8  and  C_9
REMARK    6  A    between atoms: C_9  and  N_10
REMARK    7  A    between atoms: N_10  and  C_11
REMARK    8  A    between atoms: C_12  and  C_14
REMARK                            x       y       z     vdW  Elec       q    Type
REMARK                         _______ _______ _______ _____ _____    ______ ____
ROOT
ATOM      1  C   UNL     1       3.877   3.945  19.077  0.00  0.00    +0.000 A 
ATOM      2  C   UNL     1       3.017   4.712  19.899  0.00  0.00    +0.000 A 
ATOM      3  C   UNL     1       2.710   6.074  19.587  0.00  0.00    +0.000 A 
ATOM      4  C   UNL     1       3.268   6.643  18.430  0.00  0.00    +0.000 A 
ATOM      5  C   UNL     1       4.078   5.863  17.633  0.00  0.00    +0.000 A 
ATOM      6  C   UNL     1       4.376   4.554  17.937  0.00  0.00    +0.000 A 
ATOM      7  O   UNL     1       5.160   3.991  16.975  0.00  0.00    +0.000 OA
ATOM      8  C   UNL     1       5.278   5.067  16.026  0.00  0.00    +0.000 C 
ATOM      9  O   UNL     1       4.642   6.277  16.466  0.00  0.00    +0.000 OA
ENDROOT
BRANCH   1  11
ATOM     10  C   UNL     1       3.452   1.641  18.662  0.00  0.00    +0.000 C 
ATOM     11  O   UNL     1       4.105   2.644  19.438  0.00  0.00    +0.000 OA
ENDBRANCH   1  11
BRANCH   2  12
ATOM     12  C   UNL     1       2.466   4.036  21.113  0.00  0.00    +0.000 C 
ATOM     13  O   UNL     1       1.408   3.416  21.133  0.00  0.00    +0.000 OA
ENDBRANCH   2  12
BRANCH   3  14
ATOM     14  C   UNL     1       1.776   6.871  20.475  0.00  0.00    +0.000 C 
BRANCH  14  15
ATOM     15  C   UNL     1       1.745   8.401  20.357  0.00  0.00    +0.000 C 
BRANCH  15  16
ATOM     16  N   UNL     1       0.414   9.031  20.312  0.00  0.00    +0.000 N 
ATOM     17  C   UNL     1      -0.462   8.963  21.480  0.00  0.00    +0.000 C 
ATOM     18  C   UNL     1       0.094   9.701  19.116  0.00  0.00    +0.000 C 
ATOM     19  O   UNL     1       0.856   9.700  18.148  0.00  0.00    +0.000 OA
BRANCH  18  20
ATOM     20  C   UNL     1      -1.213  10.404  18.951  0.00  0.00    +0.000 A 
ATOM     21  C   UNL     1      -2.226   9.948  18.098  0.00  0.00    +0.000 A 
ATOM     22  C   UNL     1      -3.390  10.700  17.917  0.00  0.00    +0.000 A 
ATOM     23  C   UNL     1      -3.575  11.864  18.651  0.00  0.00    +0.000 A 
ATOM     24  F   UNL     1      -4.691  12.581  18.476  0.00  0.00    +0.000 F 
ATOM     25  C   UNL     1      -2.624  12.285  19.573  0.00  0.00    +0.000 A 
ATOM     26  C   UNL     1      -1.439  11.557  19.721  0.00  0.00    +0.000 A 
ENDBRANCH  18  20
ENDBRANCH  15  16
ENDBRANCH  14  15
ENDBRANCH   3  14
TORSDOF 6
ENDMDL
MODEL 3
REMARK VINA RESULT:      -7.5      3.586      6.072
REMARK  Name = 
REMARK  8 active torsions:
REMARK  status: ('A' for Active; 'I' for Inactive)
REMARK    1  A    between atoms: C_1  and  O_2
REMARK    2  A    between atoms: O_2  and  C_3
REMARK    3  A    between atoms: C_4  and  C_5
REMARK    4  A    between atoms: C_7  and  C_8
REMARK    5  A    between atoms: C_8  and  C_9
REMARK    6  A    between atoms: C_9  and  N_10
REMARK    7  A    between atoms: N_10  and  C_11
REMARK    8  A    between atoms: C_12  and  C_14
REMARK                            x       y       z     vdW  Elec       q    Type
REMARK                         _______ _______ _______ _____ _____    ______ ____
ROOT
ATOM      1  C   UNL     1       2.930   5.350  18.374  0.00  0.00    +0.000 A 
ATOM      2  C   UNL     1       2.632   6.643  18.864  0.00  0.00    +0.000 A 
ATOM      3  C   UNL     1       1.886   6.829  20.072  0.00  0.00    +0.000 A 
ATOM      4  C   UNL     1       1.461   5.693  20.782  0.00  0.00    +0.000 A 
ATOM      5  C   UNL     1       1.791   4.447  20.296  0.00  0.00    +0.000 A 
ATOM      6  C   UNL     1       2.504   4.271  19.132  0.00  0.00    +0.000 A 
ATOM      7  O   UNL     1       2.735   2.949  18.891  0.00  0.00    +0.000 OA
ATOM      8  C   UNL     1       2.134   2.331  20.044  0.00  0.00    +0.000 C 
ATOM      9  O   UNL     1       1.482   3.272  20.911  0.00  0.00    +0.000 OA
ENDROOT
BRANCH   1  11
ATOM     10  C   UNL     1       5.033   4.893  17.361  0.00  0.00    +0.000 C 
ATOM     11  O   UNL     1       3.662   5.261  17.221  0.00  0.00    +0.000 OA
ENDBRANCH   1  11
BRANCH   2  12
ATOM     12  C   UNL     1       3.117   7.800  18.050  0.00  0.00    +0.000 C 
ATOM     13  O   UNL     1       2.419   8.422  17.258  0.00  0.00    +0.000 OA
ENDBRANCH   2  12
BRANCH   3  14
ATOM     14  C   UNL     1       1.592   8.224  20.583  0.00  0.00    +0.000 C 
BRANCH  14  15
ATOM     15  C   UNL     1       0.353   8.462  21.456  0.00  0.00    +0.000 C 
BRANCH  15  16
ATOM     16  N   UNL     1      -0.266   9.797  21.372  0.00  0.00    +0.000 N 
ATOM     17  C   UNL     1      -0.705  10.313  20.077  0.00  0.00    +0.000 C 
ATOM     18  C   UNL     1      -0.422  10.478  22.595  0.00  0.00    +0.000 C 
ATOM     19  O   UNL     1      -0.004  10.011  23.655  0.00  0.00    +0.000 OA
BRANCH  18  20
ATOM     20  C   UNL     1      -1.058  11.827  22.651  0.00  0.00    +0.000 A 
ATOM     21  C   UNL     1      -0.402  13.001  22.259  0.00  0.00    +0.000 A 
ATOM     22  C   UNL     1      -1.019  14.244  22.423  0.00  0.00    +0.000 A 
ATOM     23  C   UNL     1      -2.322  14.305  22.899  0.00  0.00    +0.000 A 
ATOM     24  F   UNL     1      -2.911  15.497  23.052  0.00  0.00    +0.000 F 
ATOM     25  C   UNL     1      -3.025  13.146  23.204  0.00  0.00    +0.000 A 
ATOM     26  C   UNL     1      -2.393  11.905  23.083  0.00  0.00    +0.000 A 
ENDBRANCH  18  20
ENDBRANCH  15  16
ENDBRANCH  14  15
ENDBRANCH   3  14
TORSDOF 6
ENDMDL
MODEL 4
REMARK VINA RESULT:      -7.5      4.839      9.010
REMARK  Name = 
REMARK  8 active torsions:
REMARK  status: ('A' for Active; 'I' for Inactive)
REMARK    1  A    between atoms: C_1  and  O_2
REMARK    2  A    between atoms: O_2  and  C_3
REMARK    3  A    between atoms: C_4  and  C_5
REMARK    4  A    between atoms: C_7  and  C_8
REMARK    5  A    between atoms: C_8  and  C_9
REMARK    6  A    between atoms: C_9  and  N_10
REMARK    7  A    between atoms: N_10  and  C_11
REMARK    8  A    between atoms: C_12  and  C_14
REMARK                            x       y       z     vdW  Elec       q    Type
REMARK                         _______ _______ _______ _____ _____    ______ ____
ROOT
ATOM      1  C   UNL     1      -3.295  11.665  18.449  0.00  0.00    +0.000 A 
ATOM      2  C   UNL     1      -2.135  11.459  19.232  0.00  0.00    +0.000 A 
ATOM      3  C   UNL     1      -1.068  10.621  18.776  0.00  0.00    +0.000 A 
ATOM      4  C   UNL     1      -1.183  10.010  17.516  0.00  0.00    +0.000 A 
ATOM      5  C   UNL     1      -2.312  10.252  16.763  0.00  0.00    +0.000 A 
ATOM      6  C   UNL     1      -3.339  11.054  17.206  0.00  0.00    +0.000 A 
ATOM      7  O   UNL     1      -4.318  11.166  16.264  0.00  0.00    +0.000 OA
ATOM      8  C   UNL     1      -3.772  10.392  15.180  0.00  0.00    +0.000 C 
ATOM      9  O   UNL     1      -2.525   9.761  15.512  0.00  0.00    +0.000 OA
ENDROOT
BRANCH   1  11
ATOM     10  C   UNL     1      -5.530  11.905  19.226  0.00  0.00    +0.000 C 
ATOM     11  O   UNL     1      -4.261  12.495  18.952  0.00  0.00    +0.000 OA
ENDBRANCH   1  11
BRANCH   2  12
ATOM     12  C   UNL     1      -2.089  12.142  20.561  0.00  0.00    +0.000 C 
ATOM     13  O   UNL     1      -1.557  13.229  20.757  0.00  0.00    +0.000 OA
ENDBRANCH   2  12
BRANCH   3  14
ATOM     14  C   UNL     1       0.170  10.427  19.626  0.00  0.00    +0.000 C 
BRANCH  14  15
ATOM     15  C   UNL     1       1.453   9.887  18.980  0.00  0.00    +0.000 C 
BRANCH  15  16
ATOM     16  N   UNL     1       1.791   8.481  19.262  0.00  0.00    +0.000 N 
ATOM     17  C   UNL     1       1.470   7.905  20.566  0.00  0.00    +0.000 C 
ATOM     18  C   UNL     1       2.388   7.770  18.203  0.00  0.00    +0.000 C 
ATOM     19  O   UNL     1       2.668   8.314  17.134  0.00  0.00    +0.000 OA
BRANCH  18  20
ATOM     20  C   UNL     1       2.755   6.331  18.350  0.00  0.00    +0.000 A 
ATOM     21  C   UNL     1       1.929   5.282  17.926  0.00  0.00    +0.000 A 
ATOM     22  C   UNL     1       2.287   3.954  18.176  0.00  0.00    +0.000 A 
ATOM     23  C   UNL     1       3.509   3.675  18.774  0.00  0.00    +0.000 A 
ATOM     24  F   UNL     1       3.850   2.403  19.010  0.00  0.00    +0.000 F 
ATOM     25  C   UNL     1       4.386   4.697  19.116  0.00  0.00    +0.000 A 
ATOM     26  C   UNL     1       4.009   6.027  18.908  0.00  0.00    +0.000 A 
ENDBRANCH  18  20
ENDBRANCH  15  16
ENDBRANCH  14  15
ENDBRANCH   3  14
TORSDOF 6
ENDMDL
MODEL 5
REMARK VINA RESULT:      -7.5      4.381      8.765
REMARK  Name = 
REMARK  8 active torsions:
REMARK  status: ('A' for Active; 'I' for Inactive)
REMARK    1  A    between atoms: C_1  and  O_2
REMARK    2  A    between atoms: O_2  and  C_3
REMARK    3  A    between atoms: C_4  and  C_5
REMARK    4  A    between atoms: C_7  and  C_8
REMARK    5  A    between atoms: C_8  and  C_9
REMARK    6  A    between atoms: C_9  and  N_10
REMARK    7  A    between atoms: N_10  and  C_11
REMARK    8  A    between atoms: C_12  and  C_14
REMARK                            x       y       z     vdW  Elec       q    Type
REMARK                         _______ _______ _______ _____ _____    ______ ____
ROOT
ATOM      1  C   UNL     1      -0.920  12.088  21.536  0.00  0.00    +0.000 A 
ATOM      2  C   UNL     1      -0.397  10.779  21.659  0.00  0.00    +0.000 A 
ATOM      3  C   UNL     1       0.375  10.184  20.611  0.00  0.00    +0.000 A 
ATOM      4  C   UNL     1       0.624  10.934  19.449  0.00  0.00    +0.000 A 
ATOM      5  C   UNL     1       0.127  12.217  19.369  0.00  0.00    +0.000 A 
ATOM      6  C   UNL     1      -0.620  12.785  20.376  0.00  0.00    +0.000 A 
ATOM      7  O   UNL     1      -0.958  14.070  20.074  0.00  0.00    +0.000 OA
ATOM      8  C   UNL     1      -0.306  14.254  18.803  0.00  0.00    +0.000 C 
ATOM      9  O   UNL     1       0.335  13.062  18.323  0.00  0.00    +0.000 OA
ENDROOT
BRANCH   1  11
ATOM     10  C   UNL     1      -1.054  13.685  23.293  0.00  0.00    +0.000 C 
ATOM     11  O   UNL     1      -1.634  12.588  22.591  0.00  0.00    +0.000 OA
ENDBRANCH   1  11
BRANCH   2  12
ATOM     12  C   UNL     1      -0.708  10.046  22.924  0.00  0.00    +0.000 C 
ATOM     13  O   UNL     1       0.095   9.877  23.835  0.00  0.00    +0.000 OA
ENDBRANCH   2  12
BRANCH   3  14
ATOM     14  C   UNL     1       0.936   8.787  20.772  0.00  0.00    +0.000 C 
BRANCH  14  15
ATOM     15  C   UNL     1       1.887   8.227  19.705  0.00  0.00    +0.000 C 
BRANCH  15  16
ATOM     16  N   UNL     1       2.094   6.768  19.706  0.00  0.00    +0.000 N 
ATOM     17  C   UNL     1       1.551   5.959  20.796  0.00  0.00    +0.000 C 
ATOM     18  C   UNL     1       2.795   6.248  18.601  0.00  0.00    +0.000 C 
ATOM     19  O   UNL     1       3.260   6.979  17.726  0.00  0.00    +0.000 OA
BRANCH  18  20
ATOM     20  C   UNL     1       3.048   4.783  18.469  0.00  0.00    +0.000 A 
ATOM     21  C   UNL     1       2.288   3.945  17.642  0.00  0.00    +0.000 A 
ATOM     22  C   UNL     1       2.514   2.566  17.632  0.00  0.00    +0.000 A 
ATOM     23  C   UNL     1       3.554   2.037  18.385  0.00  0.00    +0.000 A 
ATOM     24  F   UNL     1       3.770   0.716  18.372  0.00  0.00    +0.000 F 
ATOM     25  C   UNL     1       4.380   2.862  19.139  0.00  0.00    +0.000 A 
ATOM     26  C   UNL     1       4.126   4.236  19.185  0.00  0.00    +0.000 A 
ENDBRANCH  18  20
ENDBRANCH  15  16
ENDBRANCH  14  15
ENDBRANCH   3  14
TORSDOF 6
ENDMDL
MODEL 6
REMARK VINA RESULT:      -7.5      2.902      4.651
REMARK  Name = 
REMARK  8 active torsions:
REMARK  status: ('A' for Active; 'I' for Inactive)
REMARK    1  A    between atoms: C_1  and  O_2
REMARK    2  A    between atoms: O_2  and  C_3
REMARK    3  A    between atoms: C_4  and  C_5
REMARK    4  A    between atoms: C_7  and  C_8
REMARK    5  A    between atoms: C_8  and  C_9
REMARK    6  A    between atoms: C_9  and  N_10
REMARK    7  A    between atoms: N_10  and  C_11
REMARK    8  A    between atoms: C_12  and  C_14
REMARK                            x       y       z     vdW  Elec       q    Type
REMARK                         _______ _______ _______ _____ _____    ______ ____
ROOT
ATOM      1  C   UNL     1       3.183   3.677  18.151  0.00  0.00    +0.000 A 
ATOM      2  C   UNL     1       2.462   4.397  19.133  0.00  0.00    +0.000 A 
ATOM      3  C   UNL     1       2.601   5.815  19.269  0.00  0.00    +0.000 A 
ATOM      4  C   UNL     1       3.464   6.494  18.391  0.00  0.00    +0.000 A 
ATOM      5  C   UNL     1       4.130   5.771  17.426  0.00  0.00    +0.000 A 
ATOM      6  C   UNL     1       3.999   4.406  17.301  0.00  0.00    +0.000 A 
ATOM      7  O   UNL     1       4.727   3.935  16.249  0.00  0.00    +0.000 OA
ATOM      8  C   UNL     1       5.284   5.149  15.711  0.00  0.00    +0.000 C 
ATOM      9  O   UNL     1       4.956   6.311  16.489  0.00  0.00    +0.000 OA
ENDROOT
BRANCH   1  11
ATOM     10  C   UNL     1       3.976   1.495  18.670  0.00  0.00    +0.000 C 
ATOM     11  O   UNL     1       2.979   2.325  18.078  0.00  0.00    +0.000 OA
ENDBRANCH   1  11
BRANCH   2  12
ATOM     12  C   UNL     1       1.567   3.602  20.029  0.00  0.00    +0.000 C 
ATOM     13  O   UNL     1       0.446   3.219  19.715  0.00  0.00    +0.000 OA
ENDBRANCH   2  12
BRANCH   3  14
ATOM     14  C   UNL     1       1.808   6.565  20.318  0.00  0.00    +0.000 C 
BRANCH  14  15
ATOM     15  C   UNL     1       1.906   8.095  20.388  0.00  0.00    +0.000 C 
BRANCH  15  16
ATOM     16  N   UNL     1       0.633   8.838  20.387  0.00  0.00    +0.000 N 
ATOM     17  C   UNL     1      -0.264   8.741  21.536  0.00  0.00    +0.000 C 
ATOM     18  C   UNL     1       0.390   9.636  19.252  0.00  0.00    +0.000 C 
ATOM     19  O   UNL     1       1.165   9.655  18.295  0.00  0.00    +0.000 OA
BRANCH  18  20
ATOM     20  C   UNL     1      -0.850  10.458  19.139  0.00  0.00    +0.000 A 
ATOM     21  C   UNL     1      -1.092  11.593  19.925  0.00  0.00    +0.000 A 
ATOM     22  C   UNL     1      -2.312  12.267  19.837  0.00  0.00    +0.000 A 
ATOM     23  C   UNL     1      -3.257  11.856  18.905  0.00  0.00    +0.000 A 
ATOM     24  F   UNL     1      -4.424  12.505  18.822  0.00  0.00    +0.000 F 
ATOM     25  C   UNL     1      -2.999  10.791  18.050  0.00  0.00    +0.000 A 
ATOM     26  C   UNL     1      -1.796  10.088  18.169  0.00  0.00    +0.000 A 
ENDBRANCH  18  20
ENDBRANCH  15  16
ENDBRANCH  14  15
ENDBRANCH   3  14
TORSDOF 6
ENDMDL
MODEL 7
REMARK VINA RESULT:      -7.5      4.808      9.116
REMARK  Name = 
REMARK  8 active torsions:
REMARK  status: ('A' for Active; 'I' for Inactive)
REMARK    1  A    between atoms: C_1  and  O_2
REMARK    2  A    between atoms: O_2  and  C_3
REMARK    3  A    between atoms: C_4  and  C_5
REMARK    4  A    between atoms: C_7  and  C_8
REMARK    5  A    between atoms: C_8  and  C_9
REMARK    6  A    between atoms: C_9  and  N_10
REMARK    7  A    between atoms: N_10  and  C_11
REMARK    8  A    between atoms: C_12  and  C_14
REMARK                            x       y       z     vdW  Elec       q    Type
REMARK                         _______ _______ _______ _____ _____    ______ ____
ROOT
ATOM      1  C   UNL     1      -2.964  12.039  19.344  0.00  0.00    +0.000 A 
ATOM      2  C   UNL     1      -1.748  11.604  19.922  0.00  0.00    +0.000 A 
ATOM      3  C   UNL     1      -0.928  10.622  19.282  0.00  0.00    +0.000 A 
ATOM      4  C   UNL     1      -1.345  10.099  18.046  0.00  0.00    +0.000 A 
ATOM      5  C   UNL     1      -2.519  10.562  17.493  0.00  0.00    +0.000 A 
ATOM      6  C   UNL     1      -3.309  11.504  18.113  0.00  0.00    +0.000 A 
ATOM      7  O   UNL     1      -4.390  11.823  17.347  0.00  0.00    +0.000 OA
ATOM      8  C   UNL     1      -4.165  11.020  16.173  0.00  0.00    +0.000 C 
ATOM      9  O   UNL     1      -3.010  10.173  16.284  0.00  0.00    +0.000 OA
ENDROOT
BRANCH   1  11
ATOM     10  C   UNL     1      -4.888  12.566  20.640  0.00  0.00    +0.000 C 
ATOM     11  O   UNL     1      -3.680  12.994  20.015  0.00  0.00    +0.000 OA
ENDBRANCH   1  11
BRANCH   2  12
ATOM     12  C   UNL     1      -1.375  12.206  21.239  0.00  0.00    +0.000 C 
ATOM     13  O   UNL     1      -1.623  11.693  22.324  0.00  0.00    +0.000 OA
ENDBRANCH   2  12
BRANCH   3  14
ATOM     14  C   UNL     1       0.376  10.183  19.913  0.00  0.00    +0.000 C 
BRANCH  14  15
ATOM     15  C   UNL     1       1.494   9.619  19.025  0.00  0.00    +0.000 C 
BRANCH  15  16
ATOM     16  N   UNL     1       1.885   8.219  19.267  0.00  0.00    +0.000 N 
ATOM     17  C   UNL     1       1.603   7.600  20.560  0.00  0.00    +0.000 C 
ATOM     18  C   UNL     1       2.492   7.557  18.183  0.00  0.00    +0.000 C 
ATOM     19  O   UNL     1       2.737   8.136  17.124  0.00  0.00    +0.000 OA
BRANCH  18  20
ATOM     20  C   UNL     1       2.912   6.128  18.288  0.00  0.00    +0.000 A 
ATOM     21  C   UNL     1       4.158   5.731  18.791  0.00  0.00    +0.000 A 
ATOM     22  C   UNL     1       4.529   4.384  18.779  0.00  0.00    +0.000 A 
ATOM     23  C   UNL     1       3.621   3.427  18.340  0.00  0.00    +0.000 A 
ATOM     24  F   UNL     1       3.979   2.138  18.331  0.00  0.00    +0.000 F 
ATOM     25  C   UNL     1       2.346   3.791  17.927  0.00  0.00    +0.000 A 
ATOM     26  C   UNL     1       1.990   5.143  17.897  0.00  0.00    +0.000 A 
ENDBRANCH  18  20
ENDBRANCH  15  16
ENDBRANCH  14  15
ENDBRANCH   3  14
TORSDOF 6
ENDMDL
MODEL 8
REMARK VINA RESULT:      -7.4      2.496      4.361
REMARK  Name = 
REMARK  8 active torsions:
REMARK  status: ('A' for Active; 'I' for Inactive)
REMARK    1  A    between atoms: C_1  and  O_2
REMARK    2  A    between atoms: O_2  and  C_3
REMARK    3  A    between atoms: C_4  and  C_5
REMARK    4  A    between atoms: C_7  and  C_8
REMARK    5  A    between atoms: C_8  and  C_9
REMARK    6  A    between atoms: C_9  and  N_10
REMARK    7  A    between atoms: N_10  and  C_11
REMARK    8  A    between atoms: C_12  and  C_14
REMARK                            x       y       z     vdW  Elec       q    Type
REMARK                         _______ _______ _______ _____ _____    ______ ____
ROOT
ATOM      1  C   UNL     1       4.198   4.153  18.412  0.00  0.00    +0.000 A 
ATOM      2  C   UNL     1       3.064   4.984  18.252  0.00  0.00    +0.000 A 
ATOM      3  C   UNL     1       3.198   6.382  17.974  0.00  0.00    +0.000 A 
ATOM      4  C   UNL     1       4.488   6.922  17.843  0.00  0.00    +0.000 A 
ATOM      5  C   UNL     1       5.574   6.083  17.974  0.00  0.00    +0.000 A 
ATOM      6  C   UNL     1       5.443   4.740  18.247  0.00  0.00    +0.000 A 
ATOM      7  O   UNL     1       6.658   4.124  18.288  0.00  0.00    +0.000 OA
ATOM      8  C   UNL     1       7.548   5.210  17.968  0.00  0.00    +0.000 C 
ATOM      9  O   UNL     1       6.870   6.469  17.826  0.00  0.00    +0.000 OA
ENDROOT
BRANCH   1  11
ATOM     10  C   UNL     1       4.242   2.371  19.987  0.00  0.00    +0.000 C 
ATOM     11  O   UNL     1       3.981   2.825  18.660  0.00  0.00    +0.000 OA
ENDBRANCH   1  11
BRANCH   2  12
ATOM     12  C   UNL     1       1.726   4.335  18.409  0.00  0.00    +0.000 C 
ATOM     13  O   UNL     1       1.067   3.888  17.477  0.00  0.00    +0.000 OA
ENDBRANCH   2  12
BRANCH   3  14
ATOM     14  C   UNL     1       1.969   7.248  17.794  0.00  0.00    +0.000 C 
BRANCH  14  15
ATOM     15  C   UNL     1       2.004   8.713  18.249  0.00  0.00    +0.000 C 
BRANCH  15  16
ATOM     16  N   UNL     1       1.315   9.027  19.514  0.00  0.00    +0.000 N 
ATOM     17  C   UNL     1       1.500   8.161  20.676  0.00  0.00    +0.000 C 
ATOM     18  C   UNL     1       0.531  10.197  19.509  0.00  0.00    +0.000 C 
ATOM     19  O   UNL     1       0.382  10.874  18.491  0.00  0.00    +0.000 OA
BRANCH  18  20
ATOM     20  C   UNL     1      -0.197  10.642  20.734  0.00  0.00    +0.000 A 
ATOM     21  C   UNL     1      -0.185   9.923  21.937  0.00  0.00    +0.000 A 
ATOM     22  C   UNL     1      -0.962  10.343  23.020  0.00  0.00    +0.000 A 
ATOM     23  C   UNL     1      -1.685  11.525  22.926  0.00  0.00    +0.000 A 
ATOM     24  F   UNL     1      -2.427  11.925  23.966  0.00  0.00    +0.000 F 
ATOM     25  C   UNL     1      -1.637  12.302  21.776  0.00  0.00    +0.000 A 
ATOM     26  C   UNL     1      -0.895  11.860  20.676  0.00  0.00    +0.000 A 
ENDBRANCH  18  20
ENDBRANCH  15  16
ENDBRANCH  14  15
ENDBRANCH   3  14
TORSDOF 6
ENDMDL
MODEL 9
REMARK VINA RESULT:      -7.4      2.843      4.639
REMARK  Name = 
REMARK  8 active torsions:
REMARK  status: ('A' for Active; 'I' for Inactive)
REMARK    1  A    between atoms: C_1  and  O_2
REMARK    2  A    between atoms: O_2  and  C_3
REMARK    3  A    between atoms: C_4  and  C_5
REMARK    4  A    between atoms: C_7  and  C_8
REMARK    5  A    between atoms: C_8  and  C_9
REMARK    6  A    between atoms: C_9  and  N_10
REMARK    7  A    between atoms: N_10  and  C_11
REMARK    8  A    between atoms: C_12  and  C_14
REMARK                            x       y       z     vdW  Elec       q    Type
REMARK                         _______ _______ _______ _____ _____    ______ ____
ROOT
ATOM      1  C   UNL     1       4.674   4.367  17.196  0.00  0.00    +0.000 A 
ATOM      2  C   UNL     1       4.303   5.724  17.339  0.00  0.00    +0.000 A 
ATOM      3  C   UNL     1       3.060   6.097  17.945  0.00  0.00    +0.000 A 
ATOM      4  C   UNL     1       2.210   5.082  18.416  0.00  0.00    +0.000 A 
ATOM      5  C   UNL     1       2.611   3.770  18.289  0.00  0.00    +0.000 A 
ATOM      6  C   UNL     1       3.804   3.414  17.702  0.00  0.00    +0.000 A 
ATOM      7  O   UNL     1       3.986   2.064  17.735  0.00  0.00    +0.000 OA
ATOM      8  C   UNL     1       2.810   1.626  18.441  0.00  0.00    +0.000 C 
ATOM      9  O   UNL     1       1.904   2.699  18.744  0.00  0.00    +0.000 OA
ENDROOT
BRANCH   1  11
ATOM     10  C   UNL     1       5.866   3.644  15.269  0.00  0.00    +0.000 C 
ATOM     11  O   UNL     1       5.886   4.097  16.620  0.00  0.00    +0.000 OA
ENDBRANCH   1  11
BRANCH   2  12
ATOM     12  C   UNL     1       5.260   6.744  16.811  0.00  0.00    +0.000 C 
ATOM     13  O   UNL     1       5.337   7.067  15.631  0.00  0.00    +0.000 OA
ENDBRANCH   2  12
BRANCH   3  14
ATOM     14  C   UNL     1       2.691   7.558  18.099  0.00  0.00    +0.000 C 
BRANCH  14  15
ATOM     15  C   UNL     1       1.963   8.022  19.367  0.00  0.00    +0.000 C 
BRANCH  15  16
ATOM     16  N   UNL     1       1.309   9.342  19.306  0.00  0.00    +0.000 N 
ATOM     17  C   UNL     1       1.645  10.268  18.227  0.00  0.00    +0.000 C 
ATOM     18  C   UNL     1       0.355   9.600  20.309  0.00  0.00    +0.000 C 
ATOM     19  O   UNL     1       0.134   8.797  21.216  0.00  0.00    +0.000 OA
BRANCH  18  20
ATOM     20  C   UNL     1      -0.397  10.889  20.344  0.00  0.00    +0.000 A 
ATOM     21  C   UNL     1      -1.473  11.171  19.492  0.00  0.00    +0.000 A 
ATOM     22  C   UNL     1      -2.078  12.431  19.510  0.00  0.00    +0.000 A 
ATOM     23  C   UNL     1      -1.660  13.378  20.437  0.00  0.00    +0.000 A 
ATOM     24  F   UNL     1      -2.242  14.583  20.453  0.00  0.00    +0.000 F 
ATOM     25  C   UNL     1      -0.658  13.085  21.354  0.00  0.00    +0.000 A 
ATOM     26  C   UNL     1      -0.023  11.841  21.307  0.00  0.00    +0.000 A 
ENDBRANCH  18  20
ENDBRANCH  15  16
ENDBRANCH  14  15
ENDBRANCH   3  14
TORSDOF 6
ENDMDL
