MODEL 1
REMARK VINA RESULT:      -6.6      0.000      0.000
REMARK  Name = 
REMARK  6 active torsions:
REMARK  status: ('A' for Active; 'I' for Inactive)
REMARK    1  A    between atoms: O_1  and  C_2
REMARK    2  A    between atoms: C_2  and  C_3
REMARK    3  A    between atoms: C_2  and  C_12
REMARK    4  A    between atoms: C_3  and  O_4
REMARK    5  A    between atoms: O_4  and  C_5
REMARK    6  A    between atoms: C_5  and  C_6
REMARK                            x       y       z     vdW  Elec       q    Type
REMARK                         _______ _______ _______ _____ _____    ______ ____
ROOT
ATOM      1  C   UNL     1       3.956   2.607  19.304  0.00  0.00    +0.000 C 
ENDROOT
BRANCH   1   2
ATOM      2  C   UNL     1       2.628   2.136  19.973  0.00  0.00    +0.000 C 
ATOM      3  C   UNL     1       2.441   2.714  21.388  0.00  0.00    +0.000 C 
ATOM      4  C   UNL     1       2.147   4.211  21.357  0.00  0.00    +0.000 C 
ATOM      5  C   UNL     1       0.972   4.509  20.430  0.00  0.00    +0.000 C 
ATOM      6  C   UNL     1       1.123   3.839  19.066  0.00  0.00    +0.000 C 
ATOM      7  N   UNL     1       1.401   2.409  19.196  0.00  0.00    +0.000 NA
ATOM      8  H   UNL     1       1.441   1.973  18.278  0.00  0.00    +0.000 HD
ENDBRANCH   1   2
BRANCH   1   9
ATOM      9  O   UNL     1       5.061   1.867  19.844  0.00  0.00    +0.000 OA
ATOM     10  H   UNL     1       5.623   1.643  19.078  0.00  0.00    +0.000 HD
ENDBRANCH   1   9
BRANCH   1  11
ATOM     11  C   UNL     1       3.927   2.405  17.783  0.00  0.00    +0.000 C 
BRANCH  11  12
ATOM     12  O   UNL     1       4.554   3.518  17.127  0.00  0.00    +0.000 OA
BRANCH  12  13
ATOM     13  C   UNL     1       4.359   4.709  17.900  0.00  0.00    +0.000 C 
BRANCH  13  14
ATOM     14  C   UNL     1       5.600   5.565  17.997  0.00  0.00    +0.000 A 
ATOM     15  C   UNL     1       5.844   6.644  17.139  0.00  0.00    +0.000 A 
ATOM     16  C   UNL     1       7.016   7.397  17.261  0.00  0.00    +0.000 A 
ATOM     17  C   UNL     1       7.954   7.081  18.244  0.00  0.00    +0.000 A 
ATOM     18  C   UNL     1       7.719   6.014  19.110  0.00  0.00    +0.000 A 
ATOM     19  C   UNL     1       6.550   5.264  18.987  0.00  0.00    +0.000 A 
ENDBRANCH  13  14
ENDBRANCH  12  13
ENDBRANCH  11  12
ENDBRANCH   1  11
TORSDOF 6
ENDMDL
MODEL 2
REMARK VINA RESULT:      -6.5      1.587      2.488
REMARK  Name = 
REMARK  6 active torsions:
REMARK  status: ('A' for Active; 'I' for Inactive)
REMARK    1  A    between atoms: O_1  and  C_2
REMARK    2  A    between atoms: C_2  and  C_3
REMARK    3  A    between atoms: C_2  and  C_12
REMARK    4  A    between atoms: C_3  and  O_4
REMARK    5  A    between atoms: O_4  and  C_5
REMARK    6  A    between atoms: C_5  and  C_6
REMARK                            x       y       z     vdW  Elec       q    Type
REMARK                         _______ _______ _______ _____ _____    ______ ____
ROOT
ATOM      1  C   UNL     1       2.123   3.499  17.915  0.00  0.00    +0.000 C 
ENDROOT
BRANCH   1   2
ATOM      2  C   UNL     1       2.469   4.402  19.138  0.00  0.00    +0.000 C 
ATOM      3  C   UNL     1       1.309   4.505  20.146  0.00  0.00    +0.000 C 
ATOM      4  C   UNL     1       1.093   3.196  20.899  0.00  0.00    +0.000 C 
ATOM      5  C   UNL     1       2.396   2.720  21.535  0.00  0.00    +0.000 C 
ATOM      6  C   UNL     1       3.561   2.727  20.549  0.00  0.00    +0.000 C 
ATOM      7  N   UNL     1       3.690   4.019  19.877  0.00  0.00    +0.000 NA
ATOM      8  H   UNL     1       4.505   4.020  19.268  0.00  0.00    +0.000 HD
ENDBRANCH   1   2
BRANCH   1   9
ATOM      9  O   UNL     1       0.886   3.929  17.328  0.00  0.00    +0.000 OA
ATOM     10  H   UNL     1       0.207   3.321  17.679  0.00  0.00    +0.000 HD
ENDBRANCH   1   9
BRANCH   1  11
ATOM     11  C   UNL     1       3.219   3.553  16.843  0.00  0.00    +0.000 C 
BRANCH  11  12
ATOM     12  O   UNL     1       4.018   4.734  17.015  0.00  0.00    +0.000 OA
BRANCH  12  13
ATOM     13  C   UNL     1       5.383   4.449  16.681  0.00  0.00    +0.000 C 
BRANCH  13  14
ATOM     14  C   UNL     1       6.368   5.358  17.376  0.00  0.00    +0.000 A 
ATOM     15  C   UNL     1       7.010   5.008  18.569  0.00  0.00    +0.000 A 
ATOM     16  C   UNL     1       7.903   5.892  19.182  0.00  0.00    +0.000 A 
ATOM     17  C   UNL     1       8.166   7.136  18.606  0.00  0.00    +0.000 A 
ATOM     18  C   UNL     1       7.538   7.494  17.413  0.00  0.00    +0.000 A 
ATOM     19  C   UNL     1       6.648   6.611  16.804  0.00  0.00    +0.000 A 
ENDBRANCH  13  14
ENDBRANCH  12  13
ENDBRANCH  11  12
ENDBRANCH   1  11
TORSDOF 6
ENDMDL
MODEL 3
REMARK VINA RESULT:      -6.5      3.047      3.882
REMARK  Name = 
REMARK  6 active torsions:
REMARK  status: ('A' for Active; 'I' for Inactive)
REMARK    1  A    between atoms: O_1  and  C_2
REMARK    2  A    between atoms: C_2  and  C_3
REMARK    3  A    between atoms: C_2  and  C_12
REMARK    4  A    between atoms: C_3  and  O_4
REMARK    5  A    between atoms: O_4  and  C_5
REMARK    6  A    between atoms: C_5  and  C_6
REMARK                            x       y       z     vdW  Elec       q    Type
REMARK                         _______ _______ _______ _____ _____    ______ ____
ROOT
ATOM      1  C   UNL     1       4.408   4.011  18.590  0.00  0.00    +0.000 C 
ENDROOT
BRANCH   1   2
ATOM      2  C   UNL     1       3.624   3.050  17.645  0.00  0.00    +0.000 C 
ATOM      3  C   UNL     1       3.308   1.696  18.306  0.00  0.00    +0.000 C 
ATOM      4  C   UNL     1       2.252   1.830  19.400  0.00  0.00    +0.000 C 
ATOM      5  C   UNL     1       1.010   2.538  18.865  0.00  0.00    +0.000 C 
ATOM      6  C   UNL     1       1.352   3.825  18.117  0.00  0.00    +0.000 C 
ATOM      7  N   UNL     1       2.369   3.598  17.091  0.00  0.00    +0.000 NA
ATOM      8  H   UNL     1       2.539   4.454  16.568  0.00  0.00    +0.000 HD
ENDBRANCH   1   2
BRANCH   1   9
ATOM      9  O   UNL     1       5.587   3.356  19.080  0.00  0.00    +0.000 OA
ATOM     10  H   UNL     1       5.586   3.505  20.045  0.00  0.00    +0.000 HD
ENDBRANCH   1   9
BRANCH   1  11
ATOM     11  C   UNL     1       4.827   5.299  17.869  0.00  0.00    +0.000 C 
BRANCH  11  12
ATOM     12  O   UNL     1       4.814   5.093  16.447  0.00  0.00    +0.000 OA
BRANCH  12  13
ATOM     13  C   UNL     1       6.035   5.579  15.875  0.00  0.00    +0.000 C 
BRANCH  13  14
ATOM     14  C   UNL     1       6.349   4.965  14.531  0.00  0.00    +0.000 A 
ATOM     15  C   UNL     1       7.507   5.274  13.810  0.00  0.00    +0.000 A 
ATOM     16  C   UNL     1       7.744   4.689  12.562  0.00  0.00    +0.000 A 
ATOM     17  C   UNL     1       6.826   3.787  12.024  0.00  0.00    +0.000 A 
ATOM     18  C   UNL     1       5.671   3.465  12.736  0.00  0.00    +0.000 A 
ATOM     19  C   UNL     1       5.437   4.049  13.980  0.00  0.00    +0.000 A 
ENDBRANCH  13  14
ENDBRANCH  12  13
ENDBRANCH  11  12
ENDBRANCH   1  11
TORSDOF 6
ENDMDL
MODEL 4
REMARK VINA RESULT:      -6.5      2.678      5.846
REMARK  Name = 
REMARK  6 active torsions:
REMARK  status: ('A' for Active; 'I' for Inactive)
REMARK    1  A    between atoms: O_1  and  C_2
REMARK    2  A    between atoms: C_2  and  C_3
REMARK    3  A    between atoms: C_2  and  C_12
REMARK    4  A    between atoms: C_3  and  O_4
REMARK    5  A    between atoms: O_4  and  C_5
REMARK    6  A    between atoms: C_5  and  C_6
REMARK                            x       y       z     vdW  Elec       q    Type
REMARK                         _______ _______ _______ _____ _____    ______ ____
ROOT
ATOM      1  C   UNL     1       7.162   4.718  17.782  0.00  0.00    +0.000 C 
ENDROOT
BRANCH   1   2
ATOM      2  C   UNL     1       7.203   5.655  16.537  0.00  0.00    +0.000 C 
ATOM      3  C   UNL     1       7.463   4.890  15.226  0.00  0.00    +0.000 C 
ATOM      4  C   UNL     1       6.262   4.041  14.817  0.00  0.00    +0.000 C 
ATOM      5  C   UNL     1       4.994   4.889  14.772  0.00  0.00    +0.000 C 
ATOM      6  C   UNL     1       4.809   5.725  16.036  0.00  0.00    +0.000 C 
ATOM      7  N   UNL     1       6.007   6.503  16.349  0.00  0.00    +0.000 NA
ATOM      8  H   UNL     1       5.842   7.094  17.160  0.00  0.00    +0.000 HD
ENDBRANCH   1   2
BRANCH   1   9
ATOM      9  O   UNL     1       8.417   4.034  17.916  0.00  0.00    +0.000 OA
ATOM     10  H   UNL     1       8.575   3.606  17.053  0.00  0.00    +0.000 HD
ENDBRANCH   1   9
BRANCH   1  11
ATOM     11  C   UNL     1       6.890   5.500  19.073  0.00  0.00    +0.000 C 
BRANCH  11  12
ATOM     12  O   UNL     1       5.505   5.384  19.435  0.00  0.00    +0.000 OA
BRANCH  12  13
ATOM     13  C   UNL     1       5.044   4.053  19.171  0.00  0.00    +0.000 C 
BRANCH  13  14
ATOM     14  C   UNL     1       3.576   3.861  19.469  0.00  0.00    +0.000 A 
ATOM     15  C   UNL     1       2.863   4.700  20.332  0.00  0.00    +0.000 A 
ATOM     16  C   UNL     1       1.507   4.471  20.587  0.00  0.00    +0.000 A 
ATOM     17  C   UNL     1       0.849   3.402  19.978  0.00  0.00    +0.000 A 
ATOM     18  C   UNL     1       1.547   2.563  19.109  0.00  0.00    +0.000 A 
ATOM     19  C   UNL     1       2.898   2.793  18.857  0.00  0.00    +0.000 A 
ENDBRANCH  13  14
ENDBRANCH  12  13
ENDBRANCH  11  12
ENDBRANCH   1  11
TORSDOF 6
ENDMDL
MODEL 5
REMARK VINA RESULT:      -6.4      1.449      1.694
REMARK  Name = 
REMARK  6 active torsions:
REMARK  status: ('A' for Active; 'I' for Inactive)
REMARK    1  A    between atoms: O_1  and  C_2
REMARK    2  A    between atoms: C_2  and  C_3
REMARK    3  A    between atoms: C_2  and  C_12
REMARK    4  A    between atoms: C_3  and  O_4
REMARK    5  A    between atoms: O_4  and  C_5
REMARK    6  A    between atoms: C_5  and  C_6
REMARK                            x       y       z     vdW  Elec       q    Type
REMARK                         _______ _______ _______ _____ _____    ______ ____
ROOT
ATOM      1  C   UNL     1       3.138   2.824  18.445  0.00  0.00    +0.000 C 
ENDROOT
BRANCH   1   2
ATOM      2  C   UNL     1       1.894   3.756  18.328  0.00  0.00    +0.000 C 
ATOM      3  C   UNL     1       0.848   3.491  19.427  0.00  0.00    +0.000 C 
ATOM      4  C   UNL     1       1.335   3.953  20.797  0.00  0.00    +0.000 C 
ATOM      5  C   UNL     1       1.789   5.409  20.744  0.00  0.00    +0.000 C 
ATOM      6  C   UNL     1       2.741   5.679  19.581  0.00  0.00    +0.000 C 
ATOM      7  N   UNL     1       2.191   5.204  18.313  0.00  0.00    +0.000 NA
ATOM      8  H   UNL     1       2.815   5.444  17.546  0.00  0.00    +0.000 HD
ENDBRANCH   1   2
BRANCH   1   9
ATOM      9  O   UNL     1       2.714   1.481  18.723  0.00  0.00    +0.000 OA
ATOM     10  H   UNL     1       3.245   1.194  19.490  0.00  0.00    +0.000 HD
ENDBRANCH   1   9
BRANCH   1  11
ATOM     11  C   UNL     1       3.967   2.819  17.154  0.00  0.00    +0.000 C 
BRANCH  11  12
ATOM     12  O   UNL     1       4.331   4.162  16.798  0.00  0.00    +0.000 OA
BRANCH  12  13
ATOM     13  C   UNL     1       5.704   4.201  16.389  0.00  0.00    +0.000 C 
BRANCH  13  14
ATOM     14  C   UNL     1       6.516   5.240  17.126  0.00  0.00    +0.000 A 
ATOM     15  C   UNL     1       6.643   6.559  16.677  0.00  0.00    +0.000 A 
ATOM     16  C   UNL     1       7.420   7.480  17.388  0.00  0.00    +0.000 A 
ATOM     17  C   UNL     1       8.074   7.091  18.557  0.00  0.00    +0.000 A 
ATOM     18  C   UNL     1       7.948   5.781  19.019  0.00  0.00    +0.000 A 
ATOM     19  C   UNL     1       7.175   4.865  18.309  0.00  0.00    +0.000 A 
ENDBRANCH  13  14
ENDBRANCH  12  13
ENDBRANCH  11  12
ENDBRANCH   1  11
TORSDOF 6
ENDMDL
MODEL 6
REMARK VINA RESULT:      -6.4      2.566      3.455
REMARK  Name = 
REMARK  6 active torsions:
REMARK  status: ('A' for Active; 'I' for Inactive)
REMARK    1  A    between atoms: O_1  and  C_2
REMARK    2  A    between atoms: C_2  and  C_3
REMARK    3  A    between atoms: C_2  and  C_12
REMARK    4  A    between atoms: C_3  and  O_4
REMARK    5  A    between atoms: O_4  and  C_5
REMARK    6  A    between atoms: C_5  and  C_6
REMARK                            x       y       z     vdW  Elec       q    Type
REMARK                         _______ _______ _______ _____ _____    ______ ____
ROOT
ATOM      1  C   UNL     1       4.287   3.746  19.052  0.00  0.00    +0.000 C 
ENDROOT
BRANCH   1   2
ATOM      2  C   UNL     1       3.417   2.525  19.478  0.00  0.00    +0.000 C 
ATOM      3  C   UNL     1       3.162   2.480  20.997  0.00  0.00    +0.000 C 
ATOM      4  C   UNL     1       2.213   3.588  21.447  0.00  0.00    +0.000 C 
ATOM      5  C   UNL     1       0.928   3.563  20.624  0.00  0.00    +0.000 C 
ATOM      6  C   UNL     1       1.200   3.498  19.123  0.00  0.00    +0.000 C 
ATOM      7  N   UNL     1       2.115   2.409  18.787  0.00  0.00    +0.000 NA
ATOM      8  H   UNL     1       2.237   2.348  17.780  0.00  0.00    +0.000 HD
ENDBRANCH   1   2
BRANCH   1   9
ATOM      9  O   UNL     1       5.675   3.456  19.276  0.00  0.00    +0.000 OA
ATOM     10  H   UNL     1       5.936   2.858  18.550  0.00  0.00    +0.000 HD
ENDBRANCH   1   9
BRANCH   1  11
ATOM     11  C   UNL     1       4.092   4.092  17.570  0.00  0.00    +0.000 C 
BRANCH  11  12
ATOM     12  O   UNL     1       3.118   5.139  17.434  0.00  0.00    +0.000 OA
BRANCH  12  13
ATOM     13  C   UNL     1       3.718   6.404  17.740  0.00  0.00    +0.000 C 
BRANCH  13  14
ATOM     14  C   UNL     1       2.782   7.350  18.455  0.00  0.00    +0.000 A 
ATOM     15  C   UNL     1       2.290   8.519  17.864  0.00  0.00    +0.000 A 
ATOM     16  C   UNL     1       1.438   9.370  18.574  0.00  0.00    +0.000 A 
ATOM     17  C   UNL     1       1.066   9.058  19.882  0.00  0.00    +0.000 A 
ATOM     18  C   UNL     1       1.543   7.892  20.480  0.00  0.00    +0.000 A 
ATOM     19  C   UNL     1       2.393   7.046  19.770  0.00  0.00    +0.000 A 
ENDBRANCH  13  14
ENDBRANCH  12  13
ENDBRANCH  11  12
ENDBRANCH   1  11
TORSDOF 6
ENDMDL
MODEL 7
REMARK VINA RESULT:      -6.4      1.633      2.243
REMARK  Name = 
REMARK  6 active torsions:
REMARK  status: ('A' for Active; 'I' for Inactive)
REMARK    1  A    between atoms: O_1  and  C_2
REMARK    2  A    between atoms: C_2  and  C_3
REMARK    3  A    between atoms: C_2  and  C_12
REMARK    4  A    between atoms: C_3  and  O_4
REMARK    5  A    between atoms: O_4  and  C_5
REMARK    6  A    between atoms: C_5  and  C_6
REMARK                            x       y       z     vdW  Elec       q    Type
REMARK                         _______ _______ _______ _____ _____    ______ ____
ROOT
ATOM      1  C   UNL     1       2.164   3.802  17.899  0.00  0.00    +0.000 C 
ENDROOT
BRANCH   1   2
ATOM      2  C   UNL     1       2.651   4.565  19.168  0.00  0.00    +0.000 C 
ATOM      3  C   UNL     1       1.551   4.698  20.238  0.00  0.00    +0.000 C 
ATOM      4  C   UNL     1       1.237   3.359  20.899  0.00  0.00    +0.000 C 
ATOM      5  C   UNL     1       2.512   2.709  21.431  0.00  0.00    +0.000 C 
ATOM      6  C   UNL     1       3.629   2.684  20.390  0.00  0.00    +0.000 C 
ATOM      7  N   UNL     1       3.858   4.008  19.813  0.00  0.00    +0.000 NA
ATOM      8  H   UNL     1       4.642   3.979  19.166  0.00  0.00    +0.000 HD
ENDBRANCH   1   2
BRANCH   1   9
ATOM      9  O   UNL     1       1.231   4.615  17.171  0.00  0.00    +0.000 OA
ATOM     10  H   UNL     1       0.552   3.997  16.839  0.00  0.00    +0.000 HD
ENDBRANCH   1   9
BRANCH   1  11
ATOM     11  C   UNL     1       3.331   3.445  16.969  0.00  0.00    +0.000 C 
BRANCH  11  12
ATOM     12  O   UNL     1       4.074   4.628  16.635  0.00  0.00    +0.000 OA
BRANCH  12  13
ATOM     13  C   UNL     1       5.467   4.311  16.523  0.00  0.00    +0.000 C 
BRANCH  13  14
ATOM     14  C   UNL     1       6.362   5.306  17.223  0.00  0.00    +0.000 A 
ATOM     15  C   UNL     1       6.438   6.652  16.846  0.00  0.00    +0.000 A 
ATOM     16  C   UNL     1       7.294   7.531  17.517  0.00  0.00    +0.000 A 
ATOM     17  C   UNL     1       8.081   7.073  18.575  0.00  0.00    +0.000 A 
ATOM     18  C   UNL     1       8.008   5.736  18.965  0.00  0.00    +0.000 A 
ATOM     19  C   UNL     1       7.154   4.862  18.294  0.00  0.00    +0.000 A 
ENDBRANCH  13  14
ENDBRANCH  12  13
ENDBRANCH  11  12
ENDBRANCH   1  11
TORSDOF 6
ENDMDL
MODEL 8
REMARK VINA RESULT:      -6.3      0.429      1.246
REMARK  Name = 
REMARK  6 active torsions:
REMARK  status: ('A' for Active; 'I' for Inactive)
REMARK    1  A    between atoms: O_1  and  C_2
REMARK    2  A    between atoms: C_2  and  C_3
REMARK    3  A    between atoms: C_2  and  C_12
REMARK    4  A    between atoms: C_3  and  O_4
REMARK    5  A    between atoms: O_4  and  C_5
REMARK    6  A    between atoms: C_5  and  C_6
REMARK                            x       y       z     vdW  Elec       q    Type
REMARK                         _______ _______ _______ _____ _____    ______ ____
ROOT
ATOM      1  C   UNL     1       4.016   2.870  19.048  0.00  0.00    +0.000 C 
ENDROOT
BRANCH   1   2
ATOM      2  C   UNL     1       2.710   2.131  19.469  0.00  0.00    +0.000 C 
ATOM      3  C   UNL     1       2.396   2.288  20.969  0.00  0.00    +0.000 C 
ATOM      4  C   UNL     1       1.959   3.710  21.311  0.00  0.00    +0.000 C 
ATOM      5  C   UNL     1       0.808   4.151  20.411  0.00  0.00    +0.000 C 
ATOM      6  C   UNL     1       1.092   3.886  18.934  0.00  0.00    +0.000 C 
ATOM      7  N   UNL     1       1.502   2.502  18.703  0.00  0.00    +0.000 NA
ATOM      8  H   UNL     1       1.630   2.334  17.708  0.00  0.00    +0.000 HD
ENDBRANCH   1   2
BRANCH   1   9
ATOM      9  O   UNL     1       5.150   2.242  19.665  0.00  0.00    +0.000 OA
ATOM     10  H   UNL     1       5.909   2.823  19.466  0.00  0.00    +0.000 HD
ENDBRANCH   1   9
BRANCH   1  11
ATOM     11  C   UNL     1       4.213   2.851  17.526  0.00  0.00    +0.000 C 
BRANCH  11  12
ATOM     12  O   UNL     1       4.145   4.187  17.005  0.00  0.00    +0.000 OA
BRANCH  12  13
ATOM     13  C   UNL     1       4.247   5.133  18.077  0.00  0.00    +0.000 C 
BRANCH  13  14
ATOM     14  C   UNL     1       5.592   5.816  18.142  0.00  0.00    +0.000 A 
ATOM     15  C   UNL     1       6.595   5.429  19.037  0.00  0.00    +0.000 A 
ATOM     16  C   UNL     1       7.820   6.104  19.068  0.00  0.00    +0.000 A 
ATOM     17  C   UNL     1       8.054   7.172  18.202  0.00  0.00    +0.000 A 
ATOM     18  C   UNL     1       7.065   7.563  17.300  0.00  0.00    +0.000 A 
ATOM     19  C   UNL     1       5.846   6.888  17.271  0.00  0.00    +0.000 A 
ENDBRANCH  13  14
ENDBRANCH  12  13
ENDBRANCH  11  12
ENDBRANCH   1  11
TORSDOF 6
ENDMDL
MODEL 9
REMARK VINA RESULT:      -6.3      2.476      5.923
REMARK  Name = 
REMARK  6 active torsions:
REMARK  status: ('A' for Active; 'I' for Inactive)
REMARK    1  A    between atoms: O_1  and  C_2
REMARK    2  A    between atoms: C_2  and  C_3
REMARK    3  A    between atoms: C_2  and  C_12
REMARK    4  A    between atoms: C_3  and  O_4
REMARK    5  A    between atoms: O_4  and  C_5
REMARK    6  A    between atoms: C_5  and  C_6
REMARK                            x       y       z     vdW  Elec       q    Type
REMARK                         _______ _______ _______ _____ _____    ______ ____
ROOT
ATOM      1  C   UNL     1       4.925   6.685  16.709  0.00  0.00    +0.000 C 
ENDROOT
BRANCH   1   2
ATOM      2  C   UNL     1       4.979   5.135  16.865  0.00  0.00    +0.000 C 
ATOM      3  C   UNL     1       5.899   4.466  15.827  0.00  0.00    +0.000 C 
ATOM      4  C   UNL     1       7.371   4.762  16.099  0.00  0.00    +0.000 C 
ATOM      5  C   UNL     1       7.735   4.403  17.537  0.00  0.00    +0.000 C 
ATOM      6  C   UNL     1       6.749   4.985  18.548  0.00  0.00    +0.000 C 
ATOM      7  N   UNL     1       5.367   4.651  18.207  0.00  0.00    +0.000 NA
ATOM      8  H   UNL     1       4.733   4.999  18.922  0.00  0.00    +0.000 HD
ENDBRANCH   1   2
BRANCH   1   9
ATOM      9  O   UNL     1       4.864   7.032  15.318  0.00  0.00    +0.000 OA
ATOM     10  H   UNL     1       5.765   6.881  14.973  0.00  0.00    +0.000 HD
ENDBRANCH   1   9
BRANCH   1  11
ATOM     11  C   UNL     1       3.703   7.285  17.418  0.00  0.00    +0.000 C 
BRANCH  11  12
ATOM     12  O   UNL     1       3.612   6.776  18.758  0.00  0.00    +0.000 OA
BRANCH  12  13
ATOM     13  C   UNL     1       2.236   6.600  19.118  0.00  0.00    +0.000 C 
BRANCH  13  14
ATOM     14  C   UNL     1       1.854   5.152  19.318  0.00  0.00    +0.000 A 
ATOM     15  C   UNL     1       1.650   4.269  18.252  0.00  0.00    +0.000 A 
ATOM     16  C   UNL     1       1.282   2.941  18.490  0.00  0.00    +0.000 A 
ATOM     17  C   UNL     1       1.117   2.482  19.797  0.00  0.00    +0.000 A 
ATOM     18  C   UNL     1       1.325   3.350  20.868  0.00  0.00    +0.000 A 
ATOM     19  C   UNL     1       1.691   4.674  20.629  0.00  0.00    +0.000 A 
ENDBRANCH  13  14
ENDBRANCH  12  13
ENDBRANCH  11  12
ENDBRANCH   1  11
TORSDOF 6
ENDMDL
