MODEL 1
REMARK VINA RESULT:      -7.1      0.000      0.000
REMARK  Name = 
REMARK  0 active torsions:
REMARK  status: ('A' for Active; 'I' for Inactive)
REMARK                            x       y       z     vdW  Elec       q    Type
REMARK                         _______ _______ _______ _____ _____    ______ ____
ROOT
ATOM      1  F   UNL     1       3.271   1.695  18.222  0.00  0.00    +0.000 F 
ATOM      2  C   UNL     1       2.651   2.656  18.939  0.00  0.00    +0.000 A 
ATOM      3  C   UNL     1       1.771   2.231  19.945  0.00  0.00    +0.000 A 
ATOM      4  C   UNL     1       1.089   3.158  20.734  0.00  0.00    +0.000 A 
ATOM      5  C   UNL     1       1.280   4.523  20.525  0.00  0.00    +0.000 A 
ATOM      6  C   UNL     1       2.154   4.951  19.526  0.00  0.00    +0.000 A 
ATOM      7  C   UNL     1       2.855   4.043  18.715  0.00  0.00    +0.000 A 
ATOM      8  C   UNL     1       3.749   4.686  17.697  0.00  0.00    +0.000 A 
ATOM      9  C   UNL     1       4.579   4.044  16.742  0.00  0.00    +0.000 A 
ATOM     10  F   UNL     1       4.671   2.702  16.627  0.00  0.00    +0.000 F 
ATOM     11  C   UNL     1       5.353   4.811  15.860  0.00  0.00    +0.000 A 
ATOM     12  C   UNL     1       5.319   6.206  15.909  0.00  0.00    +0.000 A 
ATOM     13  C   UNL     1       4.509   6.849  16.842  0.00  0.00    +0.000 A 
ATOM     14  C   UNL     1       3.736   6.090  17.721  0.00  0.00    +0.000 A 
ATOM     15  I   UNL     1       2.498   6.973  19.148  0.00  0.00    +0.000 I 
ENDROOT
TORSDOF 0
ENDMDL
MODEL 2
REMARK VINA RESULT:      -7.1      0.072      4.341
REMARK  Name = 
REMARK  0 active torsions:
REMARK  status: ('A' for Active; 'I' for Inactive)
REMARK                            x       y       z     vdW  Elec       q    Type
REMARK                         _______ _______ _______ _____ _____    ______ ____
ROOT
ATOM      1  F   UNL     1       4.643   2.635  16.679  0.00  0.00    +0.000 F 
ATOM      2  C   UNL     1       4.569   3.980  16.761  0.00  0.00    +0.000 A 
ATOM      3  C   UNL     1       5.356   4.716  15.863  0.00  0.00    +0.000 A 
ATOM      4  C   UNL     1       5.340   6.111  15.879  0.00  0.00    +0.000 A 
ATOM      5  C   UNL     1       4.536   6.787  16.794  0.00  0.00    +0.000 A 
ATOM      6  C   UNL     1       3.753   6.060  17.690  0.00  0.00    +0.000 A 
ATOM      7  C   UNL     1       3.746   4.656  17.700  0.00  0.00    +0.000 A 
ATOM      8  C   UNL     1       2.842   4.049  18.731  0.00  0.00    +0.000 A 
ATOM      9  C   UNL     1       2.619   2.670  18.986  0.00  0.00    +0.000 A 
ATOM     10  F   UNL     1       3.227   1.684  18.294  0.00  0.00    +0.000 F 
ATOM     11  C   UNL     1       1.732   2.282  20.000  0.00  0.00    +0.000 A 
ATOM     12  C   UNL     1       1.061   3.237  20.765  0.00  0.00    +0.000 A 
ATOM     13  C   UNL     1       1.270   4.593  20.525  0.00  0.00    +0.000 A 
ATOM     14  C   UNL     1       2.152   4.985  19.518  0.00  0.00    +0.000 A 
ATOM     15  I   UNL     1       2.522   6.993  19.092  0.00  0.00    +0.000 I 
ENDROOT
TORSDOF 0
ENDMDL
MODEL 3
REMARK VINA RESULT:      -6.9      2.472      5.221
REMARK  Name = 
REMARK  0 active torsions:
REMARK  status: ('A' for Active; 'I' for Inactive)
REMARK                            x       y       z     vdW  Elec       q    Type
REMARK                         _______ _______ _______ _____ _____    ______ ____
ROOT
ATOM      1  F   UNL     1       4.108   7.658  17.617  0.00  0.00    +0.000 F 
ATOM      2  C   UNL     1       4.403   6.460  17.068  0.00  0.00    +0.000 A 
ATOM      3  C   UNL     1       5.252   6.464  15.953  0.00  0.00    +0.000 A 
ATOM      4  C   UNL     1       5.608   5.271  15.323  0.00  0.00    +0.000 A 
ATOM      5  C   UNL     1       5.118   4.058  15.803  0.00  0.00    +0.000 A 
ATOM      6  C   UNL     1       4.271   4.048  16.912  0.00  0.00    +0.000 A 
ATOM      7  C   UNL     1       3.894   5.232  17.567  0.00  0.00    +0.000 A 
ATOM      8  C   UNL     1       2.981   5.026  18.740  0.00  0.00    +0.000 A 
ATOM      9  C   UNL     1       2.432   6.015  19.596  0.00  0.00    +0.000 A 
ATOM     10  F   UNL     1       2.679   7.335  19.453  0.00  0.00    +0.000 F 
ATOM     11  C   UNL     1       1.589   5.637  20.651  0.00  0.00    +0.000 A 
ATOM     12  C   UNL     1       1.281   4.293  20.871  0.00  0.00    +0.000 A 
ATOM     13  C   UNL     1       1.814   3.312  20.038  0.00  0.00    +0.000 A 
ATOM     14  C   UNL     1       2.652   3.683  18.987  0.00  0.00    +0.000 A 
ATOM     15  I   UNL     1       3.492   2.279  17.694  0.00  0.00    +0.000 I 
ENDROOT
TORSDOF 0
ENDMDL
MODEL 4
REMARK VINA RESULT:      -6.9      2.476      3.051
REMARK  Name = 
REMARK  0 active torsions:
REMARK  status: ('A' for Active; 'I' for Inactive)
REMARK                            x       y       z     vdW  Elec       q    Type
REMARK                         _______ _______ _______ _____ _____    ______ ____
ROOT
ATOM      1  F   UNL     1       2.625   7.330  19.482  0.00  0.00    +0.000 F 
ATOM      2  C   UNL     1       2.393   6.007  19.616  0.00  0.00    +0.000 A 
ATOM      3  C   UNL     1       1.554   5.612  20.667  0.00  0.00    +0.000 A 
ATOM      4  C   UNL     1       1.262   4.263  20.879  0.00  0.00    +0.000 A 
ATOM      5  C   UNL     1       1.808   3.294  20.039  0.00  0.00    +0.000 A 
ATOM      6  C   UNL     1       2.644   3.682  18.993  0.00  0.00    +0.000 A 
ATOM      7  C   UNL     1       2.957   5.030  18.754  0.00  0.00    +0.000 A 
ATOM      8  C   UNL     1       3.869   5.256  17.585  0.00  0.00    +0.000 A 
ATOM      9  C   UNL     1       4.362   6.493  17.094  0.00  0.00    +0.000 A 
ATOM     10  F   UNL     1       4.052   7.683  17.651  0.00  0.00    +0.000 F 
ATOM     11  C   UNL     1       5.214   6.514  15.981  0.00  0.00    +0.000 A 
ATOM     12  C   UNL     1       5.586   5.329  15.344  0.00  0.00    +0.000 A 
ATOM     13  C   UNL     1       5.109   4.107  15.815  0.00  0.00    +0.000 A 
ATOM     14  C   UNL     1       4.262   4.081  16.923  0.00  0.00    +0.000 A 
ATOM     15  I   UNL     1       3.502   2.297  17.691  0.00  0.00    +0.000 I 
ENDROOT
TORSDOF 0
ENDMDL
MODEL 5
REMARK VINA RESULT:      -6.3      2.594      3.368
REMARK  Name = 
REMARK  0 active torsions:
REMARK  status: ('A' for Active; 'I' for Inactive)
REMARK                            x       y       z     vdW  Elec       q    Type
REMARK                         _______ _______ _______ _____ _____    ______ ____
ROOT
ATOM      1  F   UNL     1       3.402   7.969  17.932  0.00  0.00    +0.000 F 
ATOM      2  C   UNL     1       3.029   6.863  18.610  0.00  0.00    +0.000 A 
ATOM      3  C   UNL     1       2.191   7.050  19.718  0.00  0.00    +0.000 A 
ATOM      4  C   UNL     1       1.758   5.961  20.476  0.00  0.00    +0.000 A 
ATOM      5  C   UNL     1       2.159   4.671  20.133  0.00  0.00    +0.000 A 
ATOM      6  C   UNL     1       2.993   4.480  19.032  0.00  0.00    +0.000 A 
ATOM      7  C   UNL     1       3.446   5.555  18.249  0.00  0.00    +0.000 A 
ATOM      8  C   UNL     1       4.333   5.158  17.107  0.00  0.00    +0.000 A 
ATOM      9  C   UNL     1       4.943   6.006  16.146  0.00  0.00    +0.000 A 
ATOM     10  F   UNL     1       4.790   7.347  16.142  0.00  0.00    +0.000 F 
ATOM     11  C   UNL     1       5.749   5.455  15.139  0.00  0.00    +0.000 A 
ATOM     12  C   UNL     1       5.961   4.077  15.068  0.00  0.00    +0.000 A 
ATOM     13  C   UNL     1       5.368   3.233  16.005  0.00  0.00    +0.000 A 
ATOM     14  C   UNL     1       4.566   3.776  17.009  0.00  0.00    +0.000 A 
ATOM     15  I   UNL     1       3.641   2.585  18.449  0.00  0.00    +0.000 I 
ENDROOT
TORSDOF 0
ENDMDL
MODEL 6
REMARK VINA RESULT:      -6.3      2.621      5.047
REMARK  Name = 
REMARK  0 active torsions:
REMARK  status: ('A' for Active; 'I' for Inactive)
REMARK                            x       y       z     vdW  Elec       q    Type
REMARK                         _______ _______ _______ _____ _____    ______ ____
ROOT
ATOM      1  F   UNL     1       4.671   7.394  16.082  0.00  0.00    +0.000 F 
ATOM      2  C   UNL     1       4.875   6.061  16.164  0.00  0.00    +0.000 A 
ATOM      3  C   UNL     1       5.689   5.482  15.180  0.00  0.00    +0.000 A 
ATOM      4  C   UNL     1       5.951   4.111  15.189  0.00  0.00    +0.000 A 
ATOM      5  C   UNL     1       5.401   3.304  16.183  0.00  0.00    +0.000 A 
ATOM      6  C   UNL     1       4.590   3.876  17.163  0.00  0.00    +0.000 A 
ATOM      7  C   UNL     1       4.307   5.251  17.182  0.00  0.00    +0.000 A 
ATOM      8  C   UNL     1       3.419   5.685  18.311  0.00  0.00    +0.000 A 
ATOM      9  C   UNL     1       2.959   6.996  18.599  0.00  0.00    +0.000 A 
ATOM     10  F   UNL     1       3.281   8.072  17.850  0.00  0.00    +0.000 F 
ATOM     11  C   UNL     1       2.126   7.217  19.705  0.00  0.00    +0.000 A 
ATOM     12  C   UNL     1       1.743   6.160  20.532  0.00  0.00    +0.000 A 
ATOM     13  C   UNL     1       2.189   4.868  20.262  0.00  0.00    +0.000 A 
ATOM     14  C   UNL     1       3.016   4.643  19.162  0.00  0.00    +0.000 A 
ATOM     15  I   UNL     1       3.728   2.741  18.686  0.00  0.00    +0.000 I 
ENDROOT
TORSDOF 0
ENDMDL
MODEL 7
REMARK VINA RESULT:      -6.0      2.823      4.762
REMARK  Name = 
REMARK  0 active torsions:
REMARK  status: ('A' for Active; 'I' for Inactive)
REMARK                            x       y       z     vdW  Elec       q    Type
REMARK                         _______ _______ _______ _____ _____    ______ ____
ROOT
ATOM      1  F   UNL     1       1.234   6.860  20.924  0.00  0.00    +0.000 F 
ATOM      2  C   UNL     1       1.906   7.198  19.803  0.00  0.00    +0.000 A 
ATOM      3  C   UNL     1       1.698   8.492  19.304  0.00  0.00    +0.000 A 
ATOM      4  C   UNL     1       2.351   8.924  18.149  0.00  0.00    +0.000 A 
ATOM      5  C   UNL     1       3.221   8.066  17.480  0.00  0.00    +0.000 A 
ATOM      6  C   UNL     1       3.431   6.777  17.971  0.00  0.00    +0.000 A 
ATOM      7  C   UNL     1       2.788   6.313  19.131  0.00  0.00    +0.000 A 
ATOM      8  C   UNL     1       3.137   4.903  19.508  0.00  0.00    +0.000 A 
ATOM      9  C   UNL     1       2.657   4.158  20.617  0.00  0.00    +0.000 A 
ATOM     10  F   UNL     1       1.780   4.654  21.516  0.00  0.00    +0.000 F 
ATOM     11  C   UNL     1       3.094   2.841  20.815  0.00  0.00    +0.000 A 
ATOM     12  C   UNL     1       4.000   2.249  19.933  0.00  0.00    +0.000 A 
ATOM     13  C   UNL     1       4.479   2.970  18.841  0.00  0.00    +0.000 A 
ATOM     14  C   UNL     1       4.047   4.280  18.639  0.00  0.00    +0.000 A 
ATOM     15  I   UNL     1       4.715   5.429  17.032  0.00  0.00    +0.000 I 
ENDROOT
TORSDOF 0
ENDMDL
MODEL 8
REMARK VINA RESULT:      -6.0      2.831      3.808
REMARK  Name = 
REMARK  0 active torsions:
REMARK  status: ('A' for Active; 'I' for Inactive)
REMARK                            x       y       z     vdW  Elec       q    Type
REMARK                         _______ _______ _______ _____ _____    ______ ____
ROOT
ATOM      1  F   UNL     1       1.778   4.682  21.533  0.00  0.00    +0.000 F 
ATOM      2  C   UNL     1       2.653   4.178  20.637  0.00  0.00    +0.000 A 
ATOM      3  C   UNL     1       3.089   2.862  20.846  0.00  0.00    +0.000 A 
ATOM      4  C   UNL     1       3.993   2.262  19.968  0.00  0.00    +0.000 A 
ATOM      5  C   UNL     1       4.472   2.974  18.870  0.00  0.00    +0.000 A 
ATOM      6  C   UNL     1       4.043   4.284  18.658  0.00  0.00    +0.000 A 
ATOM      7  C   UNL     1       3.134   4.915  19.523  0.00  0.00    +0.000 A 
ATOM      8  C   UNL     1       2.786   6.322  19.135  0.00  0.00    +0.000 A 
ATOM      9  C   UNL     1       1.905   7.213  19.801  0.00  0.00    +0.000 A 
ATOM     10  F   UNL     1       1.234   6.885  20.926  0.00  0.00    +0.000 F 
ATOM     11  C   UNL     1       1.700   8.503  19.292  0.00  0.00    +0.000 A 
ATOM     12  C   UNL     1       2.353   8.926  18.133  0.00  0.00    +0.000 A 
ATOM     13  C   UNL     1       3.221   8.061  17.469  0.00  0.00    +0.000 A 
ATOM     14  C   UNL     1       3.429   6.776  17.972  0.00  0.00    +0.000 A 
ATOM     15  I   UNL     1       4.710   5.419  17.041  0.00  0.00    +0.000 I 
ENDROOT
TORSDOF 0
ENDMDL
