MODEL 1
REMARK VINA RESULT:      -9.9      0.000      0.000
REMARK  Name = 
REMARK  4 active torsions:
REMARK  status: ('A' for Active; 'I' for Inactive)
REMARK    1  A    between atoms: C_2  and  C_3
REMARK    2  A    between atoms: C_6  and  C_7
REMARK    3  A    between atoms: C_10  and  C_11
REMARK    4  A    between atoms: C_16  and  N_17
REMARK                            x       y       z     vdW  Elec       q    Type
REMARK                         _______ _______ _______ _____ _____    ______ ____
ROOT
ATOM      1  C   UNL     1       2.569   7.724  18.403  0.00  0.00    +0.000 A 
ATOM      2  C   UNL     1       2.201   7.603  19.758  0.00  0.00    +0.000 A 
ATOM      3  C   UNL     1       1.280   8.476  20.347  0.00  0.00    +0.000 A 
ATOM      4  C   UNL     1       0.744   9.527  19.604  0.00  0.00    +0.000 A 
ATOM      5  C   UNL     1       1.109   9.681  18.267  0.00  0.00    +0.000 A 
ATOM      6  C   UNL     1       1.963   8.758  17.669  0.00  0.00    +0.000 A 
ENDROOT
BRANCH   1  10
ATOM      7  C   UNL     1       5.480   5.030  16.705  0.00  0.00    +0.000 A 
ATOM      8  C   UNL     1       5.694   6.407  16.745  0.00  0.00    +0.000 A 
ATOM      9  C   UNL     1       4.732   7.245  17.285  0.00  0.00    +0.000 A 
ATOM     10  C   UNL     1       3.501   6.750  17.762  0.00  0.00    +0.000 A 
ATOM     11  C   UNL     1       3.246   5.336  17.663  0.00  0.00    +0.000 A 
ATOM     12  C   UNL     1       2.006   4.740  18.026  0.00  0.00    +0.000 A 
ATOM     13  C   UNL     1       1.803   3.363  18.066  0.00  0.00    +0.000 A 
ATOM     14  C   UNL     1       2.817   2.521  17.664  0.00  0.00    +0.000 A 
ATOM     15  C   UNL     1       4.017   3.063  17.204  0.00  0.00    +0.000 A 
ATOM     16  C   UNL     1       4.267   4.461  17.180  0.00  0.00    +0.000 A 
BRANCH   7  18
ATOM     17  O   UNL     1       7.757   4.359  16.493  0.00  0.00    +0.000 OA
ATOM     18  C   UNL     1       6.586   4.215  16.141  0.00  0.00    +0.000 C 
ENDBRANCH   7  18
ENDBRANCH   1  10
BRANCH   4  19
ATOM     19  C   UNL     1      -0.232  10.444  20.192  0.00  0.00    +0.000 A 
ATOM     20  C   UNL     1       0.012  10.963  21.395  0.00  0.00    +0.000 A 
ATOM     21  C   UNL     1      -0.889  11.930  22.024  0.00  0.00    +0.000 A 
ATOM     22  O   UNL     1      -0.641  12.374  23.141  0.00  0.00    +0.000 OA
ATOM     23  C   UNL     1      -2.082  12.374  21.289  0.00  0.00    +0.000 A 
ATOM     24  C   UNL     1      -2.489  11.952  20.079  0.00  0.00    +0.000 A 
ATOM     25  S   UNL     1      -1.588  10.744  19.186  0.00  0.00    +0.000 S 
BRANCH  24  26
ATOM     26  N   UNL     1      -3.678  12.477  19.544  0.00  0.00    +0.000 N 
ATOM     27  C   UNL     1      -4.654  13.235  20.360  0.00  0.00    +0.000 C 
ATOM     28  C   UNL     1      -5.914  12.403  20.624  0.00  0.00    +0.000 C 
ATOM     29  O   UNL     1      -6.509  11.962  19.391  0.00  0.00    +0.000 OA
ATOM     30  C   UNL     1      -5.577  11.149  18.659  0.00  0.00    +0.000 C 
ATOM     31  C   UNL     1      -4.292  11.924  18.316  0.00  0.00    +0.000 C 
ENDBRANCH  24  26
ENDBRANCH   4  19
TORSDOF 4
ENDMDL
MODEL 2
REMARK VINA RESULT:      -9.6      2.576      3.462
REMARK  Name = 
REMARK  4 active torsions:
REMARK  status: ('A' for Active; 'I' for Inactive)
REMARK    1  A    between atoms: C_2  and  C_3
REMARK    2  A    between atoms: C_6  and  C_7
REMARK    3  A    between atoms: C_10  and  C_11
REMARK    4  A    between atoms: C_16  and  N_17
REMARK                            x       y       z     vdW  Elec       q    Type
REMARK                         _______ _______ _______ _____ _____    ______ ____
ROOT
ATOM      1  C   UNL     1       2.454   7.468  18.521  0.00  0.00    +0.000 A 
ATOM      2  C   UNL     1       2.017   8.639  17.868  0.00  0.00    +0.000 A 
ATOM      3  C   UNL     1       1.356   9.659  18.560  0.00  0.00    +0.000 A 
ATOM      4  C   UNL     1       1.067   9.507  19.916  0.00  0.00    +0.000 A 
ATOM      5  C   UNL     1       1.470   8.349  20.580  0.00  0.00    +0.000 A 
ATOM      6  C   UNL     1       2.199   7.377  19.901  0.00  0.00    +0.000 A 
ENDROOT
BRANCH   1  10
ATOM      7  C   UNL     1       4.905   4.528  16.534  0.00  0.00    +0.000 A 
ATOM      8  C   UNL     1       5.211   5.888  16.484  0.00  0.00    +0.000 A 
ATOM      9  C   UNL     1       4.393   6.807  17.123  0.00  0.00    +0.000 A 
ATOM     10  C   UNL     1       3.217   6.413  17.793  0.00  0.00    +0.000 A 
ATOM     11  C   UNL     1       2.861   5.018  17.790  0.00  0.00    +0.000 A 
ATOM     12  C   UNL     1       1.652   4.521  18.353  0.00  0.00    +0.000 A 
ATOM     13  C   UNL     1       1.370   3.163  18.479  0.00  0.00    +0.000 A 
ATOM     14  C   UNL     1       2.258   2.240  17.970  0.00  0.00    +0.000 A 
ATOM     15  C   UNL     1       3.409   2.683  17.320  0.00  0.00    +0.000 A 
ATOM     16  C   UNL     1       3.742   4.060  17.202  0.00  0.00    +0.000 A 
BRANCH   7  18
ATOM     17  O   UNL     1       6.325   3.869  14.736  0.00  0.00    +0.000 OA
ATOM     18  C   UNL     1       5.863   3.621  15.849  0.00  0.00    +0.000 C 
ENDBRANCH   7  18
ENDBRANCH   1  10
BRANCH   4  19
ATOM     19  C   UNL     1       0.390  10.566  20.665  0.00  0.00    +0.000 A 
ATOM     20  C   UNL     1      -0.389  10.233  21.694  0.00  0.00    +0.000 A 
ATOM     21  C   UNL     1      -1.055  11.237  22.525  0.00  0.00    +0.000 A 
ATOM     22  O   UNL     1      -1.778  10.892  23.454  0.00  0.00    +0.000 OA
ATOM     23  C   UNL     1      -0.826  12.660  22.241  0.00  0.00    +0.000 A 
ATOM     24  C   UNL     1      -0.085  13.177  21.245  0.00  0.00    +0.000 A 
ATOM     25  S   UNL     1       0.739  12.145  20.094  0.00  0.00    +0.000 S 
BRANCH  24  26
ATOM     26  N   UNL     1      -0.004  14.574  21.116  0.00  0.00    +0.000 N 
ATOM     27  C   UNL     1      -0.710  15.320  20.049  0.00  0.00    +0.000 C 
ATOM     28  C   UNL     1       0.275  15.825  18.988  0.00  0.00    +0.000 C 
ATOM     29  O   UNL     1       1.306  16.632  19.584  0.00  0.00    +0.000 OA
ATOM     30  C   UNL     1       2.039  15.860  20.548  0.00  0.00    +0.000 C 
ATOM     31  C   UNL     1       1.128  15.345  21.677  0.00  0.00    +0.000 C 
ENDBRANCH  24  26
ENDBRANCH   4  19
TORSDOF 4
ENDMDL
MODEL 3
REMARK VINA RESULT:      -9.5      1.730      2.774
REMARK  Name = 
REMARK  4 active torsions:
REMARK  status: ('A' for Active; 'I' for Inactive)
REMARK    1  A    between atoms: C_2  and  C_3
REMARK    2  A    between atoms: C_6  and  C_7
REMARK    3  A    between atoms: C_10  and  C_11
REMARK    4  A    between atoms: C_16  and  N_17
REMARK                            x       y       z     vdW  Elec       q    Type
REMARK                         _______ _______ _______ _____ _____    ______ ____
ROOT
ATOM      1  C   UNL     1       2.420   7.843  18.430  0.00  0.00    +0.000 A 
ATOM      2  C   UNL     1       2.015   7.845  19.780  0.00  0.00    +0.000 A 
ATOM      3  C   UNL     1       1.048   8.738  20.252  0.00  0.00    +0.000 A 
ATOM      4  C   UNL     1       0.500   9.690  19.393  0.00  0.00    +0.000 A 
ATOM      5  C   UNL     1       0.900   9.723  18.057  0.00  0.00    +0.000 A 
ATOM      6  C   UNL     1       1.802   8.776  17.579  0.00  0.00    +0.000 A 
ENDROOT
BRANCH   1  10
ATOM      7  C   UNL     1       5.459   5.074  17.124  0.00  0.00    +0.000 A 
ATOM      8  C   UNL     1       5.697   6.447  17.181  0.00  0.00    +0.000 A 
ATOM      9  C   UNL     1       4.693   7.309  17.593  0.00  0.00    +0.000 A 
ATOM     10  C   UNL     1       3.403   6.844  17.916  0.00  0.00    +0.000 A 
ATOM     11  C   UNL     1       3.131   5.435  17.794  0.00  0.00    +0.000 A 
ATOM     12  C   UNL     1       1.843   4.869  18.004  0.00  0.00    +0.000 A 
ATOM     13  C   UNL     1       1.606   3.496  18.026  0.00  0.00    +0.000 A 
ATOM     14  C   UNL     1       2.644   2.630  17.759  0.00  0.00    +0.000 A 
ATOM     15  C   UNL     1       3.903   3.142  17.449  0.00  0.00    +0.000 A 
ATOM     16  C   UNL     1       4.185   4.535  17.448  0.00  0.00    +0.000 A 
BRANCH   7  18
ATOM     17  O   UNL     1       7.563   4.684  16.074  0.00  0.00    +0.000 OA
ATOM     18  C   UNL     1       6.609   4.231  16.707  0.00  0.00    +0.000 C 
ENDBRANCH   7  18
ENDBRANCH   1  10
BRANCH   4  19
ATOM     19  C   UNL     1      -0.523  10.626  19.858  0.00  0.00    +0.000 A 
ATOM     20  C   UNL     1      -1.485  11.004  19.017  0.00  0.00    +0.000 A 
ATOM     21  C   UNL     1      -2.574  11.892  19.425  0.00  0.00    +0.000 A 
ATOM     22  O   UNL     1      -3.433  12.232  18.618  0.00  0.00    +0.000 OA
ATOM     23  C   UNL     1      -2.632  12.352  20.820  0.00  0.00    +0.000 A 
ATOM     24  C   UNL     1      -1.748  12.083  21.797  0.00  0.00    +0.000 A 
ATOM     25  S   UNL     1      -0.334  11.094  21.497  0.00  0.00    +0.000 S 
BRANCH  24  26
ATOM     26  N   UNL     1      -1.959  12.637  23.071  0.00  0.00    +0.000 N 
ATOM     27  C   UNL     1      -3.184  12.381  23.861  0.00  0.00    +0.000 C 
ATOM     28  C   UNL     1      -4.085  13.621  23.896  0.00  0.00    +0.000 C 
ATOM     29  O   UNL     1      -3.374  14.761  24.408  0.00  0.00    +0.000 OA
ATOM     30  C   UNL     1      -2.241  15.050  23.572  0.00  0.00    +0.000 C 
ATOM     31  C   UNL     1      -1.260  13.865  23.513  0.00  0.00    +0.000 C 
ENDBRANCH  24  26
ENDBRANCH   4  19
TORSDOF 4
ENDMDL
MODEL 4
REMARK VINA RESULT:      -9.5      2.319      3.041
REMARK  Name = 
REMARK  4 active torsions:
REMARK  status: ('A' for Active; 'I' for Inactive)
REMARK    1  A    between atoms: C_2  and  C_3
REMARK    2  A    between atoms: C_6  and  C_7
REMARK    3  A    between atoms: C_10  and  C_11
REMARK    4  A    between atoms: C_16  and  N_17
REMARK                            x       y       z     vdW  Elec       q    Type
REMARK                         _______ _______ _______ _____ _____    ______ ____
ROOT
ATOM      1  C   UNL     1       2.544   7.518  18.445  0.00  0.00    +0.000 A 
ATOM      2  C   UNL     1       2.185   7.389  19.802  0.00  0.00    +0.000 A 
ATOM      3  C   UNL     1       1.425   8.365  20.454  0.00  0.00    +0.000 A 
ATOM      4  C   UNL     1       1.049   9.524  19.774  0.00  0.00    +0.000 A 
ATOM      5  C   UNL     1       1.410   9.686  18.437  0.00  0.00    +0.000 A 
ATOM      6  C   UNL     1       2.097   8.671  17.776  0.00  0.00    +0.000 A 
ENDROOT
BRANCH   1  10
ATOM      7  C   UNL     1       4.970   4.520  16.513  0.00  0.00    +0.000 A 
ATOM      8  C   UNL     1       5.295   5.875  16.450  0.00  0.00    +0.000 A 
ATOM      9  C   UNL     1       4.486   6.813  17.072  0.00  0.00    +0.000 A 
ATOM     10  C   UNL     1       3.299   6.443  17.736  0.00  0.00    +0.000 A 
ATOM     11  C   UNL     1       2.923   5.054  17.747  0.00  0.00    +0.000 A 
ATOM     12  C   UNL     1       1.703   4.580  18.306  0.00  0.00    +0.000 A 
ATOM     13  C   UNL     1       1.400   3.228  18.445  0.00  0.00    +0.000 A 
ATOM     14  C   UNL     1       2.280   2.287  17.955  0.00  0.00    +0.000 A 
ATOM     15  C   UNL     1       3.442   2.706  17.308  0.00  0.00    +0.000 A 
ATOM     16  C   UNL     1       3.795   4.076  17.177  0.00  0.00    +0.000 A 
BRANCH   7  18
ATOM     17  O   UNL     1       6.233   3.706  14.663  0.00  0.00    +0.000 OA
ATOM     18  C   UNL     1       5.920   3.592  15.848  0.00  0.00    +0.000 C 
ENDBRANCH   7  18
ENDBRANCH   1  10
BRANCH   4  19
ATOM     19  C   UNL     1       0.241  10.553  20.429  0.00  0.00    +0.000 A 
ATOM     20  C   UNL     1      -0.339  10.273  21.596  0.00  0.00    +0.000 A 
ATOM     21  C   UNL     1      -1.117  11.267  22.338  0.00  0.00    +0.000 A 
ATOM     22  O   UNL     1      -1.651  10.969  23.401  0.00  0.00    +0.000 OA
ATOM     23  C   UNL     1      -1.228  12.630  21.799  0.00  0.00    +0.000 A 
ATOM     24  C   UNL     1      -0.721  13.085  20.639  0.00  0.00    +0.000 A 
ATOM     25  S   UNL     1       0.183  12.034  19.568  0.00  0.00    +0.000 S 
BRANCH  24  26
ATOM     26  N   UNL     1      -0.955  14.422  20.277  0.00  0.00    +0.000 N 
ATOM     27  C   UNL     1      -0.332  15.048  19.089  0.00  0.00    +0.000 C 
ATOM     28  C   UNL     1       0.763  16.041  19.501  0.00  0.00    +0.000 C 
ATOM     29  O   UNL     1       0.243  17.040  20.395  0.00  0.00    +0.000 OA
ATOM     30  C   UNL     1      -0.272  16.417  21.583  0.00  0.00    +0.000 C 
ATOM     31  C   UNL     1      -1.408  15.430  21.262  0.00  0.00    +0.000 C 
ENDBRANCH  24  26
ENDBRANCH   4  19
TORSDOF 4
ENDMDL
MODEL 5
REMARK VINA RESULT:      -9.4      2.604      3.671
REMARK  Name = 
REMARK  4 active torsions:
REMARK  status: ('A' for Active; 'I' for Inactive)
REMARK    1  A    between atoms: C_2  and  C_3
REMARK    2  A    between atoms: C_6  and  C_7
REMARK    3  A    between atoms: C_10  and  C_11
REMARK    4  A    between atoms: C_16  and  N_17
REMARK                            x       y       z     vdW  Elec       q    Type
REMARK                         _______ _______ _______ _____ _____    ______ ____
ROOT
ATOM      1  C   UNL     1       2.449   7.501  18.538  0.00  0.00    +0.000 A 
ATOM      2  C   UNL     1       2.024   8.681  17.894  0.00  0.00    +0.000 A 
ATOM      3  C   UNL     1       1.372   9.701  18.594  0.00  0.00    +0.000 A 
ATOM      4  C   UNL     1       1.083   9.542  19.949  0.00  0.00    +0.000 A 
ATOM      5  C   UNL     1       1.474   8.375  20.604  0.00  0.00    +0.000 A 
ATOM      6  C   UNL     1       2.194   7.401  19.917  0.00  0.00    +0.000 A 
ENDROOT
BRANCH   1  10
ATOM      7  C   UNL     1       4.872   4.555  16.523  0.00  0.00    +0.000 A 
ATOM      8  C   UNL     1       5.179   5.914  16.469  0.00  0.00    +0.000 A 
ATOM      9  C   UNL     1       4.371   6.835  17.117  0.00  0.00    +0.000 A 
ATOM     10  C   UNL     1       3.202   6.443  17.801  0.00  0.00    +0.000 A 
ATOM     11  C   UNL     1       2.843   5.049  17.803  0.00  0.00    +0.000 A 
ATOM     12  C   UNL     1       1.640   4.554  18.381  0.00  0.00    +0.000 A 
ATOM     13  C   UNL     1       1.357   3.197  18.511  0.00  0.00    +0.000 A 
ATOM     14  C   UNL     1       2.238   2.273  17.992  0.00  0.00    +0.000 A 
ATOM     15  C   UNL     1       3.382   2.713  17.327  0.00  0.00    +0.000 A 
ATOM     16  C   UNL     1       3.716   4.089  17.205  0.00  0.00    +0.000 A 
BRANCH   7  18
ATOM     17  O   UNL     1       6.282   3.901  14.716  0.00  0.00    +0.000 OA
ATOM     18  C   UNL     1       5.820   3.646  15.828  0.00  0.00    +0.000 C 
ENDBRANCH   7  18
ENDBRANCH   1  10
BRANCH   4  19
ATOM     19  C   UNL     1       0.416  10.601  20.706  0.00  0.00    +0.000 A 
ATOM     20  C   UNL     1      -0.407  10.265  21.699  0.00  0.00    +0.000 A 
ATOM     21  C   UNL     1      -1.067  11.268  22.537  0.00  0.00    +0.000 A 
ATOM     22  O   UNL     1      -1.832  10.921  23.432  0.00  0.00    +0.000 OA
ATOM     23  C   UNL     1      -0.783  12.690  22.303  0.00  0.00    +0.000 A 
ATOM     24  C   UNL     1       0.007  13.209  21.346  0.00  0.00    +0.000 A 
ATOM     25  S   UNL     1       0.834  12.183  20.193  0.00  0.00    +0.000 S 
BRANCH  24  26
ATOM     26  N   UNL     1       0.138  14.606  21.261  0.00  0.00    +0.000 N 
ATOM     27  C   UNL     1       1.365  15.264  20.758  0.00  0.00    +0.000 C 
ATOM     28  C   UNL     1       2.145  15.921  21.903  0.00  0.00    +0.000 C 
ATOM     29  O   UNL     1       1.320  16.854  22.621  0.00  0.00    +0.000 OA
ATOM     30  C   UNL     1       0.183  16.176  23.181  0.00  0.00    +0.000 C 
ATOM     31  C   UNL     1      -0.681  15.519  22.091  0.00  0.00    +0.000 C 
ENDBRANCH  24  26
ENDBRANCH   4  19
TORSDOF 4
ENDMDL
MODEL 6
REMARK VINA RESULT:      -9.4      2.553      3.070
REMARK  Name = 
REMARK  4 active torsions:
REMARK  status: ('A' for Active; 'I' for Inactive)
REMARK    1  A    between atoms: C_2  and  C_3
REMARK    2  A    between atoms: C_6  and  C_7
REMARK    3  A    between atoms: C_10  and  C_11
REMARK    4  A    between atoms: C_16  and  N_17
REMARK                            x       y       z     vdW  Elec       q    Type
REMARK                         _______ _______ _______ _____ _____    ______ ____
ROOT
ATOM      1  C   UNL     1       2.483   7.495  18.472  0.00  0.00    +0.000 A 
ATOM      2  C   UNL     1       2.067   8.680  17.832  0.00  0.00    +0.000 A 
ATOM      3  C   UNL     1       1.406   9.695  18.531  0.00  0.00    +0.000 A 
ATOM      4  C   UNL     1       1.098   9.526  19.881  0.00  0.00    +0.000 A 
ATOM      5  C   UNL     1       1.481   8.354  20.532  0.00  0.00    +0.000 A 
ATOM      6  C   UNL     1       2.210   7.385  19.847  0.00  0.00    +0.000 A 
ENDROOT
BRANCH   1  10
ATOM      7  C   UNL     1       4.934   4.570  16.462  0.00  0.00    +0.000 A 
ATOM      8  C   UNL     1       5.225   5.932  16.401  0.00  0.00    +0.000 A 
ATOM      9  C   UNL     1       4.409   6.846  17.048  0.00  0.00    +0.000 A 
ATOM     10  C   UNL     1       3.247   6.444  17.738  0.00  0.00    +0.000 A 
ATOM     11  C   UNL     1       2.904   5.046  17.746  0.00  0.00    +0.000 A 
ATOM     12  C   UNL     1       1.709   4.539  18.330  0.00  0.00    +0.000 A 
ATOM     13  C   UNL     1       1.442   3.179  18.466  0.00  0.00    +0.000 A 
ATOM     14  C   UNL     1       2.332   2.263  17.948  0.00  0.00    +0.000 A 
ATOM     15  C   UNL     1       3.469   2.714  17.278  0.00  0.00    +0.000 A 
ATOM     16  C   UNL     1       3.786   4.093  17.149  0.00  0.00    +0.000 A 
BRANCH   7  18
ATOM     17  O   UNL     1       6.663   4.072  14.897  0.00  0.00    +0.000 OA
ATOM     18  C   UNL     1       5.890   3.669  15.767  0.00  0.00    +0.000 C 
ENDBRANCH   7  18
ENDBRANCH   1  10
BRANCH   4  19
ATOM     19  C   UNL     1       0.421  10.579  20.638  0.00  0.00    +0.000 A 
ATOM     20  C   UNL     1      -0.363  10.238  21.660  0.00  0.00    +0.000 A 
ATOM     21  C   UNL     1      -1.029  11.236  22.498  0.00  0.00    +0.000 A 
ATOM     22  O   UNL     1      -1.756  10.884  23.422  0.00  0.00    +0.000 OA
ATOM     23  C   UNL     1      -0.795  12.661  22.229  0.00  0.00    +0.000 A 
ATOM     24  C   UNL     1      -0.049  13.186  21.240  0.00  0.00    +0.000 A 
ATOM     25  S   UNL     1       0.776  12.162  20.083  0.00  0.00    +0.000 S 
BRANCH  24  26
ATOM     26  N   UNL     1       0.036  14.584  21.125  0.00  0.00    +0.000 N 
ATOM     27  C   UNL     1       0.566  15.443  22.208  0.00  0.00    +0.000 C 
ATOM     28  C   UNL     1      -0.563  16.227  22.889  0.00  0.00    +0.000 C 
ATOM     29  O   UNL     1      -1.301  17.005  21.931  0.00  0.00    +0.000 OA
ATOM     30  C   UNL     1      -1.885  16.141  20.942  0.00  0.00    +0.000 C 
ATOM     31  C   UNL     1      -0.814  15.342  20.180  0.00  0.00    +0.000 C 
ENDBRANCH  24  26
ENDBRANCH   4  19
TORSDOF 4
ENDMDL
MODEL 7
REMARK VINA RESULT:      -9.2      2.160      3.192
REMARK  Name = 
REMARK  4 active torsions:
REMARK  status: ('A' for Active; 'I' for Inactive)
REMARK    1  A    between atoms: C_2  and  C_3
REMARK    2  A    between atoms: C_6  and  C_7
REMARK    3  A    between atoms: C_10  and  C_11
REMARK    4  A    between atoms: C_16  and  N_17
REMARK                            x       y       z     vdW  Elec       q    Type
REMARK                         _______ _______ _______ _____ _____    ______ ____
ROOT
ATOM      1  C   UNL     1       2.086   7.448  18.904  0.00  0.00    +0.000 A 
ATOM      2  C   UNL     1       1.744   7.831  20.217  0.00  0.00    +0.000 A 
ATOM      3  C   UNL     1       1.270   9.114  20.504  0.00  0.00    +0.000 A 
ATOM      4  C   UNL     1       1.176  10.066  19.489  0.00  0.00    +0.000 A 
ATOM      5  C   UNL     1       1.528   9.719  18.185  0.00  0.00    +0.000 A 
ATOM      6  C   UNL     1       1.921   8.414  17.896  0.00  0.00    +0.000 A 
ENDROOT
BRANCH   1  10
ATOM      7  C   UNL     1       3.084   3.359  17.959  0.00  0.00    +0.000 A 
ATOM      8  C   UNL     1       2.090   3.673  18.886  0.00  0.00    +0.000 A 
ATOM      9  C   UNL     1       1.804   4.998  19.175  0.00  0.00    +0.000 A 
ATOM     10  C   UNL     1       2.528   6.057  18.592  0.00  0.00    +0.000 A 
ATOM     11  C   UNL     1       3.601   5.737  17.686  0.00  0.00    +0.000 A 
ATOM     12  C   UNL     1       4.456   6.719  17.112  0.00  0.00    +0.000 A 
ATOM     13  C   UNL     1       5.400   6.430  16.129  0.00  0.00    +0.000 A 
ATOM     14  C   UNL     1       5.582   5.123  15.734  0.00  0.00    +0.000 A 
ATOM     15  C   UNL     1       4.837   4.113  16.341  0.00  0.00    +0.000 A 
ATOM     16  C   UNL     1       3.845   4.377  17.324  0.00  0.00    +0.000 A 
BRANCH   7  18
ATOM     17  O   UNL     1       3.762   1.146  18.530  0.00  0.00    +0.000 OA
ATOM     18  C   UNL     1       3.289   1.912  17.691  0.00  0.00    +0.000 C 
ENDBRANCH   7  18
ENDBRANCH   1  10
BRANCH   4  19
ATOM     19  C   UNL     1       0.669  11.411  19.761  0.00  0.00    +0.000 A 
ATOM     20  C   UNL     1       1.199  12.446  19.109  0.00  0.00    +0.000 A 
ATOM     21  C   UNL     1       0.707  13.813  19.287  0.00  0.00    +0.000 A 
ATOM     22  O   UNL     1       1.230  14.743  18.681  0.00  0.00    +0.000 OA
ATOM     23  C   UNL     1      -0.434  14.048  20.183  0.00  0.00    +0.000 A 
ATOM     24  C   UNL     1      -1.081  13.132  20.925  0.00  0.00    +0.000 A 
ATOM     25  S   UNL     1      -0.603  11.447  20.911  0.00  0.00    +0.000 S 
BRANCH  24  26
ATOM     26  N   UNL     1      -2.140  13.554  21.747  0.00  0.00    +0.000 N 
ATOM     27  C   UNL     1      -2.140  13.353  23.214  0.00  0.00    +0.000 C 
ATOM     28  C   UNL     1      -3.133  12.257  23.619  0.00  0.00    +0.000 C 
ATOM     29  O   UNL     1      -4.456  12.557  23.141  0.00  0.00    +0.000 OA
ATOM     30  C   UNL     1      -4.451  12.654  21.707  0.00  0.00    +0.000 C 
ATOM     31  C   UNL     1      -3.505  13.764  21.215  0.00  0.00    +0.000 C 
ENDBRANCH  24  26
ENDBRANCH   4  19
TORSDOF 4
ENDMDL
MODEL 8
REMARK VINA RESULT:      -9.2      3.512      4.747
REMARK  Name = 
REMARK  4 active torsions:
REMARK  status: ('A' for Active; 'I' for Inactive)
REMARK    1  A    between atoms: C_2  and  C_3
REMARK    2  A    between atoms: C_6  and  C_7
REMARK    3  A    between atoms: C_10  and  C_11
REMARK    4  A    between atoms: C_16  and  N_17
REMARK                            x       y       z     vdW  Elec       q    Type
REMARK                         _______ _______ _______ _____ _____    ______ ____
ROOT
ATOM      1  C   UNL     1       2.115   7.543  18.756  0.00  0.00    +0.000 A 
ATOM      2  C   UNL     1       1.659   7.991  20.012  0.00  0.00    +0.000 A 
ATOM      3  C   UNL     1       1.207   9.300  20.202  0.00  0.00    +0.000 A 
ATOM      4  C   UNL     1       1.250  10.212  19.147  0.00  0.00    +0.000 A 
ATOM      5  C   UNL     1       1.716   9.800  17.899  0.00  0.00    +0.000 A 
ATOM      6  C   UNL     1       2.087   8.472  17.701  0.00  0.00    +0.000 A 
ENDROOT
BRANCH   1  10
ATOM      7  C   UNL     1       3.043   3.382  18.099  0.00  0.00    +0.000 A 
ATOM      8  C   UNL     1       2.050   3.776  18.995  0.00  0.00    +0.000 A 
ATOM      9  C   UNL     1       1.786   5.123  19.191  0.00  0.00    +0.000 A 
ATOM     10  C   UNL     1       2.533   6.126  18.542  0.00  0.00    +0.000 A 
ATOM     11  C   UNL     1       3.605   5.726  17.668  0.00  0.00    +0.000 A 
ATOM     12  C   UNL     1       4.481   6.651  17.034  0.00  0.00    +0.000 A 
ATOM     13  C   UNL     1       5.425   6.280  16.080  0.00  0.00    +0.000 A 
ATOM     14  C   UNL     1       5.586   4.945  15.777  0.00  0.00    +0.000 A 
ATOM     15  C   UNL     1       4.819   3.992  16.446  0.00  0.00    +0.000 A 
ATOM     16  C   UNL     1       3.826   4.340  17.401  0.00  0.00    +0.000 A 
BRANCH   7  18
ATOM     17  O   UNL     1       3.878   1.238  18.722  0.00  0.00    +0.000 OA
ATOM     18  C   UNL     1       3.223   1.917  17.931  0.00  0.00    +0.000 C 
ENDBRANCH   7  18
ENDBRANCH   1  10
BRANCH   4  19
ATOM     19  C   UNL     1       0.769  11.583  19.316  0.00  0.00    +0.000 A 
ATOM     20  C   UNL     1      -0.502  11.784  19.663  0.00  0.00    +0.000 A 
ATOM     21  C   UNL     1      -1.042  13.123  19.905  0.00  0.00    +0.000 A 
ATOM     22  O   UNL     1      -2.222  13.270  20.207  0.00  0.00    +0.000 OA
ATOM     23  C   UNL     1      -0.144  14.281  19.800  0.00  0.00    +0.000 A 
ATOM     24  C   UNL     1       1.155  14.269  19.453  0.00  0.00    +0.000 A 
ATOM     25  S   UNL     1       1.975  12.773  19.054  0.00  0.00    +0.000 S 
BRANCH  24  26
ATOM     26  N   UNL     1       1.848  15.489  19.381  0.00  0.00    +0.000 N 
ATOM     27  C   UNL     1       1.158  16.797  19.326  0.00  0.00    +0.000 C 
ATOM     28  C   UNL     1       1.259  17.414  17.925  0.00  0.00    +0.000 C 
ATOM     29  O   UNL     1       2.632  17.540  17.516  0.00  0.00    +0.000 OA
ATOM     30  C   UNL     1       3.257  16.246  17.485  0.00  0.00    +0.000 C 
ATOM     31  C   UNL     1       3.234  15.570  18.868  0.00  0.00    +0.000 C 
ENDBRANCH  24  26
ENDBRANCH   4  19
TORSDOF 4
ENDMDL
MODEL 9
REMARK VINA RESULT:      -9.0      1.729      2.365
REMARK  Name = 
REMARK  4 active torsions:
REMARK  status: ('A' for Active; 'I' for Inactive)
REMARK    1  A    between atoms: C_2  and  C_3
REMARK    2  A    between atoms: C_6  and  C_7
REMARK    3  A    between atoms: C_10  and  C_11
REMARK    4  A    between atoms: C_16  and  N_17
REMARK                            x       y       z     vdW  Elec       q    Type
REMARK                         _______ _______ _______ _____ _____    ______ ____
ROOT
ATOM      1  C   UNL     1       2.463   7.670  18.442  0.00  0.00    +0.000 A 
ATOM      2  C   UNL     1       2.119   8.850  17.753  0.00  0.00    +0.000 A 
ATOM      3  C   UNL     1       1.497   9.921  18.401  0.00  0.00    +0.000 A 
ATOM      4  C   UNL     1       1.155   9.816  19.750  0.00  0.00    +0.000 A 
ATOM      5  C   UNL     1       1.466   8.650  20.449  0.00  0.00    +0.000 A 
ATOM      6  C   UNL     1       2.159   7.623  19.814  0.00  0.00    +0.000 A 
ENDROOT
BRANCH   1  10
ATOM      7  C   UNL     1       4.803   4.559  16.583  0.00  0.00    +0.000 A 
ATOM      8  C   UNL     1       5.149   5.905  16.462  0.00  0.00    +0.000 A 
ATOM      9  C   UNL     1       4.367   6.879  17.062  0.00  0.00    +0.000 A 
ATOM     10  C   UNL     1       3.187   6.556  17.761  0.00  0.00    +0.000 A 
ATOM     11  C   UNL     1       2.788   5.174  17.831  0.00  0.00    +0.000 A 
ATOM     12  C   UNL     1       1.570   4.744  18.429  0.00  0.00    +0.000 A 
ATOM     13  C   UNL     1       1.248   3.403  18.626  0.00  0.00    +0.000 A 
ATOM     14  C   UNL     1       2.102   2.430  18.156  0.00  0.00    +0.000 A 
ATOM     15  C   UNL     1       3.259   2.803  17.473  0.00  0.00    +0.000 A 
ATOM     16  C   UNL     1       3.633   4.161  17.284  0.00  0.00    +0.000 A 
BRANCH   7  18
ATOM     17  O   UNL     1       6.212   3.786  14.822  0.00  0.00    +0.000 OA
ATOM     18  C   UNL     1       5.724   3.590  15.936  0.00  0.00    +0.000 C 
ENDBRANCH   7  18
ENDBRANCH   1  10
BRANCH   4  19
ATOM     19  C   UNL     1       0.518  10.928  20.455  0.00  0.00    +0.000 A 
ATOM     20  C   UNL     1       1.191  12.068  20.606  0.00  0.00    +0.000 A 
ATOM     21  C   UNL     1       0.601  13.242  21.251  0.00  0.00    +0.000 A 
ATOM     22  O   UNL     1       1.257  14.270  21.387  0.00  0.00    +0.000 OA
ATOM     23  C   UNL     1      -0.793  13.176  21.710  0.00  0.00    +0.000 A 
ATOM     24  C   UNL     1      -1.614  12.112  21.650  0.00  0.00    +0.000 A 
ATOM     25  S   UNL     1      -1.078  10.586  20.979  0.00  0.00    +0.000 S 
BRANCH  24  26
ATOM     26  N   UNL     1      -2.916  12.232  22.168  0.00  0.00    +0.000 N 
ATOM     27  C   UNL     1      -4.025  12.847  21.405  0.00  0.00    +0.000 C 
ATOM     28  C   UNL     1      -4.382  14.228  21.970  0.00  0.00    +0.000 C 
ATOM     29  O   UNL     1      -4.704  14.145  23.369  0.00  0.00    +0.000 OA
ATOM     30  C   UNL     1      -3.580  13.634  24.104  0.00  0.00    +0.000 C 
ATOM     31  C   UNL     1      -3.179  12.227  23.625  0.00  0.00    +0.000 C 
ENDBRANCH  24  26
ENDBRANCH   4  19
TORSDOF 4
ENDMDL
