MODEL 1
REMARK VINA RESULT:      -8.6      0.000      0.000
REMARK  Name = 
REMARK  13 active torsions:
REMARK  status: ('A' for Active; 'I' for Inactive)
REMARK    1  A    between atoms: C_1  and  O_2
REMARK    2  A    between atoms: O_2  and  C_3
REMARK    3  A    between atoms: C_8  and  O_9
REMARK    4  A    between atoms: O_9  and  C_10
REMARK    5  A    between atoms: C_11  and  C_12
REMARK    6  A    between atoms: C_12  and  C_13
REMARK    7  A    between atoms: C_13  and  C_14
REMARK    8  A    between atoms: C_14  and  C_15
REMARK    9  A    between atoms: C_15  and  C_16
REMARK   10  A    between atoms: C_22  and  O_23
REMARK   11  A    between atoms: O_23  and  C_24
REMARK   12  A    between atoms: C_25  and  O_26
REMARK   13  A    between atoms: O_26  and  C_27
REMARK                            x       y       z     vdW  Elec       q    Type
REMARK                         _______ _______ _______ _____ _____    ______ ____
ROOT
ATOM      1  C   UNL     1       8.109   7.738  18.099  0.00  0.00    +0.000 C 
ENDROOT
BRANCH   1   2
ATOM      2  C   UNL     1       6.935   6.960  17.462  0.00  0.00    +0.000 C 
BRANCH   2   9
ATOM      3  C   UNL     1       2.859   3.896  18.096  0.00  0.00    +0.000 A 
ATOM      4  C   UNL     1       3.464   4.104  16.850  0.00  0.00    +0.000 A 
ATOM      5  C   UNL     1       4.766   4.608  16.758  0.00  0.00    +0.000 A 
ATOM      6  C   UNL     1       5.491   4.904  17.916  0.00  0.00    +0.000 A 
ATOM      7  C   UNL     1       4.920   4.652  19.169  0.00  0.00    +0.000 A 
ATOM      8  C   UNL     1       3.598   4.155  19.277  0.00  0.00    +0.000 A 
ATOM      9  C   UNL     1       6.908   5.433  17.766  0.00  0.00    +0.000 C 
ATOM     10  N   UNL     1       7.651   4.711  16.703  0.00  0.00    +0.000 NA
ATOM     11  C   UNL     1       6.852   4.103  15.608  0.00  0.00    +0.000 C 
ATOM     12  C   UNL     1       5.468   4.754  15.442  0.00  0.00    +0.000 C 
ATOM     13  H   UNL     1       8.259   3.968  17.123  0.00  0.00    +0.000 HD
BRANCH   3  15
ATOM     14  C   UNL     1       1.081   2.271  18.623  0.00  0.00    +0.000 C 
ATOM     15  O   UNL     1       1.572   3.446  18.091  0.00  0.00    +0.000 OA
ENDBRANCH   3  15
BRANCH   8  16
ATOM     16  O   UNL     1       3.031   3.934  20.488  0.00  0.00    +0.000 OA
ATOM     17  C   UNL     1       2.187   4.796  21.143  0.00  0.00    +0.000 C 
ENDBRANCH   8  16
ENDBRANCH   2   9
ENDBRANCH   1   2
BRANCH   1  18
ATOM     18  C   UNL     1       8.112   9.245  17.803  0.00  0.00    +0.000 C 
BRANCH  18  19
ATOM     19  C   UNL     1       9.058  10.069  18.703  0.00  0.00    +0.000 C 
BRANCH  19  20
ATOM     20  C   UNL     1       9.779  11.196  17.927  0.00  0.00    +0.000 C 
ATOM     21  N   UNL     1      11.248  11.006  18.059  0.00  0.00    +0.000 NA
ATOM     22  C   UNL     1      11.988  11.940  18.939  0.00  0.00    +0.000 C 
ATOM     23  C   UNL     1      11.133  12.440  20.107  0.00  0.00    +0.000 C 
ATOM     24  C   UNL     1       9.949  13.146  19.517  0.00  0.00    +0.000 A 
ATOM     25  C   UNL     1       9.505  14.382  20.003  0.00  0.00    +0.000 A 
ATOM     26  C   UNL     1       8.407  15.033  19.421  0.00  0.00    +0.000 A 
ATOM     27  C   UNL     1       7.773  14.451  18.289  0.00  0.00    +0.000 A 
ATOM     28  C   UNL     1       8.247  13.216  17.804  0.00  0.00    +0.000 A 
ATOM     29  C   UNL     1       9.314  12.556  18.423  0.00  0.00    +0.000 A 
ATOM     30  H   UNL     1      11.702  10.990  17.119  0.00  0.00    +0.000 HD
BRANCH  26  31
ATOM     31  O   UNL     1       8.017  16.204  19.997  0.00  0.00    +0.000 OA
ATOM     32  C   UNL     1       8.713  17.394  20.053  0.00  0.00    +0.000 C 
ENDBRANCH  26  31
BRANCH  27  33
ATOM     33  O   UNL     1       6.725  15.079  17.693  0.00  0.00    +0.000 OA
ATOM     34  C   UNL     1       5.389  14.773  17.862  0.00  0.00    +0.000 C 
ENDBRANCH  27  33
ENDBRANCH  19  20
ENDBRANCH  18  19
ENDBRANCH   1  18
TORSDOF 9
ENDMDL
MODEL 2
REMARK VINA RESULT:      -8.4      0.930     10.694
REMARK  Name = 
REMARK  13 active torsions:
REMARK  status: ('A' for Active; 'I' for Inactive)
REMARK    1  A    between atoms: C_1  and  O_2
REMARK    2  A    between atoms: O_2  and  C_3
REMARK    3  A    between atoms: C_8  and  O_9
REMARK    4  A    between atoms: O_9  and  C_10
REMARK    5  A    between atoms: C_11  and  C_12
REMARK    6  A    between atoms: C_12  and  C_13
REMARK    7  A    between atoms: C_13  and  C_14
REMARK    8  A    between atoms: C_14  and  C_15
REMARK    9  A    between atoms: C_15  and  C_16
REMARK   10  A    between atoms: C_22  and  O_23
REMARK   11  A    between atoms: O_23  and  C_24
REMARK   12  A    between atoms: C_25  and  O_26
REMARK   13  A    between atoms: O_26  and  C_27
REMARK                            x       y       z     vdW  Elec       q    Type
REMARK                         _______ _______ _______ _____ _____    ______ ____
ROOT
ATOM      1  C   UNL     1       8.085   9.357  17.763  0.00  0.00    +0.000 C 
ENDROOT
BRANCH   1   2
ATOM      2  C   UNL     1       9.001  10.185  18.691  0.00  0.00    +0.000 C 
BRANCH   2   9
ATOM      3  C   UNL     1       9.320  14.805  20.920  0.00  0.00    +0.000 A 
ATOM      4  C   UNL     1      10.366  13.873  20.954  0.00  0.00    +0.000 A 
ATOM      5  C   UNL     1      10.416  12.814  20.040  0.00  0.00    +0.000 A 
ATOM      6  C   UNL     1       9.422  12.675  19.067  0.00  0.00    +0.000 A 
ATOM      7  C   UNL     1       8.400  13.627  18.987  0.00  0.00    +0.000 A 
ATOM      8  C   UNL     1       8.329  14.697  19.913  0.00  0.00    +0.000 A 
ATOM      9  C   UNL     1       9.528  11.519  18.086  0.00  0.00    +0.000 C 
ATOM     10  N   UNL     1      10.924  11.325  17.619  0.00  0.00    +0.000 NA
ATOM     11  C   UNL     1      12.013  11.770  18.527  0.00  0.00    +0.000 C 
ATOM     12  C   UNL     1      11.570  11.858  19.997  0.00  0.00    +0.000 C 
ATOM     13  H   UNL     1      11.063  11.780  16.686  0.00  0.00    +0.000 HD
BRANCH   3  15
ATOM     14  C   UNL     1      10.026  16.966  21.873  0.00  0.00    +0.000 C 
ATOM     15  O   UNL     1       9.327  15.776  21.876  0.00  0.00    +0.000 OA
ENDBRANCH   3  15
BRANCH   8  16
ATOM     16  O   UNL     1       7.327  15.607  19.855  0.00  0.00    +0.000 OA
ATOM     17  C   UNL     1       6.810  16.151  18.706  0.00  0.00    +0.000 C 
ENDBRANCH   8  16
ENDBRANCH   2   9
ENDBRANCH   1   2
BRANCH   1  18
ATOM     18  C   UNL     1       8.040   7.855  18.084  0.00  0.00    +0.000 C 
BRANCH  18  19
ATOM     19  C   UNL     1       6.757   7.140  17.607  0.00  0.00    +0.000 C 
BRANCH  19  20
ATOM     20  C   UNL     1       6.752   5.635  17.963  0.00  0.00    +0.000 C 
ATOM     21  N   UNL     1       7.526   4.895  16.932  0.00  0.00    +0.000 NA
ATOM     22  C   UNL     1       6.771   4.067  15.963  0.00  0.00    +0.000 C 
ATOM     23  C   UNL     1       5.381   4.640  15.669  0.00  0.00    +0.000 C 
ATOM     24  C   UNL     1       4.638   4.686  16.970  0.00  0.00    +0.000 A 
ATOM     25  C   UNL     1       3.310   4.255  17.080  0.00  0.00    +0.000 A 
ATOM     26  C   UNL     1       2.641   4.288  18.313  0.00  0.00    +0.000 A 
ATOM     27  C   UNL     1       3.342   4.715  19.473  0.00  0.00    +0.000 A 
ATOM     28  C   UNL     1       4.684   5.127  19.345  0.00  0.00    +0.000 A 
ATOM     29  C   UNL     1       5.323   5.133  18.100  0.00  0.00    +0.000 A 
ATOM     30  H   UNL     1       8.265   4.308  17.379  0.00  0.00    +0.000 HD
BRANCH  26  31
ATOM     31  O   UNL     1       1.336   3.898  18.309  0.00  0.00    +0.000 OA
ATOM     32  C   UNL     1       0.820   2.659  18.625  0.00  0.00    +0.000 C 
ENDBRANCH  26  31
BRANCH  27  33
ATOM     33  O   UNL     1       2.722   4.729  20.683  0.00  0.00    +0.000 OA
ATOM     34  C   UNL     1       2.560   3.648  21.527  0.00  0.00    +0.000 C 
ENDBRANCH  27  33
ENDBRANCH  19  20
ENDBRANCH  18  19
ENDBRANCH   1  18
TORSDOF 9
ENDMDL
MODEL 3
REMARK VINA RESULT:      -8.2      0.969      1.057
REMARK  Name = 
REMARK  13 active torsions:
REMARK  status: ('A' for Active; 'I' for Inactive)
REMARK    1  A    between atoms: C_1  and  O_2
REMARK    2  A    between atoms: O_2  and  C_3
REMARK    3  A    between atoms: C_8  and  O_9
REMARK    4  A    between atoms: O_9  and  C_10
REMARK    5  A    between atoms: C_11  and  C_12
REMARK    6  A    between atoms: C_12  and  C_13
REMARK    7  A    between atoms: C_13  and  C_14
REMARK    8  A    between atoms: C_14  and  C_15
REMARK    9  A    between atoms: C_15  and  C_16
REMARK   10  A    between atoms: C_22  and  O_23
REMARK   11  A    between atoms: O_23  and  C_24
REMARK   12  A    between atoms: C_25  and  O_26
REMARK   13  A    between atoms: O_26  and  C_27
REMARK                            x       y       z     vdW  Elec       q    Type
REMARK                         _______ _______ _______ _____ _____    ______ ____
ROOT
ATOM      1  C   UNL     1       8.038   8.060  17.601  0.00  0.00    +0.000 C 
ENDROOT
BRANCH   1   2
ATOM      2  C   UNL     1       6.683   7.328  17.480  0.00  0.00    +0.000 C 
BRANCH   2   9
ATOM      3  C   UNL     1       2.602   4.344  18.403  0.00  0.00    +0.000 A 
ATOM      4  C   UNL     1       3.302   4.316  17.190  0.00  0.00    +0.000 A 
ATOM      5  C   UNL     1       4.602   4.827  17.098  0.00  0.00    +0.000 A 
ATOM      6  C   UNL     1       5.229   5.365  18.225  0.00  0.00    +0.000 A 
ATOM      7  C   UNL     1       4.563   5.352  19.455  0.00  0.00    +0.000 A 
ATOM      8  C   UNL     1       3.242   4.851  19.561  0.00  0.00    +0.000 A 
ATOM      9  C   UNL     1       6.648   5.892  18.080  0.00  0.00    +0.000 C 
ATOM     10  N   UNL     1       7.481   4.993  17.241  0.00  0.00    +0.000 NA
ATOM     11  C   UNL     1       6.778   4.159  16.232  0.00  0.00    +0.000 C 
ATOM     12  C   UNL     1       5.405   4.728  15.835  0.00  0.00    +0.000 C 
ATOM     13  H   UNL     1       8.061   4.365  17.846  0.00  0.00    +0.000 HD
BRANCH   3  15
ATOM     14  C   UNL     1       0.900   2.569  18.588  0.00  0.00    +0.000 C 
ATOM     15  O   UNL     1       1.325   3.867  18.390  0.00  0.00    +0.000 OA
ENDBRANCH   3  15
BRANCH   8  16
ATOM     16  O   UNL     1       2.584   4.859  20.745  0.00  0.00    +0.000 OA
ATOM     17  C   UNL     1       2.407   3.772  21.565  0.00  0.00    +0.000 C 
ENDBRANCH   8  16
ENDBRANCH   2   9
ENDBRANCH   1   2
BRANCH   1  18
ATOM     18  C   UNL     1       7.927   9.571  17.860  0.00  0.00    +0.000 C 
BRANCH  18  19
ATOM     19  C   UNL     1       9.090  10.162  18.686  0.00  0.00    +0.000 C 
BRANCH  19  20
ATOM     20  C   UNL     1       9.695  11.426  18.034  0.00  0.00    +0.000 C 
ATOM     21  N   UNL     1      11.128  11.172  17.729  0.00  0.00    +0.000 NA
ATOM     22  C   UNL     1      12.143  11.838  18.578  0.00  0.00    +0.000 C 
ATOM     23  C   UNL     1      11.651  12.055  20.012  0.00  0.00    +0.000 C 
ATOM     24  C   UNL     1      10.426  12.915  19.933  0.00  0.00    +0.000 A 
ATOM     25  C   UNL     1      10.228  14.003  20.793  0.00  0.00    +0.000 A 
ATOM     26  C   UNL     1       9.083  14.806  20.687  0.00  0.00    +0.000 A 
ATOM     27  C   UNL     1       8.140  14.541  19.656  0.00  0.00    +0.000 A 
ATOM     28  C   UNL     1       8.367  13.453  18.790  0.00  0.00    +0.000 A 
ATOM     29  C   UNL     1       9.490  12.633  18.937  0.00  0.00    +0.000 A 
ATOM     30  H   UNL     1      11.333  11.378  16.727  0.00  0.00    +0.000 HD
BRANCH  26  31
ATOM     31  O   UNL     1       8.954  15.807  21.601  0.00  0.00    +0.000 OA
ATOM     32  C   UNL     1       9.949  16.586  22.152  0.00  0.00    +0.000 C 
ENDBRANCH  26  31
BRANCH  27  33
ATOM     33  O   UNL     1       7.037  15.324  19.518  0.00  0.00    +0.000 OA
ATOM     34  C   UNL     1       6.980  16.544  18.873  0.00  0.00    +0.000 C 
ENDBRANCH  27  33
ENDBRANCH  19  20
ENDBRANCH  18  19
ENDBRANCH   1  18
TORSDOF 9
ENDMDL
MODEL 4
REMARK VINA RESULT:      -8.2      0.955     10.734
REMARK  Name = 
REMARK  13 active torsions:
REMARK  status: ('A' for Active; 'I' for Inactive)
REMARK    1  A    between atoms: C_1  and  O_2
REMARK    2  A    between atoms: O_2  and  C_3
REMARK    3  A    between atoms: C_8  and  O_9
REMARK    4  A    between atoms: O_9  and  C_10
REMARK    5  A    between atoms: C_11  and  C_12
REMARK    6  A    between atoms: C_12  and  C_13
REMARK    7  A    between atoms: C_13  and  C_14
REMARK    8  A    between atoms: C_14  and  C_15
REMARK    9  A    between atoms: C_15  and  C_16
REMARK   10  A    between atoms: C_22  and  O_23
REMARK   11  A    between atoms: O_23  and  C_24
REMARK   12  A    between atoms: C_25  and  O_26
REMARK   13  A    between atoms: O_26  and  C_27
REMARK                            x       y       z     vdW  Elec       q    Type
REMARK                         _______ _______ _______ _____ _____    ______ ____
ROOT
ATOM      1  C   UNL     1       8.297   9.107  17.585  0.00  0.00    +0.000 C 
ENDROOT
BRANCH   1   2
ATOM      2  C   UNL     1       9.071  10.007  18.573  0.00  0.00    +0.000 C 
BRANCH   2   9
ATOM      3  C   UNL     1       8.703  14.855  20.240  0.00  0.00    +0.000 A 
ATOM      4  C   UNL     1       9.736  13.994  20.634  0.00  0.00    +0.000 A 
ATOM      5  C   UNL     1      10.038  12.846  19.892  0.00  0.00    +0.000 A 
ATOM      6  C   UNL     1       9.315  12.544  18.735  0.00  0.00    +0.000 A 
ATOM      7  C   UNL     1       8.315  13.421  18.300  0.00  0.00    +0.000 A 
ATOM      8  C   UNL     1       7.990  14.580  19.047  0.00  0.00    +0.000 A 
ATOM      9  C   UNL     1       9.689  11.295  17.954  0.00  0.00    +0.000 C 
ATOM     10  N   UNL     1      11.162  11.131  17.860  0.00  0.00    +0.000 NA
ATOM     11  C   UNL     1      11.984  11.735  18.940  0.00  0.00    +0.000 C 
ATOM     12  C   UNL     1      11.195  11.958  20.241  0.00  0.00    +0.000 C 
ATOM     13  H   UNL     1      11.510  11.488  16.938  0.00  0.00    +0.000 HD
BRANCH   3  15
ATOM     14  C   UNL     1       9.231  17.045  21.242  0.00  0.00    +0.000 C 
ATOM     15  O   UNL     1       8.449  15.924  21.046  0.00  0.00    +0.000 OA
ENDBRANCH   3  15
BRANCH   8  16
ATOM     16  O   UNL     1       7.006  15.419  18.643  0.00  0.00    +0.000 OA
ATOM     17  C   UNL     1       5.769  15.036  18.186  0.00  0.00    +0.000 C 
ENDBRANCH   8  16
ENDBRANCH   2   9
ENDBRANCH   1   2
BRANCH   1  18
ATOM     18  C   UNL     1       7.919   7.725  18.140  0.00  0.00    +0.000 C 
BRANCH  18  19
ATOM     19  C   UNL     1       6.773   7.024  17.379  0.00  0.00    +0.000 C 
BRANCH  19  20
ATOM     20  C   UNL     1       7.061   5.526  17.126  0.00  0.00    +0.000 C 
ATOM     21  N   UNL     1       7.608   5.367  15.752  0.00  0.00    +0.000 NA
ATOM     22  C   UNL     1       6.726   4.768  14.723  0.00  0.00    +0.000 C 
ATOM     23  C   UNL     1       5.248   5.083  14.970  0.00  0.00    +0.000 C 
ATOM     24  C   UNL     1       4.895   4.522  16.315  0.00  0.00    +0.000 A 
ATOM     25  C   UNL     1       3.717   3.795  16.529  0.00  0.00    +0.000 A 
ATOM     26  C   UNL     1       3.419   3.262  17.792  0.00  0.00    +0.000 A 
ATOM     27  C   UNL     1       4.353   3.419  18.852  0.00  0.00    +0.000 A 
ATOM     28  C   UNL     1       5.541   4.137  18.611  0.00  0.00    +0.000 A 
ATOM     29  C   UNL     1       5.804   4.703  17.359  0.00  0.00    +0.000 A 
ATOM     30  H   UNL     1       8.511   4.843  15.774  0.00  0.00    +0.000 HD
BRANCH  26  31
ATOM     31  O   UNL     1       2.226   2.617  17.915  0.00  0.00    +0.000 OA
ATOM     32  C   UNL     1       1.172   2.935  18.746  0.00  0.00    +0.000 C 
ENDBRANCH  26  31
BRANCH  27  33
ATOM     33  O   UNL     1       4.097   2.887  20.076  0.00  0.00    +0.000 OA
ATOM     34  C   UNL     1       4.757   1.822  20.656  0.00  0.00    +0.000 C 
ENDBRANCH  27  33
ENDBRANCH  19  20
ENDBRANCH  18  19
ENDBRANCH   1  18
TORSDOF 9
ENDMDL
MODEL 5
REMARK VINA RESULT:      -7.8      6.316      9.044
REMARK  Name = 
REMARK  13 active torsions:
REMARK  status: ('A' for Active; 'I' for Inactive)
REMARK    1  A    between atoms: C_1  and  O_2
REMARK    2  A    between atoms: O_2  and  C_3
REMARK    3  A    between atoms: C_8  and  O_9
REMARK    4  A    between atoms: O_9  and  C_10
REMARK    5  A    between atoms: C_11  and  C_12
REMARK    6  A    between atoms: C_12  and  C_13
REMARK    7  A    between atoms: C_13  and  C_14
REMARK    8  A    between atoms: C_14  and  C_15
REMARK    9  A    between atoms: C_15  and  C_16
REMARK   10  A    between atoms: C_22  and  O_23
REMARK   11  A    between atoms: O_23  and  C_24
REMARK   12  A    between atoms: C_25  and  O_26
REMARK   13  A    between atoms: O_26  and  C_27
REMARK                            x       y       z     vdW  Elec       q    Type
REMARK                         _______ _______ _______ _____ _____    ______ ____
ROOT
ATOM      1  C   UNL     1       1.767   7.533  20.587  0.00  0.00    +0.000 C 
ENDROOT
BRANCH   1   2
ATOM      2  C   UNL     1       1.384   6.051  20.794  0.00  0.00    +0.000 C 
BRANCH   2   9
ATOM      3  C   UNL     1       5.593   4.437  18.326  0.00  0.00    +0.000 A 
ATOM      4  C   UNL     1       4.991   3.704  19.357  0.00  0.00    +0.000 A 
ATOM      5  C   UNL     1       3.667   3.952  19.738  0.00  0.00    +0.000 A 
ATOM      6  C   UNL     1       2.918   4.935  19.085  0.00  0.00    +0.000 A 
ATOM      7  C   UNL     1       3.488   5.639  18.018  0.00  0.00    +0.000 A 
ATOM      8  C   UNL     1       4.830   5.408  17.630  0.00  0.00    +0.000 A 
ATOM      9  C   UNL     1       1.479   5.157  19.523  0.00  0.00    +0.000 C 
ATOM     10  N   UNL     1       0.782   3.871  19.778  0.00  0.00    +0.000 NA
ATOM     11  C   UNL     1       1.619   2.709  20.172  0.00  0.00    +0.000 C 
ATOM     12  C   UNL     1       2.973   3.122  20.775  0.00  0.00    +0.000 C 
ATOM     13  H   UNL     1       0.205   3.599  18.946  0.00  0.00    +0.000 HD
BRANCH   3  15
ATOM     14  C   UNL     1       8.001   4.961  18.272  0.00  0.00    +0.000 C 
ATOM     15  O   UNL     1       6.899   4.160  18.051  0.00  0.00    +0.000 OA
ENDBRANCH   3  15
BRANCH   8  16
ATOM     16  O   UNL     1       5.394   6.105  16.614  0.00  0.00    +0.000 OA
ATOM     17  C   UNL     1       5.277   5.805  15.280  0.00  0.00    +0.000 C 
ENDBRANCH   8  16
ENDBRANCH   2   9
ENDBRANCH   1   2
BRANCH   1  18
ATOM     18  C   UNL     1       1.044   8.516  21.520  0.00  0.00    +0.000 C 
BRANCH  18  19
ATOM     19  C   UNL     1      -0.217   9.165  20.907  0.00  0.00    +0.000 C 
BRANCH  19  20
ATOM     20  C   UNL     1       0.127  10.266  19.878  0.00  0.00    +0.000 C 
ATOM     21  N   UNL     1       0.673  11.446  20.600  0.00  0.00    +0.000 NA
ATOM     22  C   UNL     1      -0.190  12.644  20.716  0.00  0.00    +0.000 C 
ATOM     23  C   UNL     1      -1.678  12.286  20.769  0.00  0.00    +0.000 C 
ATOM     24  C   UNL     1      -2.003  11.561  19.498  0.00  0.00    +0.000 A 
ATOM     25  C   UNL     1      -3.152  11.852  18.751  0.00  0.00    +0.000 A 
ATOM     26  C   UNL     1      -3.424  11.174  17.553  0.00  0.00    +0.000 A 
ATOM     27  C   UNL     1      -2.491  10.218  17.068  0.00  0.00    +0.000 A 
ATOM     28  C   UNL     1      -1.332   9.953  17.824  0.00  0.00    +0.000 A 
ATOM     29  C   UNL     1      -1.097  10.603  19.040  0.00  0.00    +0.000 A 
ATOM     30  H   UNL     1       1.595  11.727  20.199  0.00  0.00    +0.000 HD
BRANCH  26  31
ATOM     31  O   UNL     1      -4.591  11.489  16.926  0.00  0.00    +0.000 OA
ATOM     32  C   UNL     1      -5.567  12.371  17.343  0.00  0.00    +0.000 C 
ENDBRANCH  26  31
BRANCH  27  33
ATOM     33  O   UNL     1      -2.721   9.569  15.896  0.00  0.00    +0.000 OA
ATOM     34  C   UNL     1      -2.914  10.160  14.662  0.00  0.00    +0.000 C 
ENDBRANCH  27  33
ENDBRANCH  19  20
ENDBRANCH  18  19
ENDBRANCH   1  18
TORSDOF 9
ENDMDL
MODEL 6
REMARK VINA RESULT:      -7.8      6.191     10.440
REMARK  Name = 
REMARK  13 active torsions:
REMARK  status: ('A' for Active; 'I' for Inactive)
REMARK    1  A    between atoms: C_1  and  O_2
REMARK    2  A    between atoms: O_2  and  C_3
REMARK    3  A    between atoms: C_8  and  O_9
REMARK    4  A    between atoms: O_9  and  C_10
REMARK    5  A    between atoms: C_11  and  C_12
REMARK    6  A    between atoms: C_12  and  C_13
REMARK    7  A    between atoms: C_13  and  C_14
REMARK    8  A    between atoms: C_14  and  C_15
REMARK    9  A    between atoms: C_15  and  C_16
REMARK   10  A    between atoms: C_22  and  O_23
REMARK   11  A    between atoms: O_23  and  C_24
REMARK   12  A    between atoms: C_25  and  O_26
REMARK   13  A    between atoms: O_26  and  C_27
REMARK                            x       y       z     vdW  Elec       q    Type
REMARK                         _______ _______ _______ _____ _____    ______ ____
ROOT
ATOM      1  C   UNL     1       0.165   8.304  21.655  0.00  0.00    +0.000 C 
ENDROOT
BRANCH   1   2
ATOM      2  C   UNL     1       0.331   9.821  21.898  0.00  0.00    +0.000 C 
BRANCH   2   9
ATOM      3  C   UNL     1      -3.213  11.616  18.638  0.00  0.00    +0.000 A 
ATOM      4  C   UNL     1      -2.771  12.341  19.752  0.00  0.00    +0.000 A 
ATOM      5  C   UNL     1      -1.564  12.023  20.385  0.00  0.00    +0.000 A 
ATOM      6  C   UNL     1      -0.771  10.977  19.907  0.00  0.00    +0.000 A 
ATOM      7  C   UNL     1      -1.173  10.277  18.763  0.00  0.00    +0.000 A 
ATOM      8  C   UNL     1      -2.398  10.579  18.120  0.00  0.00    +0.000 A 
ATOM      9  C   UNL     1       0.539  10.680  20.617  0.00  0.00    +0.000 C 
ATOM     10  N   UNL     1       1.260  11.926  20.977  0.00  0.00    +0.000 NA
ATOM     11  C   UNL     1       0.442  13.150  21.182  0.00  0.00    +0.000 C 
ATOM     12  C   UNL     1      -1.026  12.840  21.522  0.00  0.00    +0.000 C 
ATOM     13  H   UNL     1       2.001  12.137  20.267  0.00  0.00    +0.000 HD
BRANCH   3  15
ATOM     14  C   UNL     1      -5.511  12.499  18.771  0.00  0.00    +0.000 C 
ATOM     15  O   UNL     1      -4.421  11.965  18.113  0.00  0.00    +0.000 OA
ENDBRANCH   3  15
BRANCH   8  16
ATOM     16  O   UNL     1      -2.804   9.887  17.028  0.00  0.00    +0.000 OA
ATOM     17  C   UNL     1      -2.612  10.273  15.724  0.00  0.00    +0.000 C 
ENDBRANCH   8  16
ENDBRANCH   2   9
ENDBRANCH   1   2
BRANCH   1  18
ATOM     18  C   UNL     1       1.257   7.674  20.776  0.00  0.00    +0.000 C 
BRANCH  18  19
ATOM     19  C   UNL     1       1.549   6.191  21.088  0.00  0.00    +0.000 C 
BRANCH  19  20
ATOM     20  C   UNL     1       1.396   5.284  19.845  0.00  0.00    +0.000 C 
ATOM     21  N   UNL     1       0.684   4.041  20.242  0.00  0.00    +0.000 NA
ATOM     22  C   UNL     1       1.474   2.791  20.328  0.00  0.00    +0.000 C 
ATOM     23  C   UNL     1       2.929   3.050  20.732  0.00  0.00    +0.000 C 
ATOM     24  C   UNL     1       3.525   3.943  19.687  0.00  0.00    +0.000 A 
ATOM     25  C   UNL     1       4.795   3.706  19.145  0.00  0.00    +0.000 A 
ATOM     26  C   UNL     1       5.324   4.544  18.153  0.00  0.00    +0.000 A 
ATOM     27  C   UNL     1       4.534   5.617  17.656  0.00  0.00    +0.000 A 
ATOM     28  C   UNL     1       3.252   5.828  18.201  0.00  0.00    +0.000 A 
ATOM     29  C   UNL     1       2.757   5.012  19.223  0.00  0.00    +0.000 A 
ATOM     30  H   UNL     1      -0.143   3.878  19.626  0.00  0.00    +0.000 HD
BRANCH  26  31
ATOM     31  O   UNL     1       6.586   4.264  17.726  0.00  0.00    +0.000 OA
ATOM     32  C   UNL     1       7.761   4.889  18.087  0.00  0.00    +0.000 C 
ENDBRANCH  26  31
BRANCH  27  33
ATOM     33  O   UNL     1       5.016   6.426  16.675  0.00  0.00    +0.000 OA
ATOM     34  C   UNL     1       5.265   6.060  15.367  0.00  0.00    +0.000 C 
ENDBRANCH  27  33
ENDBRANCH  19  20
ENDBRANCH  18  19
ENDBRANCH   1  18
TORSDOF 9
ENDMDL
MODEL 7
REMARK VINA RESULT:      -7.6      5.704      9.836
REMARK  Name = 
REMARK  13 active torsions:
REMARK  status: ('A' for Active; 'I' for Inactive)
REMARK    1  A    between atoms: C_1  and  O_2
REMARK    2  A    between atoms: O_2  and  C_3
REMARK    3  A    between atoms: C_8  and  O_9
REMARK    4  A    between atoms: O_9  and  C_10
REMARK    5  A    between atoms: C_11  and  C_12
REMARK    6  A    between atoms: C_12  and  C_13
REMARK    7  A    between atoms: C_13  and  C_14
REMARK    8  A    between atoms: C_14  and  C_15
REMARK    9  A    between atoms: C_15  and  C_16
REMARK   10  A    between atoms: C_22  and  O_23
REMARK   11  A    between atoms: O_23  and  C_24
REMARK   12  A    between atoms: C_25  and  O_26
REMARK   13  A    between atoms: O_26  and  C_27
REMARK                            x       y       z     vdW  Elec       q    Type
REMARK                         _______ _______ _______ _____ _____    ______ ____
ROOT
ATOM      1  C   UNL     1       2.234   7.391  17.761  0.00  0.00    +0.000 C 
ENDROOT
BRANCH   1   2
ATOM      2  C   UNL     1       1.725   8.595  18.584  0.00  0.00    +0.000 C 
BRANCH   2   9
ATOM      3  C   UNL     1      -2.955  10.685  18.200  0.00  0.00    +0.000 A 
ATOM      4  C   UNL     1      -2.018  11.095  19.158  0.00  0.00    +0.000 A 
ATOM      5  C   UNL     1      -0.657  10.805  19.003  0.00  0.00    +0.000 A 
ATOM      6  C   UNL     1      -0.208  10.107  17.878  0.00  0.00    +0.000 A 
ATOM      7  C   UNL     1      -1.125   9.737  16.887  0.00  0.00    +0.000 A 
ATOM      8  C   UNL     1      -2.506  10.012  17.036  0.00  0.00    +0.000 A 
ATOM      9  C   UNL     1       1.280   9.830  17.746  0.00  0.00    +0.000 C 
ATOM     10  N   UNL     1       2.092  11.007  18.146  0.00  0.00    +0.000 NA
ATOM     11  C   UNL     1       1.488  11.951  19.121  0.00  0.00    +0.000 C 
ATOM     12  C   UNL     1       0.375  11.309  19.967  0.00  0.00    +0.000 C 
ATOM     13  H   UNL     1       2.389  11.549  17.299  0.00  0.00    +0.000 HD
BRANCH   3  15
ATOM     14  C   UNL     1      -5.016  12.016  17.959  0.00  0.00    +0.000 C 
ATOM     15  O   UNL     1      -4.263  10.970  18.454  0.00  0.00    +0.000 OA
ENDBRANCH   3  15
BRANCH   8  16
ATOM     16  O   UNL     1      -3.400   9.634  16.091  0.00  0.00    +0.000 OA
ATOM     17  C   UNL     1      -3.522  10.189  14.841  0.00  0.00    +0.000 C 
ENDBRANCH   8  16
ENDBRANCH   2   9
ENDBRANCH   1   2
BRANCH   1  18
ATOM     18  C   UNL     1       2.210   6.049  18.510  0.00  0.00    +0.000 C 
BRANCH  18  19
ATOM     19  C   UNL     1       1.365   4.953  17.826  0.00  0.00    +0.000 C 
BRANCH  19  20
ATOM     20  C   UNL     1       2.225   3.767  17.330  0.00  0.00    +0.000 C 
ATOM     21  N   UNL     1       1.753   2.522  17.990  0.00  0.00    +0.000 NA
ATOM     22  C   UNL     1       2.607   1.936  19.050  0.00  0.00    +0.000 C 
ATOM     23  C   UNL     1       3.399   3.001  19.813  0.00  0.00    +0.000 C 
ATOM     24  C   UNL     1       4.263   3.710  18.815  0.00  0.00    +0.000 A 
ATOM     25  C   UNL     1       5.610   3.995  19.069  0.00  0.00    +0.000 A 
ATOM     26  C   UNL     1       6.405   4.641  18.111  0.00  0.00    +0.000 A 
ATOM     27  C   UNL     1       5.843   4.961  16.844  0.00  0.00    +0.000 A 
ATOM     28  C   UNL     1       4.491   4.648  16.600  0.00  0.00    +0.000 A 
ATOM     29  C   UNL     1       3.699   4.046  17.583  0.00  0.00    +0.000 A 
ATOM     30  H   UNL     1       1.540   1.787  17.279  0.00  0.00    +0.000 HD
BRANCH  26  31
ATOM     31  O   UNL     1       7.687   4.922  18.471  0.00  0.00    +0.000 OA
ATOM     32  C   UNL     1       8.145   5.992  19.212  0.00  0.00    +0.000 C 
ENDBRANCH  26  31
BRANCH  27  33
ATOM     33  O   UNL     1       6.603   5.562  15.890  0.00  0.00    +0.000 OA
ATOM     34  C   UNL     1       7.079   4.971  14.736  0.00  0.00    +0.000 C 
ENDBRANCH  27  33
ENDBRANCH  19  20
ENDBRANCH  18  19
ENDBRANCH   1  18
TORSDOF 9
ENDMDL
MODEL 8
REMARK VINA RESULT:      -7.6      6.191     10.282
REMARK  Name = 
REMARK  13 active torsions:
REMARK  status: ('A' for Active; 'I' for Inactive)
REMARK    1  A    between atoms: C_1  and  O_2
REMARK    2  A    between atoms: O_2  and  C_3
REMARK    3  A    between atoms: C_8  and  O_9
REMARK    4  A    between atoms: O_9  and  C_10
REMARK    5  A    between atoms: C_11  and  C_12
REMARK    6  A    between atoms: C_12  and  C_13
REMARK    7  A    between atoms: C_13  and  C_14
REMARK    8  A    between atoms: C_14  and  C_15
REMARK    9  A    between atoms: C_15  and  C_16
REMARK   10  A    between atoms: C_22  and  O_23
REMARK   11  A    between atoms: O_23  and  C_24
REMARK   12  A    between atoms: C_25  and  O_26
REMARK   13  A    between atoms: O_26  and  C_27
REMARK                            x       y       z     vdW  Elec       q    Type
REMARK                         _______ _______ _______ _____ _____    ______ ____
ROOT
ATOM      1  C   UNL     1       1.613   8.160  19.262  0.00  0.00    +0.000 C 
ENDROOT
BRANCH   1   2
ATOM      2  C   UNL     1       0.898   9.427  19.782  0.00  0.00    +0.000 C 
BRANCH   2   9
ATOM      3  C   UNL     1      -3.581  10.831  17.691  0.00  0.00    +0.000 A 
ATOM      4  C   UNL     1      -3.061  11.434  18.844  0.00  0.00    +0.000 A 
ATOM      5  C   UNL     1      -1.703  11.320  19.165  0.00  0.00    +0.000 A 
ATOM      6  C   UNL     1      -0.839  10.607  18.330  0.00  0.00    +0.000 A 
ATOM      7  C   UNL     1      -1.333  10.044  17.148  0.00  0.00    +0.000 A 
ATOM      8  C   UNL     1      -2.707  10.140  16.816  0.00  0.00    +0.000 A 
ATOM      9  C   UNL     1       0.630  10.525  18.711  0.00  0.00    +0.000 C 
ATOM     10  N   UNL     1       1.138  11.827  19.210  0.00  0.00    +0.000 NA
ATOM     11  C   UNL     1       0.152  12.751  19.828  0.00  0.00    +0.000 C 
ATOM     12  C   UNL     1      -1.105  12.029  20.343  0.00  0.00    +0.000 C 
ATOM     13  H   UNL     1       1.641  12.339  18.447  0.00  0.00    +0.000 HD
BRANCH   3  15
ATOM     14  C   UNL     1      -5.729  12.040  17.760  0.00  0.00    +0.000 C 
ATOM     15  O   UNL     1      -4.922  10.955  17.481  0.00  0.00    +0.000 OA
ENDBRANCH   3  15
BRANCH   8  16
ATOM     16  O   UNL     1      -3.195   9.575  15.686  0.00  0.00    +0.000 OA
ATOM     17  C   UNL     1      -3.251  10.178  14.454  0.00  0.00    +0.000 C 
ENDBRANCH   8  16
ENDBRANCH   2   9
ENDBRANCH   1   2
BRANCH   1  18
ATOM     18  C   UNL     1       2.159   7.237  20.362  0.00  0.00    +0.000 C 
BRANCH  18  19
ATOM     19  C   UNL     1       1.262   6.021  20.678  0.00  0.00    +0.000 C 
BRANCH  19  20
ATOM     20  C   UNL     1       1.309   4.948  19.565  0.00  0.00    +0.000 C 
ATOM     21  N   UNL     1       0.679   3.701  20.073  0.00  0.00    +0.000 NA
ATOM     22  C   UNL     1       1.568   2.561  20.397  0.00  0.00    +0.000 C 
ATOM     23  C   UNL     1       2.949   3.019  20.876  0.00  0.00    +0.000 C 
ATOM     24  C   UNL     1       3.557   3.824  19.768  0.00  0.00    +0.000 A 
ATOM     25  C   UNL     1       4.888   3.650  19.368  0.00  0.00    +0.000 A 
ATOM     26  C   UNL     1       5.429   4.400  18.314  0.00  0.00    +0.000 A 
ATOM     27  C   UNL     1       4.594   5.312  17.610  0.00  0.00    +0.000 A 
ATOM     28  C   UNL     1       3.253   5.459  18.015  0.00  0.00    +0.000 A 
ATOM     29  C   UNL     1       2.741   4.738  19.098  0.00  0.00    +0.000 A 
ATOM     30  H   UNL     1      -0.069   3.375  19.421  0.00  0.00    +0.000 HD
BRANCH  26  31
ATOM     31  O   UNL     1       6.746   4.198  18.034  0.00  0.00    +0.000 OA
ATOM     32  C   UNL     1       7.813   5.017  18.337  0.00  0.00    +0.000 C 
ENDBRANCH  26  31
BRANCH  27  33
ATOM     33  O   UNL     1       5.090   6.029  16.567  0.00  0.00    +0.000 OA
ATOM     34  C   UNL     1       5.398   5.539  15.314  0.00  0.00    +0.000 C 
ENDBRANCH  27  33
ENDBRANCH  19  20
ENDBRANCH  18  19
ENDBRANCH   1  18
TORSDOF 9
ENDMDL
MODEL 9
REMARK VINA RESULT:      -7.5      1.294      1.456
REMARK  Name = 
REMARK  13 active torsions:
REMARK  status: ('A' for Active; 'I' for Inactive)
REMARK    1  A    between atoms: C_1  and  O_2
REMARK    2  A    between atoms: O_2  and  C_3
REMARK    3  A    between atoms: C_8  and  O_9
REMARK    4  A    between atoms: O_9  and  C_10
REMARK    5  A    between atoms: C_11  and  C_12
REMARK    6  A    between atoms: C_12  and  C_13
REMARK    7  A    between atoms: C_13  and  C_14
REMARK    8  A    between atoms: C_14  and  C_15
REMARK    9  A    between atoms: C_15  and  C_16
REMARK   10  A    between atoms: C_22  and  O_23
REMARK   11  A    between atoms: O_23  and  C_24
REMARK   12  A    between atoms: C_25  and  O_26
REMARK   13  A    between atoms: O_26  and  C_27
REMARK                            x       y       z     vdW  Elec       q    Type
REMARK                         _______ _______ _______ _____ _____    ______ ____
ROOT
ATOM      1  C   UNL     1       8.083   7.978  18.215  0.00  0.00    +0.000 C 
ENDROOT
BRANCH   1   2
ATOM      2  C   UNL     1       6.992   7.258  17.390  0.00  0.00    +0.000 C 
BRANCH   2   9
ATOM      3  C   UNL     1       3.679   3.381  18.024  0.00  0.00    +0.000 A 
ATOM      4  C   UNL     1       3.834   4.054  16.805  0.00  0.00    +0.000 A 
ATOM      5  C   UNL     1       4.979   4.816  16.545  0.00  0.00    +0.000 A 
ATOM      6  C   UNL     1       5.996   4.910  17.499  0.00  0.00    +0.000 A 
ATOM      7  C   UNL     1       5.880   4.201  18.700  0.00  0.00    +0.000 A 
ATOM      8  C   UNL     1       4.722   3.437  18.983  0.00  0.00    +0.000 A 
ATOM      9  C   UNL     1       7.227   5.736  17.164  0.00  0.00    +0.000 C 
ATOM     10  N   UNL     1       7.669   5.514  15.764  0.00  0.00    +0.000 NA
ATOM     11  C   UNL     1       6.636   5.095  14.783  0.00  0.00    +0.000 C 
ATOM     12  C   UNL     1       5.209   5.471  15.216  0.00  0.00    +0.000 C 
ATOM     13  H   UNL     1       8.455   4.821  15.736  0.00  0.00    +0.000 HD
BRANCH   3  15
ATOM     14  C   UNL     1       1.225   3.192  18.157  0.00  0.00    +0.000 C 
ATOM     15  O   UNL     1       2.513   2.700  18.210  0.00  0.00    +0.000 OA
ENDBRANCH   3  15
BRANCH   8  16
ATOM     16  O   UNL     1       4.593   2.769  20.155  0.00  0.00    +0.000 OA
ATOM     17  C   UNL     1       3.528   2.865  21.015  0.00  0.00    +0.000 C 
ENDBRANCH   8  16
ENDBRANCH   2   9
ENDBRANCH   1   2
BRANCH   1  18
ATOM     18  C   UNL     1       8.454   9.377  17.700  0.00  0.00    +0.000 C 
BRANCH  18  19
ATOM     19  C   UNL     1       8.873  10.371  18.805  0.00  0.00    +0.000 C 
BRANCH  19  20
ATOM     20  C   UNL     1       9.456  11.683  18.229  0.00  0.00    +0.000 C 
ATOM     21  N   UNL     1      10.842  11.426  17.756  0.00  0.00    +0.000 NA
ATOM     22  C   UNL     1      11.959  11.973  18.562  0.00  0.00    +0.000 C 
ATOM     23  C   UNL     1      11.617  12.048  20.053  0.00  0.00    +0.000 C 
ATOM     24  C   UNL     1      10.422  12.942  20.188  0.00  0.00    +0.000 A 
ATOM     25  C   UNL     1      10.347  13.937  21.171  0.00  0.00    +0.000 A 
ATOM     26  C   UNL     1       9.226  14.776  21.265  0.00  0.00    +0.000 A 
ATOM     27  C   UNL     1       8.178  14.645  20.313  0.00  0.00    +0.000 A 
ATOM     28  C   UNL     1       8.281  13.651  19.320  0.00  0.00    +0.000 A 
ATOM     29  C   UNL     1       9.383  12.791  19.268  0.00  0.00    +0.000 A 
ATOM     30  H   UNL     1      10.956  11.733  16.765  0.00  0.00    +0.000 HD
BRANCH  26  31
ATOM     31  O   UNL     1       9.223  15.677  22.286  0.00  0.00    +0.000 OA
ATOM     32  C   UNL     1       9.833  16.913  22.329  0.00  0.00    +0.000 C 
ENDBRANCH  26  31
BRANCH  27  33
ATOM     33  O   UNL     1       7.096  15.465  20.368  0.00  0.00    +0.000 OA
ATOM     34  C   UNL     1       6.919  16.630  19.647  0.00  0.00    +0.000 C 
ENDBRANCH  27  33
ENDBRANCH  19  20
ENDBRANCH  18  19
ENDBRANCH   1  18
TORSDOF 9
ENDMDL
