MODEL 1
REMARK VINA RESULT:      -7.0      0.000      0.000
REMARK  Name = 
REMARK  3 active torsions:
REMARK  status: ('A' for Active; 'I' for Inactive)
REMARK    1  A    between atoms: C_1  and  C_2
REMARK    2  A    between atoms: C_12  and  C_13
REMARK    3  A    between atoms: C_12  and  C_14
REMARK                            x       y       z     vdW  Elec       q    Type
REMARK                         _______ _______ _______ _____ _____    ______ ____
ROOT
ATOM      1  C   UNL     1       7.085   5.091  14.644  0.00  0.00    +0.000 C 
ATOM      2  C   UNL     1       6.050   4.900  15.746  0.00  0.00    +0.000 C 
ATOM      3  C   UNL     1       5.887   3.649  16.249  0.00  0.00    +0.000 C 
ATOM      4  C   UNL     1       4.579   3.391  16.866  0.00  0.00    +0.000 C 
ATOM      5  C   UNL     1       3.736   2.308  17.553  0.00  0.00    +0.000 C 
ATOM      6  C   UNL     1       2.415   3.038  17.832  0.00  0.00    +0.000 C 
ATOM      7  C   UNL     1       2.134   4.291  17.441  0.00  0.00    +0.000 C 
ATOM      8  C   UNL     1       1.469   5.069  18.499  0.00  0.00    +0.000 C 
ATOM      9  O   UNL     1       0.840   3.997  19.222  0.00  0.00    +0.000 OA
ATOM     10  C   UNL     1       1.391   2.786  18.847  0.00  0.00    +0.000 C 
ATOM     11  O   UNL     1       1.015   1.682  19.208  0.00  0.00    +0.000 OA
ATOM     12  C   UNL     1       2.634   5.877  19.271  0.00  0.00    +0.000 C 
ATOM     13  C   UNL     1       3.289   4.930  20.332  0.00  0.00    +0.000 C 
ATOM     14  C   UNL     1       2.116   7.038  20.210  0.00  0.00    +0.000 C 
ATOM     15  C   UNL     1       3.505   6.706  18.200  0.00  0.00    +0.000 C 
ATOM     16  C   UNL     1       4.298   6.681  17.093  0.00  0.00    +0.000 C 
ATOM     17  C   UNL     1       5.156   6.145  15.909  0.00  0.00    +0.000 C 
ATOM     18  O   UNL     1       5.157   6.876  14.909  0.00  0.00    +0.000 OA
ENDROOT
TORSDOF 0
ENDMDL
MODEL 2
REMARK VINA RESULT:      -7.0      2.134      5.482
REMARK  Name = 
REMARK  3 active torsions:
REMARK  status: ('A' for Active; 'I' for Inactive)
REMARK    1  A    between atoms: C_1  and  C_2
REMARK    2  A    between atoms: C_12  and  C_13
REMARK    3  A    between atoms: C_12  and  C_14
REMARK                            x       y       z     vdW  Elec       q    Type
REMARK                         _______ _______ _______ _____ _____    ______ ____
ROOT
ATOM      1  C   UNL     1       1.189   2.992  19.482  0.00  0.00    +0.000 C 
ATOM      2  C   UNL     1       2.387   3.629  18.786  0.00  0.00    +0.000 C 
ATOM      3  C   UNL     1       2.279   3.888  17.457  0.00  0.00    +0.000 C 
ATOM      4  C   UNL     1       3.556   3.971  16.735  0.00  0.00    +0.000 C 
ATOM      5  C   UNL     1       4.170   4.182  15.344  0.00  0.00    +0.000 C 
ATOM      6  C   UNL     1       5.675   4.066  15.621  0.00  0.00    +0.000 C 
ATOM      7  C   UNL     1       6.215   3.755  16.810  0.00  0.00    +0.000 C 
ATOM      8  C   UNL     1       7.378   4.599  17.132  0.00  0.00    +0.000 C 
ATOM      9  O   UNL     1       7.814   4.920  15.800  0.00  0.00    +0.000 OA
ATOM     10  C   UNL     1       6.817   4.618  14.890  0.00  0.00    +0.000 C 
ATOM     11  O   UNL     1       6.908   4.689  13.675  0.00  0.00    +0.000 OA
ATOM     12  C   UNL     1       6.820   5.822  18.026  0.00  0.00    +0.000 C 
ATOM     13  C   UNL     1       6.242   6.923  17.073  0.00  0.00    +0.000 C 
ATOM     14  C   UNL     1       7.938   6.653  18.772  0.00  0.00    +0.000 C 
ATOM     15  C   UNL     1       5.985   5.233  19.270  0.00  0.00    +0.000 C 
ATOM     16  C   UNL     1       4.935   4.480  19.700  0.00  0.00    +0.000 C 
ATOM     17  C   UNL     1       3.638   3.618  19.684  0.00  0.00    +0.000 C 
ATOM     18  O   UNL     1       3.575   2.778  20.592  0.00  0.00    +0.000 OA
ENDROOT
TORSDOF 0
ENDMDL
MODEL 3
REMARK VINA RESULT:      -6.9      1.585      3.496
REMARK  Name = 
REMARK  3 active torsions:
REMARK  status: ('A' for Active; 'I' for Inactive)
REMARK    1  A    between atoms: C_1  and  C_2
REMARK    2  A    between atoms: C_12  and  C_13
REMARK    3  A    between atoms: C_12  and  C_14
REMARK                            x       y       z     vdW  Elec       q    Type
REMARK                         _______ _______ _______ _____ _____    ______ ____
ROOT
ATOM      1  C   UNL     1       7.044   5.542  14.433  0.00  0.00    +0.000 C 
ATOM      2  C   UNL     1       5.887   5.441  15.420  0.00  0.00    +0.000 C 
ATOM      3  C   UNL     1       5.104   6.538  15.588  0.00  0.00    +0.000 C 
ATOM      4  C   UNL     1       4.393   6.604  16.872  0.00  0.00    +0.000 C 
ATOM      5  C   UNL     1       3.442   7.473  17.708  0.00  0.00    +0.000 C 
ATOM      6  C   UNL     1       3.287   6.655  18.997  0.00  0.00    +0.000 C 
ATOM      7  C   UNL     1       3.943   5.515  19.266  0.00  0.00    +0.000 C 
ATOM      8  C   UNL     1       3.066   4.494  19.863  0.00  0.00    +0.000 C 
ATOM      9  O   UNL     1       2.092   5.351  20.483  0.00  0.00    +0.000 OA
ATOM     10  C   UNL     1       2.201   6.634  19.979  0.00  0.00    +0.000 C 
ATOM     11  O   UNL     1       1.581   7.613  20.364  0.00  0.00    +0.000 OA
ATOM     12  C   UNL     1       2.548   3.571  18.644  0.00  0.00    +0.000 C 
ATOM     13  C   UNL     1       1.324   4.272  17.963  0.00  0.00    +0.000 C 
ATOM     14  C   UNL     1       1.880   2.210  19.090  0.00  0.00    +0.000 C 
ATOM     15  C   UNL     1       3.814   3.039  17.805  0.00  0.00    +0.000 C 
ATOM     16  C   UNL     1       4.917   3.342  17.065  0.00  0.00    +0.000 C 
ATOM     17  C   UNL     1       5.978   4.163  16.276  0.00  0.00    +0.000 C 
ATOM     18  O   UNL     1       7.119   3.680  16.304  0.00  0.00    +0.000 OA
ENDROOT
TORSDOF 0
ENDMDL
MODEL 4
REMARK VINA RESULT:      -6.7      1.887      5.673
REMARK  Name = 
REMARK  3 active torsions:
REMARK  status: ('A' for Active; 'I' for Inactive)
REMARK    1  A    between atoms: C_1  and  C_2
REMARK    2  A    between atoms: C_12  and  C_13
REMARK    3  A    between atoms: C_12  and  C_14
REMARK                            x       y       z     vdW  Elec       q    Type
REMARK                         _______ _______ _______ _____ _____    ______ ____
ROOT
ATOM      1  C   UNL     1       1.701   2.384  20.179  0.00  0.00    +0.000 C 
ATOM      2  C   UNL     1       2.835   3.014  19.379  0.00  0.00    +0.000 C 
ATOM      3  C   UNL     1       3.946   3.402  20.057  0.00  0.00    +0.000 C 
ATOM      4  C   UNL     1       4.738   4.452  19.403  0.00  0.00    +0.000 C 
ATOM      5  C   UNL     1       5.985   5.332  19.566  0.00  0.00    +0.000 C 
ATOM      6  C   UNL     1       5.965   6.182  18.288  0.00  0.00    +0.000 C 
ATOM      7  C   UNL     1       4.993   6.152  17.363  0.00  0.00    +0.000 C 
ATOM      8  C   UNL     1       5.530   6.153  15.991  0.00  0.00    +0.000 C 
ATOM      9  O   UNL     1       6.778   6.828  16.225  0.00  0.00    +0.000 OA
ATOM     10  C   UNL     1       7.058   6.850  17.578  0.00  0.00    +0.000 C 
ATOM     11  O   UNL     1       7.994   7.426  18.110  0.00  0.00    +0.000 OA
ATOM     12  C   UNL     1       5.617   4.607  15.536  0.00  0.00    +0.000 C 
ATOM     13  C   UNL     1       6.945   3.989  16.091  0.00  0.00    +0.000 C 
ATOM     14  C   UNL     1       5.832   4.390  13.986  0.00  0.00    +0.000 C 
ATOM     15  C   UNL     1       4.183   3.907  15.754  0.00  0.00    +0.000 C 
ATOM     16  C   UNL     1       3.187   3.565  16.617  0.00  0.00    +0.000 C 
ATOM     17  C   UNL     1       2.396   3.354  17.942  0.00  0.00    +0.000 C 
ATOM     18  O   UNL     1       1.166   3.438  17.818  0.00  0.00    +0.000 OA
ENDROOT
TORSDOF 0
ENDMDL
MODEL 5
REMARK VINA RESULT:      -6.1      1.965      4.069
REMARK  Name = 
REMARK  3 active torsions:
REMARK  status: ('A' for Active; 'I' for Inactive)
REMARK    1  A    between atoms: C_1  and  C_2
REMARK    2  A    between atoms: C_12  and  C_13
REMARK    3  A    between atoms: C_12  and  C_14
REMARK                            x       y       z     vdW  Elec       q    Type
REMARK                         _______ _______ _______ _____ _____    ______ ____
ROOT
ATOM      1  C   UNL     1       3.203   8.978  17.450  0.00  0.00    +0.000 C 
ATOM      2  C   UNL     1       2.971   7.553  17.940  0.00  0.00    +0.000 C 
ATOM      3  C   UNL     1       1.941   7.341  18.798  0.00  0.00    +0.000 C 
ATOM      4  C   UNL     1       2.073   6.148  19.646  0.00  0.00    +0.000 C 
ATOM      5  C   UNL     1       1.388   5.355  20.767  0.00  0.00    +0.000 C 
ATOM      6  C   UNL     1       2.371   4.201  21.010  0.00  0.00    +0.000 C 
ATOM      7  C   UNL     1       3.559   4.065  20.401  0.00  0.00    +0.000 C 
ATOM      8  C   UNL     1       3.810   2.679  19.971  0.00  0.00    +0.000 C 
ATOM      9  O   UNL     1       3.007   1.981  20.938  0.00  0.00    +0.000 OA
ATOM     10  C   UNL     1       2.142   2.863  21.560  0.00  0.00    +0.000 C 
ATOM     11  O   UNL     1       1.394   2.603  22.489  0.00  0.00    +0.000 OA
ATOM     12  C   UNL     1       3.334   2.587  18.432  0.00  0.00    +0.000 C 
ATOM     13  C   UNL     1       1.786   2.353  18.394  0.00  0.00    +0.000 C 
ATOM     14  C   UNL     1       3.832   1.296  17.668  0.00  0.00    +0.000 C 
ATOM     15  C   UNL     1       4.052   3.750  17.583  0.00  0.00    +0.000 C 
ATOM     16  C   UNL     1       4.264   5.084  17.405  0.00  0.00    +0.000 C 
ATOM     17  C   UNL     1       4.147   6.628  17.573  0.00  0.00    +0.000 C 
ATOM     18  O   UNL     1       5.192   7.246  17.329  0.00  0.00    +0.000 OA
ENDROOT
TORSDOF 0
ENDMDL
MODEL 6
REMARK VINA RESULT:      -6.0      1.869      5.613
REMARK  Name = 
REMARK  3 active torsions:
REMARK  status: ('A' for Active; 'I' for Inactive)
REMARK    1  A    between atoms: C_1  and  C_2
REMARK    2  A    between atoms: C_12  and  C_13
REMARK    3  A    between atoms: C_12  and  C_14
REMARK                            x       y       z     vdW  Elec       q    Type
REMARK                         _______ _______ _______ _____ _____    ______ ____
ROOT
ATOM      1  C   UNL     1       1.340   2.260  21.976  0.00  0.00    +0.000 C 
ATOM      2  C   UNL     1       2.151   3.212  21.106  0.00  0.00    +0.000 C 
ATOM      3  C   UNL     1       2.017   4.544  21.334  0.00  0.00    +0.000 C 
ATOM      4  C   UNL     1       2.346   5.408  20.192  0.00  0.00    +0.000 C 
ATOM      5  C   UNL     1       2.400   6.872  19.733  0.00  0.00    +0.000 C 
ATOM      6  C   UNL     1       2.876   6.749  18.279  0.00  0.00    +0.000 C 
ATOM      7  C   UNL     1       3.075   5.590  17.632  0.00  0.00    +0.000 C 
ATOM      8  C   UNL     1       4.316   5.600  16.839  0.00  0.00    +0.000 C 
ATOM      9  O   UNL     1       4.423   7.012  16.584  0.00  0.00    +0.000 OA
ATOM     10  C   UNL     1       3.583   7.710  17.431  0.00  0.00    +0.000 C 
ATOM     11  O   UNL     1       3.374   8.913  17.404  0.00  0.00    +0.000 OA
ATOM     12  C   UNL     1       5.458   4.945  17.773  0.00  0.00    +0.000 C 
ATOM     13  C   UNL     1       6.022   6.048  18.732  0.00  0.00    +0.000 C 
ATOM     14  C   UNL     1       6.778   4.537  17.007  0.00  0.00    +0.000 C 
ATOM     15  C   UNL     1       4.950   3.514  18.308  0.00  0.00    +0.000 C 
ATOM     16  C   UNL     1       4.018   2.809  19.007  0.00  0.00    +0.000 C 
ATOM     17  C   UNL     1       2.791   2.484  19.909  0.00  0.00    +0.000 C 
ATOM     18  O   UNL     1       2.235   1.409  19.642  0.00  0.00    +0.000 OA
ENDROOT
TORSDOF 0
ENDMDL
MODEL 7
REMARK VINA RESULT:      -5.9      7.264     10.093
REMARK  Name = 
REMARK  3 active torsions:
REMARK  status: ('A' for Active; 'I' for Inactive)
REMARK    1  A    between atoms: C_1  and  C_2
REMARK    2  A    between atoms: C_12  and  C_13
REMARK    3  A    between atoms: C_12  and  C_14
REMARK                            x       y       z     vdW  Elec       q    Type
REMARK                         _______ _______ _______ _____ _____    ______ ____
ROOT
ATOM      1  C   UNL     1      -6.759  11.649  18.035  0.00  0.00    +0.000 C 
ATOM      2  C   UNL     1      -5.242  11.720  18.168  0.00  0.00    +0.000 C 
ATOM      3  C   UNL     1      -4.496  11.156  17.183  0.00  0.00    +0.000 C 
ATOM      4  C   UNL     1      -3.139  10.759  17.581  0.00  0.00    +0.000 C 
ATOM      5  C   UNL     1      -1.852  10.097  17.069  0.00  0.00    +0.000 C 
ATOM      6  C   UNL     1      -0.949  10.115  18.310  0.00  0.00    +0.000 C 
ATOM      7  C   UNL     1      -1.325  10.542  19.526  0.00  0.00    +0.000 C 
ATOM      8  C   UNL     1      -0.295  11.376  20.167  0.00  0.00    +0.000 C 
ATOM      9  O   UNL     1       0.876  10.843  19.525  0.00  0.00    +0.000 OA
ATOM     10  C   UNL     1       0.511  10.099  18.418  0.00  0.00    +0.000 C 
ATOM     11  O   UNL     1       1.262   9.442  17.714  0.00  0.00    +0.000 OA
ATOM     12  C   UNL     1      -0.674  12.908  19.828  0.00  0.00    +0.000 C 
ATOM     13  C   UNL     1      -0.122  13.262  18.406  0.00  0.00    +0.000 C 
ATOM     14  C   UNL     1       0.090  13.981  20.702  0.00  0.00    +0.000 C 
ATOM     15  C   UNL     1      -2.201  13.185  20.255  0.00  0.00    +0.000 C 
ATOM     16  C   UNL     1      -3.516  12.861  20.109  0.00  0.00    +0.000 C 
ATOM     17  C   UNL     1      -4.816  12.195  19.570  0.00  0.00    +0.000 C 
ATOM     18  O   UNL     1      -5.703  12.047  20.422  0.00  0.00    +0.000 OA
ENDROOT
TORSDOF 0
ENDMDL
MODEL 8
REMARK VINA RESULT:      -5.9      7.172     10.155
REMARK  Name = 
REMARK  3 active torsions:
REMARK  status: ('A' for Active; 'I' for Inactive)
REMARK    1  A    between atoms: C_1  and  C_2
REMARK    2  A    between atoms: C_12  and  C_13
REMARK    3  A    between atoms: C_12  and  C_14
REMARK                            x       y       z     vdW  Elec       q    Type
REMARK                         _______ _______ _______ _____ _____    ______ ____
ROOT
ATOM      1  C   UNL     1      -6.126  11.887  17.873  0.00  0.00    +0.000 C 
ATOM      2  C   UNL     1      -4.705  11.729  18.403  0.00  0.00    +0.000 C 
ATOM      3  C   UNL     1      -4.439  12.208  19.646  0.00  0.00    +0.000 C 
ATOM      4  C   UNL     1      -3.030  12.537  19.897  0.00  0.00    +0.000 C 
ATOM      5  C   UNL     1      -2.068  13.099  20.953  0.00  0.00    +0.000 C 
ATOM      6  C   UNL     1      -0.718  13.074  20.223  0.00  0.00    +0.000 C 
ATOM      7  C   UNL     1      -0.545  12.719  18.940  0.00  0.00    +0.000 C 
ATOM      8  C   UNL     1       0.628  11.850  18.755  0.00  0.00    +0.000 C 
ATOM      9  O   UNL     1       1.424  12.285  19.871  0.00  0.00    +0.000 OA
ATOM     10  C   UNL     1       0.645  13.006  20.756  0.00  0.00    +0.000 C 
ATOM     11  O   UNL     1       1.040  13.588  21.754  0.00  0.00    +0.000 OA
ATOM     12  C   UNL     1       0.083  10.332  18.803  0.00  0.00    +0.000 C 
ATOM     13  C   UNL     1      -0.051   9.889  20.300  0.00  0.00    +0.000 C 
ATOM     14  C   UNL     1       1.108   9.249  18.280  0.00  0.00    +0.000 C 
ATOM     15  C   UNL     1      -1.117  10.165  17.744  0.00  0.00    +0.000 C 
ATOM     16  C   UNL     1      -2.352  10.562  17.328  0.00  0.00    +0.000 C 
ATOM     17  C   UNL     1      -3.731  11.285  17.295  0.00  0.00    +0.000 C 
ATOM     18  O   UNL     1      -4.155  11.519  16.155  0.00  0.00    +0.000 OA
ENDROOT
TORSDOF 0
ENDMDL
MODEL 9
REMARK VINA RESULT:      -5.5      5.052      7.460
REMARK  Name = 
REMARK  3 active torsions:
REMARK  status: ('A' for Active; 'I' for Inactive)
REMARK    1  A    between atoms: C_1  and  C_2
REMARK    2  A    between atoms: C_12  and  C_13
REMARK    3  A    between atoms: C_12  and  C_14
REMARK                            x       y       z     vdW  Elec       q    Type
REMARK                         _______ _______ _______ _____ _____    ______ ____
ROOT
ATOM      1  C   UNL     1       2.653   5.923  19.605  0.00  0.00    +0.000 C 
ATOM      2  C   UNL     1       2.163   7.354  19.793  0.00  0.00    +0.000 C 
ATOM      3  C   UNL     1       1.608   7.678  20.990  0.00  0.00    +0.000 C 
ATOM      4  C   UNL     1       0.688   8.824  20.959  0.00  0.00    +0.000 C 
ATOM      5  C   UNL     1      -0.248   9.672  21.831  0.00  0.00    +0.000 C 
ATOM      6  C   UNL     1      -0.818  10.682  20.825  0.00  0.00    +0.000 C 
ATOM      7  C   UNL     1      -0.568  10.676  19.506  0.00  0.00    +0.000 C 
ATOM      8  C   UNL     1      -0.306  12.027  18.983  0.00  0.00    +0.000 C 
ATOM      9  O   UNL     1      -1.055  12.801  19.936  0.00  0.00    +0.000 OA
ATOM     10  C   UNL     1      -1.362  12.025  21.038  0.00  0.00    +0.000 C 
ATOM     11  O   UNL     1      -2.065  12.358  21.979  0.00  0.00    +0.000 OA
ATOM     12  C   UNL     1       1.297  12.218  18.996  0.00  0.00    +0.000 C 
ATOM     13  C   UNL     1       1.744  12.652  20.433  0.00  0.00    +0.000 C 
ATOM     14  C   UNL     1       1.818  13.450  18.154  0.00  0.00    +0.000 C 
ATOM     15  C   UNL     1       1.984  10.991  18.212  0.00  0.00    +0.000 C 
ATOM     16  C   UNL     1       2.176   9.645  18.119  0.00  0.00    +0.000 C 
ATOM     17  C   UNL     1       2.138   8.127  18.460  0.00  0.00    +0.000 C 
ATOM     18  O   UNL     1       2.122   7.383  17.470  0.00  0.00    +0.000 OA
ENDROOT
TORSDOF 0
ENDMDL
