MODEL 1
REMARK VINA RESULT:      -7.7      0.000      0.000
REMARK  Name = 
REMARK  14 active torsions:
REMARK  status: ('A' for Active; 'I' for Inactive)
REMARK    1  A    between atoms: C_2  and  C_3
REMARK    2  A    between atoms: C_3  and  N_4
REMARK    3  A    between atoms: C_6  and  C_7
REMARK    4  A    between atoms: N_8  and  C_9
REMARK    5  A    between atoms: C_9  and  C_10
REMARK    6  A    between atoms: C_9  and  C_23
REMARK    7  A    between atoms: C_13  and  C_14
REMARK    8  A    between atoms: N_16  and  C_17
REMARK    9  A    between atoms: N_16  and  C_19
REMARK   10  A    between atoms: C_17  and  C_18
REMARK   11  A    between atoms: C_19  and  C_20
REMARK   12  A    between atoms: C_27  and  O_28
REMARK   13  A    between atoms: O_28  and  C_29
REMARK   14  A    between atoms: C_32  and  C_33
REMARK                            x       y       z     vdW  Elec       q    Type
REMARK                         _______ _______ _______ _____ _____    ______ ____
ROOT
ATOM      1  C   UNL     1      -0.049  10.395  20.217  0.00  0.00    +0.000 C 
ENDROOT
BRANCH   1   6
ATOM      2  N   UNL     1       0.809  14.493  19.862  0.00  0.00    +0.000 NA
ATOM      3  C   UNL     1       0.300  14.109  21.182  0.00  0.00    +0.000 C 
ATOM      4  C   UNL     1      -0.298  12.670  21.264  0.00  0.00    +0.000 C 
ATOM      5  C   UNL     1      -0.767  12.523  22.722  0.00  0.00    +0.000 C 
ATOM      6  N   UNL     1       0.640  11.574  20.865  0.00  0.00    +0.000 NA
ATOM      7  C   UNL     1       1.715  12.056  19.958  0.00  0.00    +0.000 C 
ATOM      8  C   UNL     1       1.884  13.551  19.518  0.00  0.00    +0.000 C 
ATOM      9  C   UNL     1       2.376  13.572  18.060  0.00  0.00    +0.000 C 
BRANCH   2  10
ATOM     10  C   UNL     1      -0.244  14.738  18.874  0.00  0.00    +0.000 C 
BRANCH  10  12
ATOM     11  C   UNL     1      -0.507  17.116  17.957  0.00  0.00    +0.000 C 
ATOM     12  C   UNL     1      -0.706  16.180  18.911  0.00  0.00    +0.000 C 
ENDBRANCH  10  12
ENDBRANCH   2  10
ENDBRANCH   1   6
BRANCH   1  13
ATOM     13  C   UNL     1       0.872   9.367  19.559  0.00  0.00    +0.000 A 
ATOM     14  C   UNL     1       1.263   9.419  18.214  0.00  0.00    +0.000 A 
ATOM     15  C   UNL     1       2.189   8.494  17.708  0.00  0.00    +0.000 A 
ATOM     16  C   UNL     1       2.725   7.463  18.507  0.00  0.00    +0.000 A 
ATOM     17  C   UNL     1       2.210   7.345  19.794  0.00  0.00    +0.000 A 
ATOM     18  C   UNL     1       1.337   8.300  20.328  0.00  0.00    +0.000 A 
BRANCH  16  19
ATOM     19  C   UNL     1       3.836   6.636  17.909  0.00  0.00    +0.000 C 
ATOM     20  O   UNL     1       4.778   7.285  17.434  0.00  0.00    +0.000 OA
ATOM     21  N   UNL     1       3.894   5.220  17.912  0.00  0.00    +0.000 N 
BRANCH  21  22
ATOM     22  C   UNL     1       2.868   4.319  18.446  0.00  0.00    +0.000 C 
ATOM     23  C   UNL     1       1.544   4.168  17.707  0.00  0.00    +0.000 C 
ENDBRANCH  21  22
BRANCH  21  24
ATOM     24  C   UNL     1       5.156   4.637  17.434  0.00  0.00    +0.000 C 
ATOM     25  C   UNL     1       5.066   4.144  15.997  0.00  0.00    +0.000 C 
ENDBRANCH  21  24
ENDBRANCH  16  19
ENDBRANCH   1  13
BRANCH   1  26
ATOM     26  C   UNL     1      -1.216  10.740  19.258  0.00  0.00    +0.000 A 
ATOM     27  C   UNL     1      -2.115  11.769  19.606  0.00  0.00    +0.000 A 
ATOM     28  C   UNL     1      -3.166  12.122  18.760  0.00  0.00    +0.000 A 
ATOM     29  C   UNL     1      -3.360  11.430  17.569  0.00  0.00    +0.000 A 
ATOM     30  C   UNL     1      -2.499  10.393  17.207  0.00  0.00    +0.000 A 
ATOM     31  C   UNL     1      -1.420  10.069  18.037  0.00  0.00    +0.000 A 
BRANCH  30  32
ATOM     32  O   UNL     1      -2.815   9.783  16.023  0.00  0.00    +0.000 OA
ATOM     33  C   UNL     1      -3.159  10.632  14.936  0.00  0.00    +0.000 C 
ENDBRANCH  30  32
ENDBRANCH   1  26
TORSDOF 9
ENDMDL
MODEL 2
REMARK VINA RESULT:      -7.7      2.183      9.461
REMARK  Name = 
REMARK  14 active torsions:
REMARK  status: ('A' for Active; 'I' for Inactive)
REMARK    1  A    between atoms: C_2  and  C_3
REMARK    2  A    between atoms: C_3  and  N_4
REMARK    3  A    between atoms: C_6  and  C_7
REMARK    4  A    between atoms: N_8  and  C_9
REMARK    5  A    between atoms: C_9  and  C_10
REMARK    6  A    between atoms: C_9  and  C_23
REMARK    7  A    between atoms: C_13  and  C_14
REMARK    8  A    between atoms: N_16  and  C_17
REMARK    9  A    between atoms: N_16  and  C_19
REMARK   10  A    between atoms: C_17  and  C_18
REMARK   11  A    between atoms: C_19  and  C_20
REMARK   12  A    between atoms: C_27  and  O_28
REMARK   13  A    between atoms: O_28  and  C_29
REMARK   14  A    between atoms: C_32  and  C_33
REMARK                            x       y       z     vdW  Elec       q    Type
REMARK                         _______ _______ _______ _____ _____    ______ ____
ROOT
ATOM      1  C   UNL     1       2.980   5.888  19.527  0.00  0.00    +0.000 C 
ENDROOT
BRANCH   1   6
ATOM      2  N   UNL     1       2.652   1.805  18.592  0.00  0.00    +0.000 NA
ATOM      3  C   UNL     1       2.007   2.175  19.856  0.00  0.00    +0.000 C 
ATOM      4  C   UNL     1       2.352   3.605  20.377  0.00  0.00    +0.000 C 
ATOM      5  C   UNL     1       1.576   3.737  21.699  0.00  0.00    +0.000 C 
ATOM      6  N   UNL     1       2.032   4.716  19.427  0.00  0.00    +0.000 NA
ATOM      7  C   UNL     1       1.991   4.254  18.014  0.00  0.00    +0.000 C 
ATOM      8  C   UNL     1       2.199   2.765  17.573  0.00  0.00    +0.000 C 
ATOM      9  C   UNL     1       2.959   2.758  16.236  0.00  0.00    +0.000 C 
BRANCH   2  10
ATOM     10  C   UNL     1       4.088   1.550  18.717  0.00  0.00    +0.000 C 
BRANCH  10  12
ATOM     11  C   UNL     1       5.270   1.217  20.965  0.00  0.00    +0.000 C 
ATOM     12  C   UNL     1       4.606   1.983  20.072  0.00  0.00    +0.000 C 
ENDBRANCH  10  12
ENDBRANCH   2  10
ENDBRANCH   1   6
BRANCH   1  13
ATOM     13  C   UNL     1       2.359   7.266  19.297  0.00  0.00    +0.000 A 
ATOM     14  C   UNL     1       2.441   7.966  18.086  0.00  0.00    +0.000 A 
ATOM     15  C   UNL     1       1.762   9.184  17.922  0.00  0.00    +0.000 A 
ATOM     16  C   UNL     1       1.014   9.766  18.967  0.00  0.00    +0.000 A 
ATOM     17  C   UNL     1       1.069   9.125  20.200  0.00  0.00    +0.000 A 
ATOM     18  C   UNL     1       1.688   7.880  20.356  0.00  0.00    +0.000 A 
BRANCH  16  19
ATOM     19  C   UNL     1       0.188  10.981  18.626  0.00  0.00    +0.000 C 
ATOM     20  O   UNL     1      -0.959  10.743  18.224  0.00  0.00    +0.000 OA
ATOM     21  N   UNL     1       0.607  12.326  18.788  0.00  0.00    +0.000 N 
BRANCH  21  22
ATOM     22  C   UNL     1       1.923  12.764  19.263  0.00  0.00    +0.000 C 
ATOM     23  C   UNL     1       2.876  13.459  18.297  0.00  0.00    +0.000 C 
ENDBRANCH  21  22
BRANCH  21  24
ATOM     24  C   UNL     1      -0.429  13.344  18.561  0.00  0.00    +0.000 C 
ATOM     25  C   UNL     1      -0.942  13.956  19.856  0.00  0.00    +0.000 C 
ENDBRANCH  21  24
ENDBRANCH  16  19
ENDBRANCH   1  13
BRANCH   1  26
ATOM     26  C   UNL     1       4.293   5.766  18.713  0.00  0.00    +0.000 A 
ATOM     27  C   UNL     1       5.494   5.455  19.383  0.00  0.00    +0.000 A 
ATOM     28  C   UNL     1       6.693   5.317  18.682  0.00  0.00    +0.000 A 
ATOM     29  C   UNL     1       6.719   5.521  17.306  0.00  0.00    +0.000 A 
ATOM     30  C   UNL     1       5.550   5.849  16.618  0.00  0.00    +0.000 A 
ATOM     31  C   UNL     1       4.341   5.945  17.317  0.00  0.00    +0.000 A 
BRANCH  30  32
ATOM     32  O   UNL     1       5.720   6.043  15.275  0.00  0.00    +0.000 OA
ATOM     33  C   UNL     1       6.373   5.005  14.555  0.00  0.00    +0.000 C 
ENDBRANCH  30  32
ENDBRANCH   1  26
TORSDOF 9
ENDMDL
MODEL 3
REMARK VINA RESULT:      -7.7      0.710      1.205
REMARK  Name = 
REMARK  14 active torsions:
REMARK  status: ('A' for Active; 'I' for Inactive)
REMARK    1  A    between atoms: C_2  and  C_3
REMARK    2  A    between atoms: C_3  and  N_4
REMARK    3  A    between atoms: C_6  and  C_7
REMARK    4  A    between atoms: N_8  and  C_9
REMARK    5  A    between atoms: C_9  and  C_10
REMARK    6  A    between atoms: C_9  and  C_23
REMARK    7  A    between atoms: C_13  and  C_14
REMARK    8  A    between atoms: N_16  and  C_17
REMARK    9  A    between atoms: N_16  and  C_19
REMARK   10  A    between atoms: C_17  and  C_18
REMARK   11  A    between atoms: C_19  and  C_20
REMARK   12  A    between atoms: C_27  and  O_28
REMARK   13  A    between atoms: O_28  and  C_29
REMARK   14  A    between atoms: C_32  and  C_33
REMARK                            x       y       z     vdW  Elec       q    Type
REMARK                         _______ _______ _______ _____ _____    ______ ____
ROOT
ATOM      1  C   UNL     1      -0.017  10.276  20.262  0.00  0.00    +0.000 C 
ENDROOT
BRANCH   1   6
ATOM      2  N   UNL     1       0.826  14.379  19.926  0.00  0.00    +0.000 NA
ATOM      3  C   UNL     1       0.261  13.997  21.224  0.00  0.00    +0.000 C 
ATOM      4  C   UNL     1      -0.330  12.554  21.285  0.00  0.00    +0.000 C 
ATOM      5  C   UNL     1      -0.862  12.410  22.722  0.00  0.00    +0.000 C 
ATOM      6  N   UNL     1       0.634  11.463  20.934  0.00  0.00    +0.000 NA
ATOM      7  C   UNL     1       1.745  11.950  20.074  0.00  0.00    +0.000 C 
ATOM      8  C   UNL     1       1.923  13.444  19.634  0.00  0.00    +0.000 C 
ATOM      9  C   UNL     1       2.479  13.462  18.200  0.00  0.00    +0.000 C 
BRANCH   2  10
ATOM     10  C   UNL     1      -0.183  14.612  18.890  0.00  0.00    +0.000 C 
BRANCH  10  12
ATOM     11  C   UNL     1      -1.157  16.967  19.158  0.00  0.00    +0.000 C 
ATOM     12  C   UNL     1      -0.314  16.087  18.574  0.00  0.00    +0.000 C 
ENDBRANCH  10  12
ENDBRANCH   2  10
ENDBRANCH   1   6
BRANCH   1  13
ATOM     13  C   UNL     1       0.940   9.214  19.720  0.00  0.00    +0.000 A 
ATOM     14  C   UNL     1       1.437   8.150  20.485  0.00  0.00    +0.000 A 
ATOM     15  C   UNL     1       2.235   7.160  19.889  0.00  0.00    +0.000 A 
ATOM     16  C   UNL     1       2.599   7.216  18.528  0.00  0.00    +0.000 A 
ATOM     17  C   UNL     1       2.216   8.356  17.831  0.00  0.00    +0.000 A 
ATOM     18  C   UNL     1       1.367   9.315  18.396  0.00  0.00    +0.000 A 
BRANCH  16  19
ATOM     19  C   UNL     1       3.311   6.015  17.957  0.00  0.00    +0.000 C 
ATOM     20  O   UNL     1       4.493   6.205  17.640  0.00  0.00    +0.000 OA
ATOM     21  N   UNL     1       2.751   4.720  17.823  0.00  0.00    +0.000 N 
BRANCH  21  22
ATOM     22  C   UNL     1       1.378   4.338  18.166  0.00  0.00    +0.000 C 
ATOM     23  C   UNL     1       1.096   3.677  19.510  0.00  0.00    +0.000 C 
ENDBRANCH  21  22
BRANCH  21  24
ATOM     24  C   UNL     1       3.687   3.665  17.409  0.00  0.00    +0.000 C 
ATOM     25  C   UNL     1       4.327   2.952  18.592  0.00  0.00    +0.000 C 
ENDBRANCH  21  24
ENDBRANCH  16  19
ENDBRANCH   1  13
BRANCH   1  26
ATOM     26  C   UNL     1      -1.086  10.610  19.191  0.00  0.00    +0.000 A 
ATOM     27  C   UNL     1      -2.069  11.580  19.476  0.00  0.00    +0.000 A 
ATOM     28  C   UNL     1      -3.036  11.923  18.531  0.00  0.00    +0.000 A 
ATOM     29  C   UNL     1      -3.060  11.277  17.299  0.00  0.00    +0.000 A 
ATOM     30  C   UNL     1      -2.113  10.298  16.995  0.00  0.00    +0.000 A 
ATOM     31  C   UNL     1      -1.118   9.987  17.929  0.00  0.00    +0.000 A 
BRANCH  30  32
ATOM     32  O   UNL     1      -2.264   9.729  15.760  0.00  0.00    +0.000 OA
ATOM     33  C   UNL     1      -3.146  10.382  14.856  0.00  0.00    +0.000 C 
ENDBRANCH  30  32
ENDBRANCH   1  26
TORSDOF 9
ENDMDL
MODEL 4
REMARK VINA RESULT:      -7.6      2.367      4.479
REMARK  Name = 
REMARK  14 active torsions:
REMARK  status: ('A' for Active; 'I' for Inactive)
REMARK    1  A    between atoms: C_2  and  C_3
REMARK    2  A    between atoms: C_3  and  N_4
REMARK    3  A    between atoms: C_6  and  C_7
REMARK    4  A    between atoms: N_8  and  C_9
REMARK    5  A    between atoms: C_9  and  C_10
REMARK    6  A    between atoms: C_9  and  C_23
REMARK    7  A    between atoms: C_13  and  C_14
REMARK    8  A    between atoms: N_16  and  C_17
REMARK    9  A    between atoms: N_16  and  C_19
REMARK   10  A    between atoms: C_17  and  C_18
REMARK   11  A    between atoms: C_19  and  C_20
REMARK   12  A    between atoms: C_27  and  O_28
REMARK   13  A    between atoms: O_28  and  C_29
REMARK   14  A    between atoms: C_32  and  C_33
REMARK                            x       y       z     vdW  Elec       q    Type
REMARK                         _______ _______ _______ _____ _____    ______ ____
ROOT
ATOM      1  C   UNL     1      -0.028  11.306  19.064  0.00  0.00    +0.000 C 
ENDROOT
BRANCH   1   6
ATOM      2  N   UNL     1      -2.926  13.443  21.231  0.00  0.00    +0.000 NA
ATOM      3  C   UNL     1      -3.484  12.615  20.157  0.00  0.00    +0.000 C 
ATOM      4  C   UNL     1      -2.433  12.041  19.156  0.00  0.00    +0.000 C 
ATOM      5  C   UNL     1      -3.262  11.237  18.138  0.00  0.00    +0.000 C 
ATOM      6  N   UNL     1      -1.356  11.210  19.780  0.00  0.00    +0.000 NA
ATOM      7  C   UNL     1      -1.150  11.543  21.215  0.00  0.00    +0.000 C 
ATOM      8  C   UNL     1      -2.003  12.597  22.001  0.00  0.00    +0.000 C 
ATOM      9  C   UNL     1      -1.080  13.317  22.999  0.00  0.00    +0.000 C 
BRANCH   2  10
ATOM     10  C   UNL     1      -2.454  14.754  20.778  0.00  0.00    +0.000 C 
BRANCH  10  12
ATOM     11  C   UNL     1      -3.827  16.380  22.205  0.00  0.00    +0.000 C 
ATOM     12  C   UNL     1      -3.497  15.825  21.018  0.00  0.00    +0.000 C 
ENDBRANCH  10  12
ENDBRANCH   2  10
ENDBRANCH   1   6
BRANCH   1  13
ATOM     13  C   UNL     1       0.833  10.043  19.091  0.00  0.00    +0.000 A 
ATOM     14  C   UNL     1       0.991   9.232  20.222  0.00  0.00    +0.000 A 
ATOM     15  C   UNL     1       1.721   8.035  20.142  0.00  0.00    +0.000 A 
ATOM     16  C   UNL     1       2.351   7.627  18.948  0.00  0.00    +0.000 A 
ATOM     17  C   UNL     1       2.301   8.520  17.884  0.00  0.00    +0.000 A 
ATOM     18  C   UNL     1       1.523   9.682  17.934  0.00  0.00    +0.000 A 
BRANCH  16  19
ATOM     19  C   UNL     1       2.958   6.246  18.929  0.00  0.00    +0.000 C 
ATOM     20  O   UNL     1       2.359   5.397  19.603  0.00  0.00    +0.000 OA
ATOM     21  N   UNL     1       4.093   5.862  18.170  0.00  0.00    +0.000 N 
BRANCH  21  22
ATOM     22  C   UNL     1       4.895   6.745  17.318  0.00  0.00    +0.000 C 
ATOM     23  C   UNL     1       6.416   6.696  17.409  0.00  0.00    +0.000 C 
ENDBRANCH  21  22
BRANCH  21  24
ATOM     24  C   UNL     1       4.396   4.424  18.168  0.00  0.00    +0.000 C 
ATOM     25  C   UNL     1       3.912   3.725  16.906  0.00  0.00    +0.000 C 
ENDBRANCH  21  24
ENDBRANCH  16  19
ENDBRANCH   1  13
BRANCH   1  26
ATOM     26  C   UNL     1       0.842  12.539  19.419  0.00  0.00    +0.000 A 
ATOM     27  C   UNL     1       0.672  13.736  18.693  0.00  0.00    +0.000 A 
ATOM     28  C   UNL     1       1.422  14.872  18.994  0.00  0.00    +0.000 A 
ATOM     29  C   UNL     1       2.379  14.823  20.003  0.00  0.00    +0.000 A 
ATOM     30  C   UNL     1       2.585  13.647  20.726  0.00  0.00    +0.000 A 
ATOM     31  C   UNL     1       1.801  12.521  20.449  0.00  0.00    +0.000 A 
BRANCH  30  32
ATOM     32  O   UNL     1       3.569  13.729  21.673  0.00  0.00    +0.000 OA
ATOM     33  C   UNL     1       4.641  14.624  21.407  0.00  0.00    +0.000 C 
ENDBRANCH  30  32
ENDBRANCH   1  26
TORSDOF 9
ENDMDL
MODEL 5
REMARK VINA RESULT:      -7.6      2.300      9.394
REMARK  Name = 
REMARK  14 active torsions:
REMARK  status: ('A' for Active; 'I' for Inactive)
REMARK    1  A    between atoms: C_2  and  C_3
REMARK    2  A    between atoms: C_3  and  N_4
REMARK    3  A    between atoms: C_6  and  C_7
REMARK    4  A    between atoms: N_8  and  C_9
REMARK    5  A    between atoms: C_9  and  C_10
REMARK    6  A    between atoms: C_9  and  C_23
REMARK    7  A    between atoms: C_13  and  C_14
REMARK    8  A    between atoms: N_16  and  C_17
REMARK    9  A    between atoms: N_16  and  C_19
REMARK   10  A    between atoms: C_17  and  C_18
REMARK   11  A    between atoms: C_19  and  C_20
REMARK   12  A    between atoms: C_27  and  O_28
REMARK   13  A    between atoms: O_28  and  C_29
REMARK   14  A    between atoms: C_32  and  C_33
REMARK                            x       y       z     vdW  Elec       q    Type
REMARK                         _______ _______ _______ _____ _____    ______ ____
ROOT
ATOM      1  C   UNL     1       2.907   5.800  19.541  0.00  0.00    +0.000 C 
ENDROOT
BRANCH   1   6
ATOM      2  N   UNL     1       2.611   1.738  18.506  0.00  0.00    +0.000 NA
ATOM      3  C   UNL     1       1.916   2.083  19.751  0.00  0.00    +0.000 C 
ATOM      4  C   UNL     1       2.241   3.500  20.315  0.00  0.00    +0.000 C 
ATOM      5  C   UNL     1       1.412   3.606  21.608  0.00  0.00    +0.000 C 
ATOM      6  N   UNL     1       1.962   4.632  19.377  0.00  0.00    +0.000 NA
ATOM      7  C   UNL     1       1.978   4.200  17.954  0.00  0.00    +0.000 C 
ATOM      8  C   UNL     1       2.201   2.720  17.491  0.00  0.00    +0.000 C 
ATOM      9  C   UNL     1       3.016   2.740  16.186  0.00  0.00    +0.000 C 
BRANCH   2  10
ATOM     10  C   UNL     1       4.041   1.477  18.684  0.00  0.00    +0.000 C 
BRANCH  10  12
ATOM     11  C   UNL     1       5.247   1.293  20.937  0.00  0.00    +0.000 C 
ATOM     12  C   UNL     1       4.528   1.984  20.025  0.00  0.00    +0.000 C 
ENDBRANCH  10  12
ENDBRANCH   2  10
ENDBRANCH   1   6
BRANCH   1  13
ATOM     13  C   UNL     1       2.290   7.185  19.349  0.00  0.00    +0.000 A 
ATOM     14  C   UNL     1       1.636   7.895  20.364  0.00  0.00    +0.000 A 
ATOM     15  C   UNL     1       1.180   9.204  20.136  0.00  0.00    +0.000 A 
ATOM     16  C   UNL     1       1.321   9.833  18.882  0.00  0.00    +0.000 A 
ATOM     17  C   UNL     1       1.840   9.055  17.853  0.00  0.00    +0.000 A 
ATOM     18  C   UNL     1       2.356   7.775  18.086  0.00  0.00    +0.000 A 
BRANCH  16  19
ATOM     19  C   UNL     1       0.953  11.293  18.801  0.00  0.00    +0.000 C 
ATOM     20  O   UNL     1       1.911  12.077  18.752  0.00  0.00    +0.000 OA
ATOM     21  N   UNL     1      -0.369  11.800  18.719  0.00  0.00    +0.000 N 
BRANCH  21  22
ATOM     22  C   UNL     1      -1.598  11.002  18.751  0.00  0.00    +0.000 C 
ATOM     23  C   UNL     1      -2.000  10.194  17.524  0.00  0.00    +0.000 C 
ENDBRANCH  21  22
BRANCH  21  24
ATOM     24  C   UNL     1      -0.479  13.244  18.467  0.00  0.00    +0.000 C 
ATOM     25  C   UNL     1      -0.941  14.019  19.692  0.00  0.00    +0.000 C 
ENDBRANCH  21  24
ENDBRANCH  16  19
ENDBRANCH   1  13
BRANCH   1  26
ATOM     26  C   UNL     1       4.237   5.707  18.750  0.00  0.00    +0.000 A 
ATOM     27  C   UNL     1       5.426   5.385  19.436  0.00  0.00    +0.000 A 
ATOM     28  C   UNL     1       6.640   5.273  18.757  0.00  0.00    +0.000 A 
ATOM     29  C   UNL     1       6.692   5.515  17.388  0.00  0.00    +0.000 A 
ATOM     30  C   UNL     1       5.536   5.856  16.685  0.00  0.00    +0.000 A 
ATOM     31  C   UNL     1       4.312   5.926  17.362  0.00  0.00    +0.000 A 
BRANCH  30  32
ATOM     32  O   UNL     1       5.732   6.088  15.351  0.00  0.00    +0.000 OA
ATOM     33  C   UNL     1       6.179   4.989  14.568  0.00  0.00    +0.000 C 
ENDBRANCH  30  32
ENDBRANCH   1  26
TORSDOF 9
ENDMDL
MODEL 6
REMARK VINA RESULT:      -7.6      2.534      7.152
REMARK  Name = 
REMARK  14 active torsions:
REMARK  status: ('A' for Active; 'I' for Inactive)
REMARK    1  A    between atoms: C_2  and  C_3
REMARK    2  A    between atoms: C_3  and  N_4
REMARK    3  A    between atoms: C_6  and  C_7
REMARK    4  A    between atoms: N_8  and  C_9
REMARK    5  A    between atoms: C_9  and  C_10
REMARK    6  A    between atoms: C_9  and  C_23
REMARK    7  A    between atoms: C_13  and  C_14
REMARK    8  A    between atoms: N_16  and  C_17
REMARK    9  A    between atoms: N_16  and  C_19
REMARK   10  A    between atoms: C_17  and  C_18
REMARK   11  A    between atoms: C_19  and  C_20
REMARK   12  A    between atoms: C_27  and  O_28
REMARK   13  A    between atoms: O_28  and  C_29
REMARK   14  A    between atoms: C_32  and  C_33
REMARK                            x       y       z     vdW  Elec       q    Type
REMARK                         _______ _______ _______ _____ _____    ______ ____
ROOT
ATOM      1  C   UNL     1       0.932  10.565  19.696  0.00  0.00    +0.000 C 
ENDROOT
BRANCH   1   6
ATOM      2  N   UNL     1      -0.960  13.007  22.545  0.00  0.00    +0.000 NA
ATOM      3  C   UNL     1      -0.807  11.611  22.971  0.00  0.00    +0.000 C 
ATOM      4  C   UNL     1      -0.380  10.622  21.842  0.00  0.00    +0.000 C 
ATOM      5  C   UNL     1      -0.306   9.249  22.534  0.00  0.00    +0.000 C 
ATOM      6  N   UNL     1       0.902  10.970  21.152  0.00  0.00    +0.000 NA
ATOM      7  C   UNL     1       1.219  12.419  21.252  0.00  0.00    +0.000 C 
ATOM      8  C   UNL     1       0.347  13.455  22.040  0.00  0.00    +0.000 C 
ATOM      9  C   UNL     1       0.367  14.787  21.272  0.00  0.00    +0.000 C 
BRANCH   2  10
ATOM     10  C   UNL     1      -2.144  13.242  21.716  0.00  0.00    +0.000 C 
BRANCH  10  12
ATOM     11  C   UNL     1      -4.145  13.843  23.199  0.00  0.00    +0.000 C 
ATOM     12  C   UNL     1      -3.417  12.956  22.484  0.00  0.00    +0.000 C 
ENDBRANCH  10  12
ENDBRANCH   2  10
ENDBRANCH   1   6
BRANCH   1  13
ATOM     13  C   UNL     1      -0.375  10.759  18.926  0.00  0.00    +0.000 A 
ATOM     14  C   UNL     1      -1.286   9.727  18.665  0.00  0.00    +0.000 A 
ATOM     15  C   UNL     1      -2.511  10.004  18.036  0.00  0.00    +0.000 A 
ATOM     16  C   UNL     1      -2.852  11.304  17.610  0.00  0.00    +0.000 A 
ATOM     17  C   UNL     1      -1.871  12.279  17.750  0.00  0.00    +0.000 A 
ATOM     18  C   UNL     1      -0.675  12.029  18.433  0.00  0.00    +0.000 A 
BRANCH  16  19
ATOM     19  C   UNL     1      -4.258  11.515  17.106  0.00  0.00    +0.000 C 
ATOM     20  O   UNL     1      -4.464  11.133  15.946  0.00  0.00    +0.000 OA
ATOM     21  N   UNL     1      -5.329  12.046  17.867  0.00  0.00    +0.000 N 
BRANCH  21  22
ATOM     22  C   UNL     1      -5.244  12.527  19.250  0.00  0.00    +0.000 C 
ATOM     23  C   UNL     1      -6.203  11.973  20.297  0.00  0.00    +0.000 C 
ENDBRANCH  21  22
BRANCH  21  24
ATOM     24  C   UNL     1      -6.650  11.992  17.226  0.00  0.00    +0.000 C 
ATOM     25  C   UNL     1      -7.206  13.373  16.913  0.00  0.00    +0.000 C 
ENDBRANCH  21  24
ENDBRANCH  16  19
ENDBRANCH   1  13
BRANCH   1  26
ATOM     26  C   UNL     1       1.508   9.157  19.399  0.00  0.00    +0.000 A 
ATOM     27  C   UNL     1       2.064   8.893  18.130  0.00  0.00    +0.000 A 
ATOM     28  C   UNL     1       2.610   7.644  17.831  0.00  0.00    +0.000 A 
ATOM     29  C   UNL     1       2.579   6.629  18.781  0.00  0.00    +0.000 A 
ATOM     30  C   UNL     1       2.018   6.854  20.039  0.00  0.00    +0.000 A 
ATOM     31  C   UNL     1       1.509   8.120  20.351  0.00  0.00    +0.000 A 
BRANCH  30  32
ATOM     32  O   UNL     1       2.034   5.767  20.868  0.00  0.00    +0.000 OA
ATOM     33  C   UNL     1       1.381   4.593  20.401  0.00  0.00    +0.000 C 
ENDBRANCH  30  32
ENDBRANCH   1  26
TORSDOF 9
ENDMDL
MODEL 7
REMARK VINA RESULT:      -7.5      2.371      4.261
REMARK  Name = 
REMARK  14 active torsions:
REMARK  status: ('A' for Active; 'I' for Inactive)
REMARK    1  A    between atoms: C_2  and  C_3
REMARK    2  A    between atoms: C_3  and  N_4
REMARK    3  A    between atoms: C_6  and  C_7
REMARK    4  A    between atoms: N_8  and  C_9
REMARK    5  A    between atoms: C_9  and  C_10
REMARK    6  A    between atoms: C_9  and  C_23
REMARK    7  A    between atoms: C_13  and  C_14
REMARK    8  A    between atoms: N_16  and  C_17
REMARK    9  A    between atoms: N_16  and  C_19
REMARK   10  A    between atoms: C_17  and  C_18
REMARK   11  A    between atoms: C_19  and  C_20
REMARK   12  A    between atoms: C_27  and  O_28
REMARK   13  A    between atoms: O_28  and  C_29
REMARK   14  A    between atoms: C_32  and  C_33
REMARK                            x       y       z     vdW  Elec       q    Type
REMARK                         _______ _______ _______ _____ _____    ______ ____
ROOT
ATOM      1  C   UNL     1      -0.159  11.384  19.057  0.00  0.00    +0.000 C 
ENDROOT
BRANCH   1   6
ATOM      2  N   UNL     1      -2.969  13.556  21.304  0.00  0.00    +0.000 NA
ATOM      3  C   UNL     1      -3.568  12.722  20.256  0.00  0.00    +0.000 C 
ATOM      4  C   UNL     1      -2.555  12.134  19.224  0.00  0.00    +0.000 C 
ATOM      5  C   UNL     1      -3.423  11.326  18.243  0.00  0.00    +0.000 C 
ATOM      6  N   UNL     1      -1.461  11.302  19.819  0.00  0.00    +0.000 NA
ATOM      7  C   UNL     1      -1.205  11.645  21.243  0.00  0.00    +0.000 C 
ATOM      8  C   UNL     1      -2.024  12.710  22.049  0.00  0.00    +0.000 C 
ATOM      9  C   UNL     1      -1.064  13.433  23.008  0.00  0.00    +0.000 C 
BRANCH   2  10
ATOM     10  C   UNL     1      -2.506  14.860  20.824  0.00  0.00    +0.000 C 
BRANCH  10  12
ATOM     11  C   UNL     1      -4.253  16.348  21.963  0.00  0.00    +0.000 C 
ATOM     12  C   UNL     1      -3.619  15.885  20.862  0.00  0.00    +0.000 C 
ENDBRANCH  10  12
ENDBRANCH   2  10
ENDBRANCH   1   6
BRANCH   1  13
ATOM     13  C   UNL     1       0.720  10.134  19.107  0.00  0.00    +0.000 A 
ATOM     14  C   UNL     1       0.876   9.337  20.249  0.00  0.00    +0.000 A 
ATOM     15  C   UNL     1       1.623   8.149  20.189  0.00  0.00    +0.000 A 
ATOM     16  C   UNL     1       2.273   7.737  19.007  0.00  0.00    +0.000 A 
ATOM     17  C   UNL     1       2.223   8.619  17.933  0.00  0.00    +0.000 A 
ATOM     18  C   UNL     1       1.428   9.771  17.962  0.00  0.00    +0.000 A 
BRANCH  16  19
ATOM     19  C   UNL     1       2.900   6.365  19.010  0.00  0.00    +0.000 C 
ATOM     20  O   UNL     1       2.356   5.539  19.756  0.00  0.00    +0.000 OA
ATOM     21  N   UNL     1       3.991   5.964  18.200  0.00  0.00    +0.000 N 
BRANCH  21  22
ATOM     22  C   UNL     1       4.727   6.819  17.263  0.00  0.00    +0.000 C 
ATOM     23  C   UNL     1       6.243   6.698  17.169  0.00  0.00    +0.000 C 
ENDBRANCH  21  22
BRANCH  21  24
ATOM     24  C   UNL     1       4.317   4.531  18.241  0.00  0.00    +0.000 C 
ATOM     25  C   UNL     1       3.800   3.778  17.024  0.00  0.00    +0.000 C 
ENDBRANCH  21  24
ENDBRANCH  16  19
ENDBRANCH   1  13
BRANCH   1  26
ATOM     26  C   UNL     1       0.706  12.641  19.333  0.00  0.00    +0.000 A 
ATOM     27  C   UNL     1       1.779  12.553  20.244  0.00  0.00    +0.000 A 
ATOM     28  C   UNL     1       2.591  13.656  20.505  0.00  0.00    +0.000 A 
ATOM     29  C   UNL     1       2.325  14.875  19.888  0.00  0.00    +0.000 A 
ATOM     30  C   UNL     1       1.258  14.998  18.997  0.00  0.00    +0.000 A 
ATOM     31  C   UNL     1       0.470  13.878  18.705  0.00  0.00    +0.000 A 
BRANCH  30  32
ATOM     32  O   UNL     1       1.096  16.253  18.479  0.00  0.00    +0.000 OA
ATOM     33  C   UNL     1       2.273  16.930  18.058  0.00  0.00    +0.000 C 
ENDBRANCH  30  32
ENDBRANCH   1  26
TORSDOF 9
ENDMDL
MODEL 8
REMARK VINA RESULT:      -7.5      2.475      9.351
REMARK  Name = 
REMARK  14 active torsions:
REMARK  status: ('A' for Active; 'I' for Inactive)
REMARK    1  A    between atoms: C_2  and  C_3
REMARK    2  A    between atoms: C_3  and  N_4
REMARK    3  A    between atoms: C_6  and  C_7
REMARK    4  A    between atoms: N_8  and  C_9
REMARK    5  A    between atoms: C_9  and  C_10
REMARK    6  A    between atoms: C_9  and  C_23
REMARK    7  A    between atoms: C_13  and  C_14
REMARK    8  A    between atoms: N_16  and  C_17
REMARK    9  A    between atoms: N_16  and  C_19
REMARK   10  A    between atoms: C_17  and  C_18
REMARK   11  A    between atoms: C_19  and  C_20
REMARK   12  A    between atoms: C_27  and  O_28
REMARK   13  A    between atoms: O_28  and  C_29
REMARK   14  A    between atoms: C_32  and  C_33
REMARK                            x       y       z     vdW  Elec       q    Type
REMARK                         _______ _______ _______ _____ _____    ______ ____
ROOT
ATOM      1  C   UNL     1       2.917   5.728  19.663  0.00  0.00    +0.000 C 
ENDROOT
BRANCH   1   6
ATOM      2  N   UNL     1       2.616   1.730  18.404  0.00  0.00    +0.000 NA
ATOM      3  C   UNL     1       1.885   2.016  19.644  0.00  0.00    +0.000 C 
ATOM      4  C   UNL     1       2.206   3.398  20.293  0.00  0.00    +0.000 C 
ATOM      5  C   UNL     1       1.337   3.444  21.563  0.00  0.00    +0.000 C 
ATOM      6  N   UNL     1       1.966   4.581  19.408  0.00  0.00    +0.000 NA
ATOM      7  C   UNL     1       2.023   4.225  17.965  0.00  0.00    +0.000 C 
ATOM      8  C   UNL     1       2.247   2.769  17.431  0.00  0.00    +0.000 C 
ATOM      9  C   UNL     1       3.103   2.849  16.155  0.00  0.00    +0.000 C 
BRANCH   2  10
ATOM     10  C   UNL     1       4.037   1.444  18.612  0.00  0.00    +0.000 C 
BRANCH  10  12
ATOM     11  C   UNL     1       5.227   1.310  20.878  0.00  0.00    +0.000 C 
ATOM     12  C   UNL     1       4.515   1.981  19.945  0.00  0.00    +0.000 C 
ENDBRANCH  10  12
ENDBRANCH   2  10
ENDBRANCH   1   6
BRANCH   1  13
ATOM     13  C   UNL     1       2.296   7.125  19.625  0.00  0.00    +0.000 A 
ATOM     14  C   UNL     1       2.332   7.964  18.504  0.00  0.00    +0.000 A 
ATOM     15  C   UNL     1       1.655   9.195  18.515  0.00  0.00    +0.000 A 
ATOM     16  C   UNL     1       0.956   9.648  19.653  0.00  0.00    +0.000 A 
ATOM     17  C   UNL     1       1.059   8.865  20.797  0.00  0.00    +0.000 A 
ATOM     18  C   UNL     1       1.675   7.609  20.777  0.00  0.00    +0.000 A 
BRANCH  16  19
ATOM     19  C   UNL     1       0.125  10.898  19.495  0.00  0.00    +0.000 C 
ATOM     20  O   UNL     1       0.611  11.920  19.998  0.00  0.00    +0.000 OA
ATOM     21  N   UNL     1      -1.098  10.982  18.783  0.00  0.00    +0.000 N 
BRANCH  21  22
ATOM     22  C   UNL     1      -1.788   9.868  18.126  0.00  0.00    +0.000 C 
ATOM     23  C   UNL     1      -2.554  10.117  16.832  0.00  0.00    +0.000 C 
ENDBRANCH  21  22
BRANCH  21  24
ATOM     24  C   UNL     1      -1.638  12.338  18.610  0.00  0.00    +0.000 C 
ATOM     25  C   UNL     1      -2.721  12.671  19.626  0.00  0.00    +0.000 C 
ENDBRANCH  21  24
ENDBRANCH  16  19
ENDBRANCH   1  13
BRANCH   1  26
ATOM     26  C   UNL     1       4.226   5.716  18.833  0.00  0.00    +0.000 A 
ATOM     27  C   UNL     1       5.447   5.426  19.474  0.00  0.00    +0.000 A 
ATOM     28  C   UNL     1       6.644   5.387  18.759  0.00  0.00    +0.000 A 
ATOM     29  C   UNL     1       6.646   5.672  17.397  0.00  0.00    +0.000 A 
ATOM     30  C   UNL     1       5.456   5.983  16.738  0.00  0.00    +0.000 A 
ATOM     31  C   UNL     1       4.251   5.980  17.450  0.00  0.00    +0.000 A 
BRANCH  30  32
ATOM     32  O   UNL     1       5.603   6.263  15.407  0.00  0.00    +0.000 OA
ATOM     33  C   UNL     1       5.913   5.170  14.552  0.00  0.00    +0.000 C 
ENDBRANCH  30  32
ENDBRANCH   1  26
TORSDOF 9
ENDMDL
MODEL 9
REMARK VINA RESULT:      -7.5      2.365      4.331
REMARK  Name = 
REMARK  14 active torsions:
REMARK  status: ('A' for Active; 'I' for Inactive)
REMARK    1  A    between atoms: C_2  and  C_3
REMARK    2  A    between atoms: C_3  and  N_4
REMARK    3  A    between atoms: C_6  and  C_7
REMARK    4  A    between atoms: N_8  and  C_9
REMARK    5  A    between atoms: C_9  and  C_10
REMARK    6  A    between atoms: C_9  and  C_23
REMARK    7  A    between atoms: C_13  and  C_14
REMARK    8  A    between atoms: N_16  and  C_17
REMARK    9  A    between atoms: N_16  and  C_19
REMARK   10  A    between atoms: C_17  and  C_18
REMARK   11  A    between atoms: C_19  and  C_20
REMARK   12  A    between atoms: C_27  and  O_28
REMARK   13  A    between atoms: O_28  and  C_29
REMARK   14  A    between atoms: C_32  and  C_33
REMARK                            x       y       z     vdW  Elec       q    Type
REMARK                         _______ _______ _______ _____ _____    ______ ____
ROOT
ATOM      1  C   UNL     1      -0.167  11.443  19.081  0.00  0.00    +0.000 C 
ENDROOT
BRANCH   1   6
ATOM      2  N   UNL     1      -2.940  13.656  21.332  0.00  0.00    +0.000 NA
ATOM      3  C   UNL     1      -3.558  12.778  20.332  0.00  0.00    +0.000 C 
ATOM      4  C   UNL     1      -2.568  12.167  19.293  0.00  0.00    +0.000 C 
ATOM      5  C   UNL     1      -3.452  11.314  18.365  0.00  0.00    +0.000 C 
ATOM      6  N   UNL     1      -1.446  11.371  19.883  0.00  0.00    +0.000 NA
ATOM      7  C   UNL     1      -1.153  11.767  21.286  0.00  0.00    +0.000 C 
ATOM      8  C   UNL     1      -1.964  12.849  22.078  0.00  0.00    +0.000 C 
ATOM      9  C   UNL     1      -0.986  13.618  22.983  0.00  0.00    +0.000 C 
BRANCH   2  10
ATOM     10  C   UNL     1      -2.509  14.948  20.793  0.00  0.00    +0.000 C 
BRANCH  10  12
ATOM     11  C   UNL     1      -3.674  16.454  22.508  0.00  0.00    +0.000 C 
ATOM     12  C   UNL     1      -3.433  16.063  21.237  0.00  0.00    +0.000 C 
ENDBRANCH  10  12
ENDBRANCH   2  10
ENDBRANCH   1   6
BRANCH   1  13
ATOM     13  C   UNL     1       0.621  10.137  18.970  0.00  0.00    +0.000 A 
ATOM     14  C   UNL     1       1.151   9.646  17.770  0.00  0.00    +0.000 A 
ATOM     15  C   UNL     1       1.946   8.488  17.765  0.00  0.00    +0.000 A 
ATOM     16  C   UNL     1       2.204   7.759  18.944  0.00  0.00    +0.000 A 
ATOM     17  C   UNL     1       1.547   8.184  20.094  0.00  0.00    +0.000 A 
ATOM     18  C   UNL     1       0.808   9.371  20.122  0.00  0.00    +0.000 A 
BRANCH  16  19
ATOM     19  C   UNL     1       3.207   6.636  18.851  0.00  0.00    +0.000 C 
ATOM     20  O   UNL     1       4.121   6.811  18.033  0.00  0.00    +0.000 OA
ATOM     21  N   UNL     1       3.203   5.466  19.653  0.00  0.00    +0.000 N 
BRANCH  21  22
ATOM     22  C   UNL     1       2.201   5.125  20.668  0.00  0.00    +0.000 C 
ATOM     23  C   UNL     1       1.031   4.223  20.293  0.00  0.00    +0.000 C 
ENDBRANCH  21  22
BRANCH  21  24
ATOM     24  C   UNL     1       4.379   4.596  19.510  0.00  0.00    +0.000 C 
ATOM     25  C   UNL     1       4.098   3.367  18.659  0.00  0.00    +0.000 C 
ENDBRANCH  21  24
ENDBRANCH  16  19
ENDBRANCH   1  13
BRANCH   1  26
ATOM     26  C   UNL     1       0.794  12.602  19.447  0.00  0.00    +0.000 A 
ATOM     27  C   UNL     1       0.714  13.816  18.733  0.00  0.00    +0.000 A 
ATOM     28  C   UNL     1       1.549  14.889  19.045  0.00  0.00    +0.000 A 
ATOM     29  C   UNL     1       2.500  14.757  20.051  0.00  0.00    +0.000 A 
ATOM     30  C   UNL     1       2.617  13.562  20.762  0.00  0.00    +0.000 A 
ATOM     31  C   UNL     1       1.750  12.501  20.475  0.00  0.00    +0.000 A 
BRANCH  30  32
ATOM     32  O   UNL     1       3.606  13.560  21.707  0.00  0.00    +0.000 OA
ATOM     33  C   UNL     1       4.068  14.828  22.154  0.00  0.00    +0.000 C 
ENDBRANCH  30  32
ENDBRANCH   1  26
TORSDOF 9
ENDMDL
