MODEL 1
REMARK VINA RESULT:      -6.5      0.000      0.000
REMARK  Name = 
REMARK  6 active torsions:
REMARK  status: ('A' for Active; 'I' for Inactive)
REMARK    1  A    between atoms: C_1  and  O_2
REMARK    2  A    between atoms: O_2  and  C_3
REMARK    3  A    between atoms: C_6  and  C_7
REMARK    4  A    between atoms: C_8  and  C_9
REMARK    5  A    between atoms: C_9  and  C_11
REMARK    6  A    between atoms: C_16  and  O_17
REMARK                            x       y       z     vdW  Elec       q    Type
REMARK                         _______ _______ _______ _____ _____    ______ ____
ROOT
ATOM      1  C   UNL     1      -0.142  11.096  19.660  0.00  0.00    +0.000 C 
ATOM      2  C   UNL     1      -0.589  11.612  20.989  0.00  0.00    +0.000 C 
ATOM      3  C   UNL     1      -0.355  10.733  21.972  0.00  0.00    +0.000 C 
ATOM      4  C   UNL     1       0.362   9.576  21.380  0.00  0.00    +0.000 C 
ATOM      5  O   UNL     1       0.795   8.657  22.052  0.00  0.00    +0.000 OA
ATOM      6  N   UNL     1       0.458   9.822  20.012  0.00  0.00    +0.000 N 
ATOM      7  C   UNL     1       1.323   9.130  19.180  0.00  0.00    +0.000 A 
ATOM      8  N   UNL     1       1.713   9.563  17.997  0.00  0.00    +0.000 NA
ATOM      9  N   UNL     1       2.626   8.720  17.394  0.00  0.00    +0.000 NA
ATOM     10  C   UNL     1       2.868   7.662  18.137  0.00  0.00    +0.000 A 
ATOM     11  S   UNL     1       2.004   7.618  19.611  0.00  0.00    +0.000 S 
ENDROOT
BRANCH   1  15
ATOM     12  C   UNL     1      -3.109  10.518  16.534  0.00  0.00    +0.000 A 
ATOM     13  C   UNL     1      -3.027   9.646  17.620  0.00  0.00    +0.000 A 
ATOM     14  C   UNL     1      -2.126   9.882  18.661  0.00  0.00    +0.000 A 
ATOM     15  C   UNL     1      -1.272  10.997  18.634  0.00  0.00    +0.000 A 
ATOM     16  C   UNL     1      -1.437  11.919  17.586  0.00  0.00    +0.000 A 
ATOM     17  C   UNL     1      -2.332  11.671  16.535  0.00  0.00    +0.000 A 
BRANCH  12  19
ATOM     18  C   UNL     1      -3.434  10.144  14.205  0.00  0.00    +0.000 C 
ATOM     19  O   UNL     1      -3.942  10.105  15.532  0.00  0.00    +0.000 OA
ENDBRANCH  12  19
ENDBRANCH   1  15
BRANCH   2  20
ATOM     20  C   UNL     1      -1.363  12.852  21.243  0.00  0.00    +0.000 C 
ATOM     21  O   UNL     1      -0.707  13.887  21.400  0.00  0.00    +0.000 OA
BRANCH  20  22
ATOM     22  C   UNL     1      -2.810  12.849  21.374  0.00  0.00    +0.000 A 
ATOM     23  C   UNL     1      -3.724  12.798  20.336  0.00  0.00    +0.000 A 
ATOM     24  C   UNL     1      -5.072  12.798  20.795  0.00  0.00    +0.000 A 
ATOM     25  C   UNL     1      -5.145  12.802  22.169  0.00  0.00    +0.000 A 
ATOM     26  S   UNL     1      -3.598  12.775  22.890  0.00  0.00    +0.000 S 
ENDBRANCH  20  22
ENDBRANCH   2  20
BRANCH   3  27
ATOM     27  O   UNL     1      -0.697  10.818  23.292  0.00  0.00    +0.000 OA
ATOM     28  H   UNL     1       0.026  11.287  23.763  0.00  0.00    +0.000 HD
ENDBRANCH   3  27
TORSDOF 5
ENDMDL
MODEL 2
REMARK VINA RESULT:      -6.2      0.761      1.291
REMARK  Name = 
REMARK  6 active torsions:
REMARK  status: ('A' for Active; 'I' for Inactive)
REMARK    1  A    between atoms: C_1  and  O_2
REMARK    2  A    between atoms: O_2  and  C_3
REMARK    3  A    between atoms: C_6  and  C_7
REMARK    4  A    between atoms: C_8  and  C_9
REMARK    5  A    between atoms: C_9  and  C_11
REMARK    6  A    between atoms: C_16  and  O_17
REMARK                            x       y       z     vdW  Elec       q    Type
REMARK                         _______ _______ _______ _____ _____    ______ ____
ROOT
ATOM      1  C   UNL     1       0.176  10.857  19.594  0.00  0.00    +0.000 C 
ATOM      2  C   UNL     1      -0.201  11.425  20.923  0.00  0.00    +0.000 C 
ATOM      3  C   UNL     1       0.052  10.571  21.922  0.00  0.00    +0.000 C 
ATOM      4  C   UNL     1       0.712   9.377  21.338  0.00  0.00    +0.000 C 
ATOM      5  O   UNL     1       1.149   8.468  22.021  0.00  0.00    +0.000 OA
ATOM      6  N   UNL     1       0.757   9.578  19.960  0.00  0.00    +0.000 N 
ATOM      7  C   UNL     1       1.568   8.838  19.115  0.00  0.00    +0.000 A 
ATOM      8  N   UNL     1       1.919   9.224  17.905  0.00  0.00    +0.000 NA
ATOM      9  N   UNL     1       2.784   8.339  17.291  0.00  0.00    +0.000 NA
ATOM     10  C   UNL     1       3.029   7.298  18.056  0.00  0.00    +0.000 A 
ATOM     11  S   UNL     1       2.227   7.322  19.565  0.00  0.00    +0.000 S 
ENDROOT
BRANCH   1  15
ATOM     12  C   UNL     1      -3.372  10.858  17.078  0.00  0.00    +0.000 A 
ATOM     13  C   UNL     1      -2.405  11.857  16.962  0.00  0.00    +0.000 A 
ATOM     14  C   UNL     1      -1.231  11.808  17.717  0.00  0.00    +0.000 A 
ATOM     15  C   UNL     1      -0.998  10.757  18.619  0.00  0.00    +0.000 A 
ATOM     16  C   UNL     1      -1.932   9.707  18.650  0.00  0.00    +0.000 A 
ATOM     17  C   UNL     1      -3.117   9.767  17.902  0.00  0.00    +0.000 A 
BRANCH  12  19
ATOM     18  C   UNL     1      -5.469  11.979  16.956  0.00  0.00    +0.000 C 
ATOM     19  O   UNL     1      -4.522  11.091  16.378  0.00  0.00    +0.000 OA
ENDBRANCH  12  19
ENDBRANCH   1  15
BRANCH   2  20
ATOM     20  C   UNL     1      -0.931  12.693  21.169  0.00  0.00    +0.000 C 
ATOM     21  O   UNL     1      -0.247  13.721  21.223  0.00  0.00    +0.000 OA
BRANCH  20  22
ATOM     22  C   UNL     1      -2.364  12.729  21.407  0.00  0.00    +0.000 A 
ATOM     23  C   UNL     1      -3.354  12.704  20.440  0.00  0.00    +0.000 A 
ATOM     24  C   UNL     1      -4.664  12.739  20.998  0.00  0.00    +0.000 A 
ATOM     25  C   UNL     1      -4.634  12.741  22.374  0.00  0.00    +0.000 A 
ATOM     26  S   UNL     1      -3.039  12.671  22.977  0.00  0.00    +0.000 S 
ENDBRANCH  20  22
ENDBRANCH   2  20
BRANCH   3  27
ATOM     27  O   UNL     1      -0.232  10.705  23.252  0.00  0.00    +0.000 OA
ATOM     28  H   UNL     1       0.611  10.640  23.750  0.00  0.00    +0.000 HD
ENDBRANCH   3  27
TORSDOF 5
ENDMDL
MODEL 3
REMARK VINA RESULT:      -6.2      5.060      8.940
REMARK  Name = 
REMARK  6 active torsions:
REMARK  status: ('A' for Active; 'I' for Inactive)
REMARK    1  A    between atoms: C_1  and  O_2
REMARK    2  A    between atoms: O_2  and  C_3
REMARK    3  A    between atoms: C_6  and  C_7
REMARK    4  A    between atoms: C_8  and  C_9
REMARK    5  A    between atoms: C_9  and  C_11
REMARK    6  A    between atoms: C_16  and  O_17
REMARK                            x       y       z     vdW  Elec       q    Type
REMARK                         _______ _______ _______ _____ _____    ______ ____
ROOT
ATOM      1  C   UNL     1       3.774   5.250  17.622  0.00  0.00    +0.000 C 
ATOM      2  C   UNL     1       5.258   5.280  17.461  0.00  0.00    +0.000 C 
ATOM      3  C   UNL     1       5.863   4.355  18.217  0.00  0.00    +0.000 C 
ATOM      4  C   UNL     1       4.804   3.559  18.886  0.00  0.00    +0.000 C 
ATOM      5  O   UNL     1       5.049   2.578  19.566  0.00  0.00    +0.000 OA
ATOM      6  N   UNL     1       3.585   4.125  18.520  0.00  0.00    +0.000 N 
ATOM      7  C   UNL     1       2.371   3.479  18.689  0.00  0.00    +0.000 A 
ATOM      8  N   UNL     1       1.269   3.797  18.038  0.00  0.00    +0.000 NA
ATOM      9  N   UNL     1       0.212   2.960  18.339  0.00  0.00    +0.000 NA
ATOM     10  C   UNL     1       0.550   2.058  19.233  0.00  0.00    +0.000 A 
ATOM     11  S   UNL     1       2.170   2.165  19.770  0.00  0.00    +0.000 S 
ENDROOT
BRANCH   1  15
ATOM     12  C   UNL     1       1.717   8.808  19.043  0.00  0.00    +0.000 A 
ATOM     13  C   UNL     1       2.015   7.754  19.907  0.00  0.00    +0.000 A 
ATOM     14  C   UNL     1       2.745   6.649  19.463  0.00  0.00    +0.000 A 
ATOM     15  C   UNL     1       3.189   6.567  18.133  0.00  0.00    +0.000 A 
ATOM     16  C   UNL     1       2.970   7.681  17.303  0.00  0.00    +0.000 A 
ATOM     17  C   UNL     1       2.223   8.781  17.748  0.00  0.00    +0.000 A 
BRANCH  12  19
ATOM     18  C   UNL     1       0.187   9.434  20.757  0.00  0.00    +0.000 C 
ATOM     19  O   UNL     1       0.895   9.765  19.570  0.00  0.00    +0.000 OA
ENDBRANCH  12  19
ENDBRANCH   1  15
BRANCH   2  20
ATOM     20  C   UNL     1       6.049   6.292  16.718  0.00  0.00    +0.000 C 
ATOM     21  O   UNL     1       5.941   6.278  15.487  0.00  0.00    +0.000 OA
BRANCH  20  22
ATOM     22  C   UNL     1       6.957   7.209  17.384  0.00  0.00    +0.000 A 
ATOM     23  C   UNL     1       7.023   8.578  17.192  0.00  0.00    +0.000 A 
ATOM     24  C   UNL     1       8.014   9.197  18.007  0.00  0.00    +0.000 A 
ATOM     25  C   UNL     1       8.642   8.288  18.828  0.00  0.00    +0.000 A 
ATOM     26  S   UNL     1       8.014   6.713  18.634  0.00  0.00    +0.000 S 
ENDBRANCH  20  22
ENDBRANCH   2  20
BRANCH   3  27
ATOM     27  O   UNL     1       7.200   4.138  18.394  0.00  0.00    +0.000 OA
ATOM     28  H   UNL     1       7.613   4.051  17.509  0.00  0.00    +0.000 HD
ENDBRANCH   3  27
TORSDOF 5
ENDMDL
MODEL 4
REMARK VINA RESULT:      -6.1      1.564      2.164
REMARK  Name = 
REMARK  6 active torsions:
REMARK  status: ('A' for Active; 'I' for Inactive)
REMARK    1  A    between atoms: C_1  and  O_2
REMARK    2  A    between atoms: O_2  and  C_3
REMARK    3  A    between atoms: C_6  and  C_7
REMARK    4  A    between atoms: C_8  and  C_9
REMARK    5  A    between atoms: C_9  and  C_11
REMARK    6  A    between atoms: C_16  and  O_17
REMARK                            x       y       z     vdW  Elec       q    Type
REMARK                         _______ _______ _______ _____ _____    ______ ____
ROOT
ATOM      1  C   UNL     1      -0.021  11.053  19.683  0.00  0.00    +0.000 C 
ATOM      2  C   UNL     1      -0.418  11.569  21.027  0.00  0.00    +0.000 C 
ATOM      3  C   UNL     1      -0.168  10.682  21.998  0.00  0.00    +0.000 C 
ATOM      4  C   UNL     1       0.510   9.516  21.379  0.00  0.00    +0.000 C 
ATOM      5  O   UNL     1       0.948   8.586  22.033  0.00  0.00    +0.000 OA
ATOM      6  N   UNL     1       0.568   9.767  20.010  0.00  0.00    +0.000 N 
ATOM      7  C   UNL     1       1.396   9.065  19.148  0.00  0.00    +0.000 A 
ATOM      8  N   UNL     1       1.757   9.498  17.956  0.00  0.00    +0.000 NA
ATOM      9  N   UNL     1       2.637   8.643  17.322  0.00  0.00    +0.000 NA
ATOM     10  C   UNL     1       2.884   7.577  18.051  0.00  0.00    +0.000 A 
ATOM     11  S   UNL     1       2.064   7.540  19.551  0.00  0.00    +0.000 S 
ENDROOT
BRANCH   1  15
ATOM     12  C   UNL     1      -3.084  10.553  16.636  0.00  0.00    +0.000 A 
ATOM     13  C   UNL     1      -2.957   9.645  17.688  0.00  0.00    +0.000 A 
ATOM     14  C   UNL     1      -2.024   9.854  18.706  0.00  0.00    +0.000 A 
ATOM     15  C   UNL     1      -1.182  10.977  18.691  0.00  0.00    +0.000 A 
ATOM     16  C   UNL     1      -1.390  11.934  17.682  0.00  0.00    +0.000 A 
ATOM     17  C   UNL     1      -2.317  11.714  16.653  0.00  0.00    +0.000 A 
BRANCH  12  19
ATOM     18  C   UNL     1      -3.445  10.151  14.317  0.00  0.00    +0.000 C 
ATOM     19  O   UNL     1      -3.945  10.168  15.648  0.00  0.00    +0.000 OA
ENDBRANCH  12  19
ENDBRANCH   1  15
BRANCH   2  20
ATOM     20  C   UNL     1      -1.163  12.820  21.310  0.00  0.00    +0.000 C 
ATOM     21  O   UNL     1      -2.316  12.689  21.735  0.00  0.00    +0.000 OA
BRANCH  20  22
ATOM     22  C   UNL     1      -0.604  14.134  21.039  0.00  0.00    +0.000 A 
ATOM     23  C   UNL     1      -0.605  14.786  19.818  0.00  0.00    +0.000 A 
ATOM     24  C   UNL     1       0.010  16.068  19.883  0.00  0.00    +0.000 A 
ATOM     25  C   UNL     1       0.420  16.375  21.161  0.00  0.00    +0.000 A 
ATOM     26  S   UNL     1       0.034  15.135  22.269  0.00  0.00    +0.000 S 
ENDBRANCH  20  22
ENDBRANCH   2  20
BRANCH   3  27
ATOM     27  O   UNL     1      -0.468  10.766  23.328  0.00  0.00    +0.000 OA
ATOM     28  H   UNL     1       0.173  11.379  23.746  0.00  0.00    +0.000 HD
ENDBRANCH   3  27
TORSDOF 5
ENDMDL
MODEL 5
REMARK VINA RESULT:      -6.0      3.303      6.031
REMARK  Name = 
REMARK  6 active torsions:
REMARK  status: ('A' for Active; 'I' for Inactive)
REMARK    1  A    between atoms: C_1  and  O_2
REMARK    2  A    between atoms: O_2  and  C_3
REMARK    3  A    between atoms: C_6  and  C_7
REMARK    4  A    between atoms: C_8  and  C_9
REMARK    5  A    between atoms: C_9  and  C_11
REMARK    6  A    between atoms: C_16  and  O_17
REMARK                            x       y       z     vdW  Elec       q    Type
REMARK                         _______ _______ _______ _____ _____    ______ ____
ROOT
ATOM      1  C   UNL     1      -2.420  12.368  22.067  0.00  0.00    +0.000 C 
ATOM      2  C   UNL     1      -3.440  12.717  21.034  0.00  0.00    +0.000 C 
ATOM      3  C   UNL     1      -3.069  12.321  19.810  0.00  0.00    +0.000 C 
ATOM      4  C   UNL     1      -1.788  11.584  19.945  0.00  0.00    +0.000 C 
ATOM      5  O   UNL     1      -1.253  11.020  19.007  0.00  0.00    +0.000 OA
ATOM      6  N   UNL     1      -1.431  11.643  21.290  0.00  0.00    +0.000 N 
ATOM      7  C   UNL     1      -0.472  10.817  21.853  0.00  0.00    +0.000 A 
ATOM      8  N   UNL     1      -0.371  10.579  23.146  0.00  0.00    +0.000 NA
ATOM      9  N   UNL     1       0.625   9.671  23.446  0.00  0.00    +0.000 NA
ATOM     10  C   UNL     1       1.261   9.279  22.364  0.00  0.00    +0.000 A 
ATOM     11  S   UNL     1       0.696   9.987  20.914  0.00  0.00    +0.000 S 
ENDROOT
BRANCH   1  15
ATOM     12  C   UNL     1      -1.222  16.025  24.093  0.00  0.00    +0.000 A 
ATOM     13  C   UNL     1      -2.020  15.076  24.731  0.00  0.00    +0.000 A 
ATOM     14  C   UNL     1      -2.335  13.868  24.105  0.00  0.00    +0.000 A 
ATOM     15  C   UNL     1      -1.866  13.583  22.812  0.00  0.00    +0.000 A 
ATOM     16  C   UNL     1      -0.981  14.504  22.223  0.00  0.00    +0.000 A 
ATOM     17  C   UNL     1      -0.678  15.722  22.849  0.00  0.00    +0.000 A 
BRANCH  12  19
ATOM     18  C   UNL     1       0.139  17.447  25.434  0.00  0.00    +0.000 C 
ATOM     19  O   UNL     1      -1.092  17.208  24.764  0.00  0.00    +0.000 OA
ENDBRANCH  12  19
ENDBRANCH   1  15
BRANCH   2  20
ATOM     20  C   UNL     1      -4.651  13.551  21.232  0.00  0.00    +0.000 C 
ATOM     21  O   UNL     1      -4.655  14.654  20.675  0.00  0.00    +0.000 OA
BRANCH  20  22
ATOM     22  C   UNL     1      -5.748  13.135  22.089  0.00  0.00    +0.000 A 
ATOM     23  C   UNL     1      -5.866  13.388  23.445  0.00  0.00    +0.000 A 
ATOM     24  C   UNL     1      -7.066  12.857  23.997  0.00  0.00    +0.000 A 
ATOM     25  C   UNL     1      -7.849  12.256  23.037  0.00  0.00    +0.000 A 
ATOM     26  S   UNL     1      -7.149  12.365  21.484  0.00  0.00    +0.000 S 
ENDBRANCH  20  22
ENDBRANCH   2  20
BRANCH   3  27
ATOM     27  O   UNL     1      -3.699  12.536  18.616  0.00  0.00    +0.000 OA
ATOM     28  H   UNL     1      -4.231  11.739  18.407  0.00  0.00    +0.000 HD
ENDBRANCH   3  27
TORSDOF 5
ENDMDL
MODEL 6
REMARK VINA RESULT:      -6.0      3.422      6.811
REMARK  Name = 
REMARK  6 active torsions:
REMARK  status: ('A' for Active; 'I' for Inactive)
REMARK    1  A    between atoms: C_1  and  O_2
REMARK    2  A    between atoms: O_2  and  C_3
REMARK    3  A    between atoms: C_6  and  C_7
REMARK    4  A    between atoms: C_8  and  C_9
REMARK    5  A    between atoms: C_9  and  C_11
REMARK    6  A    between atoms: C_16  and  O_17
REMARK                            x       y       z     vdW  Elec       q    Type
REMARK                         _______ _______ _______ _____ _____    ______ ____
ROOT
ATOM      1  C   UNL     1      -0.780  13.050  21.067  0.00  0.00    +0.000 C 
ATOM      2  C   UNL     1      -0.727  12.429  19.709  0.00  0.00    +0.000 C 
ATOM      3  C   UNL     1      -0.631  13.349  18.741  0.00  0.00    +0.000 C 
ATOM      4  C   UNL     1      -0.520  14.678  19.393  0.00  0.00    +0.000 C 
ATOM      5  O   UNL     1      -0.321  15.703  18.765  0.00  0.00    +0.000 OA
ATOM      6  N   UNL     1      -0.623  14.461  20.765  0.00  0.00    +0.000 N 
ATOM      7  C   UNL     1      -0.258  15.407  21.708  0.00  0.00    +0.000 A 
ATOM      8  N   UNL     1       0.012  15.127  22.968  0.00  0.00    +0.000 NA
ATOM      9  N   UNL     1       0.414  16.236  23.688  0.00  0.00    +0.000 NA
ATOM     10  C   UNL     1       0.403  17.321  22.946  0.00  0.00    +0.000 A 
ATOM     11  S   UNL     1      -0.097  17.071  21.330  0.00  0.00    +0.000 S 
ENDROOT
BRANCH   1  15
ATOM     12  C   UNL     1      -4.425  12.510  23.377  0.00  0.00    +0.000 A 
ATOM     13  C   UNL     1      -4.468  12.950  22.054  0.00  0.00    +0.000 A 
ATOM     14  C   UNL     1      -3.301  13.045  21.293  0.00  0.00    +0.000 A 
ATOM     15  C   UNL     1      -2.053  12.711  21.843  0.00  0.00    +0.000 A 
ATOM     16  C   UNL     1      -2.038  12.173  23.142  0.00  0.00    +0.000 A 
ATOM     17  C   UNL     1      -3.209  12.093  23.909  0.00  0.00    +0.000 A 
BRANCH  12  19
ATOM     18  C   UNL     1      -6.474  13.670  23.731  0.00  0.00    +0.000 C 
ATOM     19  O   UNL     1      -5.616  12.580  24.043  0.00  0.00    +0.000 OA
ENDBRANCH  12  19
ENDBRANCH   1  15
BRANCH   2  20
ATOM     20  C   UNL     1      -0.931  10.996  19.382  0.00  0.00    +0.000 C 
ATOM     21  O   UNL     1      -1.918  10.725  18.690  0.00  0.00    +0.000 OA
BRANCH  20  22
ATOM     22  C   UNL     1      -0.064   9.952  19.901  0.00  0.00    +0.000 A 
ATOM     23  C   UNL     1      -0.216   9.289  21.107  0.00  0.00    +0.000 A 
ATOM     24  C   UNL     1       0.794   8.308  21.321  0.00  0.00    +0.000 A 
ATOM     25  C   UNL     1       1.658   8.220  20.253  0.00  0.00    +0.000 A 
ATOM     26  S   UNL     1       1.228   9.292  18.996  0.00  0.00    +0.000 S 
ENDBRANCH  20  22
ENDBRANCH   2  20
BRANCH   3  27
ATOM     27  O   UNL     1      -0.641  13.167  17.387  0.00  0.00    +0.000 OA
ATOM     28  H   UNL     1      -1.575  13.177  17.087  0.00  0.00    +0.000 HD
ENDBRANCH   3  27
TORSDOF 5
ENDMDL
MODEL 7
REMARK VINA RESULT:      -6.0      3.305      5.995
REMARK  Name = 
REMARK  6 active torsions:
REMARK  status: ('A' for Active; 'I' for Inactive)
REMARK    1  A    between atoms: C_1  and  O_2
REMARK    2  A    between atoms: O_2  and  C_3
REMARK    3  A    between atoms: C_6  and  C_7
REMARK    4  A    between atoms: C_8  and  C_9
REMARK    5  A    between atoms: C_9  and  C_11
REMARK    6  A    between atoms: C_16  and  O_17
REMARK                            x       y       z     vdW  Elec       q    Type
REMARK                         _______ _______ _______ _____ _____    ______ ____
ROOT
ATOM      1  C   UNL     1      -2.438  12.472  22.002  0.00  0.00    +0.000 C 
ATOM      2  C   UNL     1      -3.479  12.802  20.983  0.00  0.00    +0.000 C 
ATOM      3  C   UNL     1      -3.151  12.347  19.767  0.00  0.00    +0.000 C 
ATOM      4  C   UNL     1      -1.884  11.586  19.898  0.00  0.00    +0.000 C 
ATOM      5  O   UNL     1      -1.389  10.969  18.971  0.00  0.00    +0.000 OA
ATOM      6  N   UNL     1      -1.489  11.692  21.230  0.00  0.00    +0.000 N 
ATOM      7  C   UNL     1      -0.535  10.867  21.802  0.00  0.00    +0.000 A 
ATOM      8  N   UNL     1      -0.403  10.681  23.101  0.00  0.00    +0.000 NA
ATOM      9  N   UNL     1       0.580   9.762  23.412  0.00  0.00    +0.000 NA
ATOM     10  C   UNL     1       1.176   9.310  22.331  0.00  0.00    +0.000 A 
ATOM     11  S   UNL     1       0.588   9.970  20.868  0.00  0.00    +0.000 S 
ENDROOT
BRANCH   1  15
ATOM     12  C   UNL     1      -0.380  15.725  24.025  0.00  0.00    +0.000 A 
ATOM     13  C   UNL     1      -0.091  15.403  22.699  0.00  0.00    +0.000 A 
ATOM     14  C   UNL     1      -0.811  14.410  22.030  0.00  0.00    +0.000 A 
ATOM     15  C   UNL     1      -1.836  13.704  22.679  0.00  0.00    +0.000 A 
ATOM     16  C   UNL     1      -2.184  14.109  23.980  0.00  0.00    +0.000 A 
ATOM     17  C   UNL     1      -1.449  15.095  24.654  0.00  0.00    +0.000 A 
BRANCH  12  19
ATOM     18  C   UNL     1       1.447  17.228  23.749  0.00  0.00    +0.000 C 
ATOM     19  O   UNL     1       0.476  16.625  24.595  0.00  0.00    +0.000 OA
ENDBRANCH  12  19
ENDBRANCH   1  15
BRANCH   2  20
ATOM     20  C   UNL     1      -4.664  13.673  21.177  0.00  0.00    +0.000 C 
ATOM     21  O   UNL     1      -4.636  14.774  20.615  0.00  0.00    +0.000 OA
BRANCH  20  22
ATOM     22  C   UNL     1      -5.772  13.294  22.036  0.00  0.00    +0.000 A 
ATOM     23  C   UNL     1      -5.968  13.702  23.345  0.00  0.00    +0.000 A 
ATOM     24  C   UNL     1      -7.159  13.165  23.912  0.00  0.00    +0.000 A 
ATOM     25  C   UNL     1      -7.859  12.402  23.005  0.00  0.00    +0.000 A 
ATOM     26  S   UNL     1      -7.096  12.366  21.479  0.00  0.00    +0.000 S 
ENDBRANCH  20  22
ENDBRANCH   2  20
BRANCH   3  27
ATOM     27  O   UNL     1      -3.808  12.527  18.582  0.00  0.00    +0.000 OA
ATOM     28  H   UNL     1      -3.368  11.971  17.904  0.00  0.00    +0.000 HD
ENDBRANCH   3  27
TORSDOF 5
ENDMDL
MODEL 8
REMARK VINA RESULT:      -5.9      3.147      5.430
REMARK  Name = 
REMARK  6 active torsions:
REMARK  status: ('A' for Active; 'I' for Inactive)
REMARK    1  A    between atoms: C_1  and  O_2
REMARK    2  A    between atoms: O_2  and  C_3
REMARK    3  A    between atoms: C_6  and  C_7
REMARK    4  A    between atoms: C_8  and  C_9
REMARK    5  A    between atoms: C_9  and  C_11
REMARK    6  A    between atoms: C_16  and  O_17
REMARK                            x       y       z     vdW  Elec       q    Type
REMARK                         _______ _______ _______ _____ _____    ______ ____
ROOT
ATOM      1  C   UNL     1       0.121  12.538  18.940  0.00  0.00    +0.000 C 
ATOM      2  C   UNL     1      -1.316  12.815  19.237  0.00  0.00    +0.000 C 
ATOM      3  C   UNL     1      -1.480  13.976  19.883  0.00  0.00    +0.000 C 
ATOM      4  C   UNL     1      -0.148  14.622  19.991  0.00  0.00    +0.000 C 
ATOM      5  O   UNL     1       0.005  15.741  20.448  0.00  0.00    +0.000 OA
ATOM      6  N   UNL     1       0.773  13.738  19.434  0.00  0.00    +0.000 N 
ATOM      7  C   UNL     1       2.056  14.113  19.072  0.00  0.00    +0.000 A 
ATOM      8  N   UNL     1       2.810  13.441  18.225  0.00  0.00    +0.000 NA
ATOM      9  N   UNL     1       4.022  14.057  17.983  0.00  0.00    +0.000 NA
ATOM     10  C   UNL     1       4.149  15.162  18.684  0.00  0.00    +0.000 A 
ATOM     11  S   UNL     1       2.810  15.525  19.684  0.00  0.00    +0.000 S 
ENDROOT
BRANCH   1  15
ATOM     12  C   UNL     1       1.221   8.657  20.564  0.00  0.00    +0.000 A 
ATOM     13  C   UNL     1       1.478   8.980  19.232  0.00  0.00    +0.000 A 
ATOM     14  C   UNL     1       1.195  10.256  18.737  0.00  0.00    +0.000 A 
ATOM     15  C   UNL     1       0.635  11.241  19.565  0.00  0.00    +0.000 A 
ATOM     16  C   UNL     1       0.476  10.933  20.928  0.00  0.00    +0.000 A 
ATOM     17  C   UNL     1       0.747   9.648  21.418  0.00  0.00    +0.000 A 
BRANCH  12  19
ATOM     18  C   UNL     1       2.203   6.568  19.981  0.00  0.00    +0.000 C 
ATOM     19  O   UNL     1       1.429   7.346  20.885  0.00  0.00    +0.000 OA
ENDBRANCH  12  19
ENDBRANCH   1  15
BRANCH   2  20
ATOM     20  C   UNL     1      -2.457  11.888  19.035  0.00  0.00    +0.000 C 
ATOM     21  O   UNL     1      -3.119  11.604  20.039  0.00  0.00    +0.000 OA
BRANCH  20  22
ATOM     22  C   UNL     1      -2.746  11.283  17.746  0.00  0.00    +0.000 A 
ATOM     23  C   UNL     1      -1.965  10.348  17.089  0.00  0.00    +0.000 A 
ATOM     24  C   UNL     1      -2.529   9.942  15.846  0.00  0.00    +0.000 A 
ATOM     25  C   UNL     1      -3.746  10.543  15.615  0.00  0.00    +0.000 A 
ATOM     26  S   UNL     1      -4.208  11.562  16.904  0.00  0.00    +0.000 S 
ENDBRANCH  20  22
ENDBRANCH   2  20
BRANCH   3  27
ATOM     27  O   UNL     1      -2.628  14.518  20.388  0.00  0.00    +0.000 OA
ATOM     28  H   UNL     1      -2.767  14.151  21.287  0.00  0.00    +0.000 HD
ENDBRANCH   3  27
TORSDOF 5
ENDMDL
MODEL 9
REMARK VINA RESULT:      -5.9      3.034      5.498
REMARK  Name = 
REMARK  6 active torsions:
REMARK  status: ('A' for Active; 'I' for Inactive)
REMARK    1  A    between atoms: C_1  and  O_2
REMARK    2  A    between atoms: O_2  and  C_3
REMARK    3  A    between atoms: C_6  and  C_7
REMARK    4  A    between atoms: C_8  and  C_9
REMARK    5  A    between atoms: C_9  and  C_11
REMARK    6  A    between atoms: C_16  and  O_17
REMARK                            x       y       z     vdW  Elec       q    Type
REMARK                         _______ _______ _______ _____ _____    ______ ____
ROOT
ATOM      1  C   UNL     1       0.296  11.568  18.588  0.00  0.00    +0.000 C 
ATOM      2  C   UNL     1      -1.175  11.494  18.841  0.00  0.00    +0.000 C 
ATOM      3  C   UNL     1      -1.577  12.412  19.729  0.00  0.00    +0.000 C 
ATOM      4  C   UNL     1      -0.400  13.245  20.078  0.00  0.00    +0.000 C 
ATOM      5  O   UNL     1      -0.480  14.228  20.795  0.00  0.00    +0.000 OA
ATOM      6  N   UNL     1       0.688  12.709  19.395  0.00  0.00    +0.000 N 
ATOM      7  C   UNL     1       1.882  13.391  19.222  0.00  0.00    +0.000 A 
ATOM      8  N   UNL     1       2.773  13.096  18.296  0.00  0.00    +0.000 NA
ATOM      9  N   UNL     1       3.846  13.965  18.291  0.00  0.00    +0.000 NA
ATOM     10  C   UNL     1       3.738  14.870  19.239  0.00  0.00    +0.000 A 
ATOM     11  S   UNL     1       2.331  14.724  20.200  0.00  0.00    +0.000 S 
ENDROOT
BRANCH   1  15
ATOM     12  C   UNL     1       2.078   7.676  19.356  0.00  0.00    +0.000 A 
ATOM     13  C   UNL     1       2.231   8.309  18.122  0.00  0.00    +0.000 A 
ATOM     14  C   UNL     1       1.725   9.593  17.908  0.00  0.00    +0.000 A 
ATOM     15  C   UNL     1       1.038  10.274  18.926  0.00  0.00    +0.000 A 
ATOM     16  C   UNL     1       0.980   9.666  20.192  0.00  0.00    +0.000 A 
ATOM     17  C   UNL     1       1.476   8.372  20.400  0.00  0.00    +0.000 A 
BRANCH  12  19
ATOM     18  C   UNL     1       2.035   5.563  20.454  0.00  0.00    +0.000 C 
ATOM     19  O   UNL     1       2.511   6.381  19.392  0.00  0.00    +0.000 OA
ENDBRANCH  12  19
ENDBRANCH   1  15
BRANCH   2  20
ATOM     20  C   UNL     1      -2.107  10.450  18.347  0.00  0.00    +0.000 C 
ATOM     21  O   UNL     1      -2.349   9.518  19.121  0.00  0.00    +0.000 OA
BRANCH  20  22
ATOM     22  C   UNL     1      -2.656  10.475  17.002  0.00  0.00    +0.000 A 
ATOM     23  C   UNL     1      -2.181   9.765  15.913  0.00  0.00    +0.000 A 
ATOM     24  C   UNL     1      -2.947   9.995  14.734  0.00  0.00    +0.000 A 
ATOM     25  C   UNL     1      -4.009  10.838  14.971  0.00  0.00    +0.000 A 
ATOM     26  S   UNL     1      -4.092  11.315  16.608  0.00  0.00    +0.000 S 
ENDBRANCH  20  22
ENDBRANCH   2  20
BRANCH   3  27
ATOM     27  O   UNL     1      -2.821  12.593  20.265  0.00  0.00    +0.000 OA
ATOM     28  H   UNL     1      -3.380  11.833  19.997  0.00  0.00    +0.000 HD
ENDBRANCH   3  27
TORSDOF 5
ENDMDL
