MODEL 1
REMARK VINA RESULT:      -8.4      0.000      0.000
REMARK  Name = 
REMARK  8 active torsions:
REMARK  status: ('A' for Active; 'I' for Inactive)
REMARK    1  A    between atoms: C_1  and  O_2
REMARK    2  A    between atoms: O_2  and  C_3
REMARK    3  A    between atoms: C_3  and  C_5
REMARK    4  A    between atoms: C_6  and  C_7
REMARK    5  A    between atoms: C_9  and  C_10
REMARK    6  A    between atoms: C_18  and  C_19
REMARK    7  A    between atoms: C_22  and  C_23
REMARK    8  A    between atoms: C_32  and  C_33
REMARK                            x       y       z     vdW  Elec       q    Type
REMARK                         _______ _______ _______ _____ _____    ______ ____
ROOT
ATOM      1  C   UNL     1      -0.547  10.847  21.973  0.00  0.00    +0.000 C 
ATOM      2  C   UNL     1      -0.396  10.819  20.638  0.00  0.00    +0.000 C 
ATOM      3  C   UNL     1      -0.986  11.806  19.651  0.00  0.00    +0.000 C 
ATOM      4  O   UNL     1      -1.754  12.724  19.846  0.00  0.00    +0.000 OA
ATOM      5  N   UNL     1      -0.483  11.423  18.420  0.00  0.00    +0.000 N 
ATOM      6  C   UNL     1       0.318  10.295  18.523  0.00  0.00    +0.000 A 
ATOM      7  C   UNL     1       0.948   9.656  17.477  0.00  0.00    +0.000 A 
ATOM      8  C   UNL     1       1.701   8.526  17.787  0.00  0.00    +0.000 A 
ATOM      9  C   UNL     1       1.823   8.057  19.121  0.00  0.00    +0.000 A 
ATOM     10  C   UNL     1       1.159   8.737  20.164  0.00  0.00    +0.000 A 
ATOM     11  C   UNL     1       0.408   9.862  19.852  0.00  0.00    +0.000 A 
ATOM     12  H   UNL     1      -0.718  11.908  17.569  0.00  0.00    +0.000 HD
ENDROOT
BRANCH   1  17
ATOM     13  C   UNL     1      -2.103  13.805  23.544  0.00  0.00    +0.000 A 
ATOM     14  C   UNL     1      -2.969  12.746  23.809  0.00  0.00    +0.000 A 
ATOM     15  C   UNL     1      -4.293  12.684  24.489  0.00  0.00    +0.000 C 
ATOM     16  N   UNL     1      -2.425  11.604  23.266  0.00  0.00    +0.000 N 
ATOM     17  C   UNL     1      -1.239  11.888  22.643  0.00  0.00    +0.000 A 
ATOM     18  C   UNL     1      -0.990  13.241  22.808  0.00  0.00    +0.000 A 
ATOM     19  C   UNL     1       0.186  13.986  22.274  0.00  0.00    +0.000 C 
ATOM     20  H   UNL     1      -2.869  10.696  23.280  0.00  0.00    +0.000 HD
BRANCH  13  21
ATOM     21  C   UNL     1      -2.326  15.212  23.921  0.00  0.00    +0.000 C 
ATOM     22  O   UNL     1      -3.296  15.875  23.572  0.00  0.00    +0.000 OA
BRANCH  21  24
ATOM     23  C   UNL     1      -1.555  15.604  26.112  0.00  0.00    +0.000 C 
ATOM     24  O   UNL     1      -1.326  15.709  24.709  0.00  0.00    +0.000 OA
ENDBRANCH  21  24
ENDBRANCH  13  21
ENDBRANCH   1  17
BRANCH   9  25
ATOM     25  C   UNL     1       2.631   6.862  19.348  0.00  0.00    +0.000 A 
ATOM     26  C   UNL     1       3.934   6.682  18.932  0.00  0.00    +0.000 A 
ATOM     27  S   UNL     1       4.484   5.115  19.375  0.00  0.00    +0.000 S 
ATOM     28  C   UNL     1       2.952   4.784  20.083  0.00  0.00    +0.000 A 
ATOM     29  N   UNL     1       2.083   5.765  19.991  0.00  0.00    +0.000 NA
BRANCH  28  30
ATOM     30  C   UNL     1       2.669   3.457  20.755  0.00  0.00    +0.000 C 
ATOM     31  C   UNL     1       3.594   2.346  20.237  0.00  0.00    +0.000 C 
ATOM     32  C   UNL     1       3.208   1.863  18.838  0.00  0.00    +0.000 C 
ATOM     33  N   UNL     1       1.806   1.444  18.771  0.00  0.00    +0.000 NA
ATOM     34  C   UNL     1       0.908   2.533  19.158  0.00  0.00    +0.000 C 
ATOM     35  C   UNL     1       1.202   3.042  20.571  0.00  0.00    +0.000 C 
ATOM     36  H   UNL     1       1.660   0.649  19.391  0.00  0.00    +0.000 HD
ENDBRANCH  28  30
ENDBRANCH   9  25
TORSDOF 5
ENDMDL
MODEL 2
REMARK VINA RESULT:      -8.4      4.644     10.717
REMARK  Name = 
REMARK  8 active torsions:
REMARK  status: ('A' for Active; 'I' for Inactive)
REMARK    1  A    between atoms: C_1  and  O_2
REMARK    2  A    between atoms: O_2  and  C_3
REMARK    3  A    between atoms: C_3  and  C_5
REMARK    4  A    between atoms: C_6  and  C_7
REMARK    5  A    between atoms: C_9  and  C_10
REMARK    6  A    between atoms: C_18  and  C_19
REMARK    7  A    between atoms: C_22  and  C_23
REMARK    8  A    between atoms: C_32  and  C_33
REMARK                            x       y       z     vdW  Elec       q    Type
REMARK                         _______ _______ _______ _____ _____    ______ ____
ROOT
ATOM      1  C   UNL     1       3.221   7.464  17.871  0.00  0.00    +0.000 C 
ATOM      2  C   UNL     1       2.592   7.287  19.046  0.00  0.00    +0.000 C 
ATOM      3  C   UNL     1       2.717   6.080  19.954  0.00  0.00    +0.000 C 
ATOM      4  O   UNL     1       3.308   5.037  19.771  0.00  0.00    +0.000 OA
ATOM      5  N   UNL     1       1.966   6.395  21.072  0.00  0.00    +0.000 N 
ATOM      6  C   UNL     1       1.362   7.638  20.949  0.00  0.00    +0.000 A 
ATOM      7  C   UNL     1       0.535   8.227  21.880  0.00  0.00    +0.000 A 
ATOM      8  C   UNL     1       0.015   9.481  21.562  0.00  0.00    +0.000 A 
ATOM      9  C   UNL     1       0.329  10.126  20.338  0.00  0.00    +0.000 A 
ATOM     10  C   UNL     1       1.177   9.488  19.408  0.00  0.00    +0.000 A 
ATOM     11  C   UNL     1       1.691   8.238  19.727  0.00  0.00    +0.000 A 
ATOM     12  H   UNL     1       1.866   5.761  21.849  0.00  0.00    +0.000 HD
ENDROOT
BRANCH   1  17
ATOM     13  C   UNL     1       5.965   5.310  16.658  0.00  0.00    +0.000 A 
ATOM     14  C   UNL     1       4.823   4.510  16.624  0.00  0.00    +0.000 A 
ATOM     15  C   UNL     1       4.617   3.077  16.277  0.00  0.00    +0.000 C 
ATOM     16  N   UNL     1       3.757   5.273  17.044  0.00  0.00    +0.000 N 
ATOM     17  C   UNL     1       4.169   6.539  17.364  0.00  0.00    +0.000 A 
ATOM     18  C   UNL     1       5.532   6.612  17.121  0.00  0.00    +0.000 A 
ATOM     19  C   UNL     1       6.398   7.803  17.349  0.00  0.00    +0.000 C 
ATOM     20  H   UNL     1       2.813   4.926  17.152  0.00  0.00    +0.000 HD
BRANCH  13  21
ATOM     21  C   UNL     1       7.331   4.872  16.319  0.00  0.00    +0.000 C 
ATOM     22  O   UNL     1       8.032   4.174  17.043  0.00  0.00    +0.000 OA
BRANCH  21  24
ATOM     23  C   UNL     1       7.028   4.802  13.984  0.00  0.00    +0.000 C 
ATOM     24  O   UNL     1       7.741   5.331  15.100  0.00  0.00    +0.000 OA
ENDBRANCH  21  24
ENDBRANCH  13  21
ENDBRANCH   1  17
BRANCH   9  25
ATOM     25  C   UNL     1      -0.266  11.437  20.091  0.00  0.00    +0.000 A 
ATOM     26  C   UNL     1      -0.080  12.202  18.958  0.00  0.00    +0.000 A 
ATOM     27  S   UNL     1      -0.932  13.689  19.104  0.00  0.00    +0.000 S 
ATOM     28  C   UNL     1      -1.482  13.213  20.662  0.00  0.00    +0.000 A 
ATOM     29  N   UNL     1      -1.057  12.034  21.057  0.00  0.00    +0.000 NA
BRANCH  28  30
ATOM     30  C   UNL     1      -2.389  14.108  21.480  0.00  0.00    +0.000 C 
ATOM     31  C   UNL     1      -2.457  13.662  22.948  0.00  0.00    +0.000 C 
ATOM     32  C   UNL     1      -3.308  12.407  23.145  0.00  0.00    +0.000 C 
ATOM     33  N   UNL     1      -4.653  12.565  22.589  0.00  0.00    +0.000 NA
ATOM     34  C   UNL     1      -4.603  12.882  21.160  0.00  0.00    +0.000 C 
ATOM     35  C   UNL     1      -3.805  14.158  20.886  0.00  0.00    +0.000 C 
ATOM     36  H   UNL     1      -5.139  13.312  23.084  0.00  0.00    +0.000 HD
ENDBRANCH  28  30
ENDBRANCH   9  25
TORSDOF 5
ENDMDL
MODEL 3
REMARK VINA RESULT:      -8.3      4.161     10.263
REMARK  Name = 
REMARK  8 active torsions:
REMARK  status: ('A' for Active; 'I' for Inactive)
REMARK    1  A    between atoms: C_1  and  O_2
REMARK    2  A    between atoms: O_2  and  C_3
REMARK    3  A    between atoms: C_3  and  C_5
REMARK    4  A    between atoms: C_6  and  C_7
REMARK    5  A    between atoms: C_9  and  C_10
REMARK    6  A    between atoms: C_18  and  C_19
REMARK    7  A    between atoms: C_22  and  C_23
REMARK    8  A    between atoms: C_32  and  C_33
REMARK                            x       y       z     vdW  Elec       q    Type
REMARK                         _______ _______ _______ _____ _____    ______ ____
ROOT
ATOM      1  C   UNL     1       1.728   7.510  20.466  0.00  0.00    +0.000 C 
ATOM      2  C   UNL     1       1.488   8.493  19.582  0.00  0.00    +0.000 C 
ATOM      3  C   UNL     1       2.067   8.601  18.186  0.00  0.00    +0.000 C 
ATOM      4  O   UNL     1       2.898   7.905  17.641  0.00  0.00    +0.000 OA
ATOM      5  N   UNL     1       1.463   9.717  17.634  0.00  0.00    +0.000 N 
ATOM      6  C   UNL     1       0.606  10.333  18.535  0.00  0.00    +0.000 A 
ATOM      7  C   UNL     1      -0.127  11.474  18.297  0.00  0.00    +0.000 A 
ATOM      8  C   UNL     1      -0.923  11.945  19.340  0.00  0.00    +0.000 A 
ATOM      9  C   UNL     1      -0.984  11.274  20.588  0.00  0.00    +0.000 A 
ATOM     10  C   UNL     1      -0.214  10.109  20.795  0.00  0.00    +0.000 A 
ATOM     11  C   UNL     1       0.579   9.645  19.754  0.00  0.00    +0.000 A 
ATOM     12  H   UNL     1       1.669  10.032  16.700  0.00  0.00    +0.000 HD
ENDROOT
BRANCH   1  17
ATOM     13  C   UNL     1       3.464   4.353  19.652  0.00  0.00    +0.000 A 
ATOM     14  C   UNL     1       4.414   5.357  19.469  0.00  0.00    +0.000 A 
ATOM     15  C   UNL     1       5.822   5.324  18.984  0.00  0.00    +0.000 C 
ATOM     16  N   UNL     1       3.827   6.561  19.785  0.00  0.00    +0.000 N 
ATOM     17  C   UNL     1       2.521   6.377  20.154  0.00  0.00    +0.000 A 
ATOM     18  C   UNL     1       2.258   5.017  20.104  0.00  0.00    +0.000 A 
ATOM     19  C   UNL     1       0.952   4.366  20.410  0.00  0.00    +0.000 C 
ATOM     20  H   UNL     1       4.284   7.460  19.702  0.00  0.00    +0.000 HD
BRANCH  13  21
ATOM     21  C   UNL     1       3.670   2.918  19.391  0.00  0.00    +0.000 C 
ATOM     22  O   UNL     1       3.867   2.079  20.262  0.00  0.00    +0.000 OA
BRANCH  21  24
ATOM     23  C   UNL     1       2.323   2.281  17.565  0.00  0.00    +0.000 C 
ATOM     24  O   UNL     1       3.619   2.614  18.059  0.00  0.00    +0.000 OA
ENDBRANCH  21  24
ENDBRANCH  13  21
ENDBRANCH   1  17
BRANCH   9  25
ATOM     25  C   UNL     1      -1.843  11.844  21.623  0.00  0.00    +0.000 A 
ATOM     26  C   UNL     1      -1.690  11.665  22.982  0.00  0.00    +0.000 A 
ATOM     27  S   UNL     1      -2.946  12.477  23.830  0.00  0.00    +0.000 S 
ATOM     28  C   UNL     1      -3.606  13.005  22.332  0.00  0.00    +0.000 A 
ATOM     29  N   UNL     1      -2.947  12.599  21.270  0.00  0.00    +0.000 NA
BRANCH  28  30
ATOM     30  C   UNL     1      -4.846  13.873  22.284  0.00  0.00    +0.000 C 
ATOM     31  C   UNL     1      -5.629  13.823  23.605  0.00  0.00    +0.000 C 
ATOM     32  C   UNL     1      -6.399  12.513  23.784  0.00  0.00    +0.000 C 
ATOM     33  N   UNL     1      -7.280  12.237  22.648  0.00  0.00    +0.000 NA
ATOM     34  C   UNL     1      -6.526  12.173  21.394  0.00  0.00    +0.000 C 
ATOM     35  C   UNL     1      -5.762  13.470  21.120  0.00  0.00    +0.000 C 
ATOM     36  H   UNL     1      -7.986  12.969  22.580  0.00  0.00    +0.000 HD
ENDBRANCH  28  30
ENDBRANCH   9  25
TORSDOF 5
ENDMDL
MODEL 4
REMARK VINA RESULT:      -8.2      4.876     10.899
REMARK  Name = 
REMARK  8 active torsions:
REMARK  status: ('A' for Active; 'I' for Inactive)
REMARK    1  A    between atoms: C_1  and  O_2
REMARK    2  A    between atoms: O_2  and  C_3
REMARK    3  A    between atoms: C_3  and  C_5
REMARK    4  A    between atoms: C_6  and  C_7
REMARK    5  A    between atoms: C_9  and  C_10
REMARK    6  A    between atoms: C_18  and  C_19
REMARK    7  A    between atoms: C_22  and  C_23
REMARK    8  A    between atoms: C_32  and  C_33
REMARK                            x       y       z     vdW  Elec       q    Type
REMARK                         _______ _______ _______ _____ _____    ______ ____
ROOT
ATOM      1  C   UNL     1       3.222   7.525  17.912  0.00  0.00    +0.000 C 
ATOM      2  C   UNL     1       2.568   7.348  19.073  0.00  0.00    +0.000 C 
ATOM      3  C   UNL     1       2.654   6.129  19.970  0.00  0.00    +0.000 C 
ATOM      4  O   UNL     1       3.230   5.078  19.788  0.00  0.00    +0.000 OA
ATOM      5  N   UNL     1       1.887   6.447  21.077  0.00  0.00    +0.000 N 
ATOM      6  C   UNL     1       1.307   7.701  20.955  0.00  0.00    +0.000 A 
ATOM      7  C   UNL     1       0.473   8.295  21.876  0.00  0.00    +0.000 A 
ATOM      8  C   UNL     1      -0.019   9.561  21.562  0.00  0.00    +0.000 A 
ATOM      9  C   UNL     1       0.330  10.213  20.351  0.00  0.00    +0.000 A 
ATOM     10  C   UNL     1       1.184   9.569  19.430  0.00  0.00    +0.000 A 
ATOM     11  C   UNL     1       1.671   8.308  19.746  0.00  0.00    +0.000 A 
ATOM     12  H   UNL     1       1.761   5.807  21.845  0.00  0.00    +0.000 HD
ENDROOT
BRANCH   1  17
ATOM     13  C   UNL     1       5.951   5.343  16.715  0.00  0.00    +0.000 A 
ATOM     14  C   UNL     1       4.806   4.547  16.702  0.00  0.00    +0.000 A 
ATOM     15  C   UNL     1       4.593   3.109  16.380  0.00  0.00    +0.000 C 
ATOM     16  N   UNL     1       3.746   5.319  17.117  0.00  0.00    +0.000 N 
ATOM     17  C   UNL     1       4.164   6.590  17.414  0.00  0.00    +0.000 A 
ATOM     18  C   UNL     1       5.525   6.654  17.160  0.00  0.00    +0.000 A 
ATOM     19  C   UNL     1       6.397   7.846  17.362  0.00  0.00    +0.000 C 
ATOM     20  H   UNL     1       2.801   4.978  17.237  0.00  0.00    +0.000 HD
BRANCH  13  21
ATOM     21  C   UNL     1       7.313   4.895  16.374  0.00  0.00    +0.000 C 
ATOM     22  O   UNL     1       8.025   4.226  17.114  0.00  0.00    +0.000 OA
BRANCH  21  24
ATOM     23  C   UNL     1       6.958   4.759  14.049  0.00  0.00    +0.000 C 
ATOM     24  O   UNL     1       7.705   5.309  15.132  0.00  0.00    +0.000 OA
ENDBRANCH  21  24
ENDBRANCH  13  21
ENDBRANCH   1  17
BRANCH   9  25
ATOM     25  C   UNL     1      -0.238  11.537  20.106  0.00  0.00    +0.000 A 
ATOM     26  C   UNL     1      -1.501  11.949  20.474  0.00  0.00    +0.000 A 
ATOM     27  S   UNL     1      -1.770  13.565  19.952  0.00  0.00    +0.000 S 
ATOM     28  C   UNL     1      -0.192  13.601  19.270  0.00  0.00    +0.000 A 
ATOM     29  N   UNL     1       0.490  12.486  19.409  0.00  0.00    +0.000 NA
BRANCH  28  30
ATOM     30  C   UNL     1       0.336  14.840  18.578  0.00  0.00    +0.000 C 
ATOM     31  C   UNL     1       1.868  14.918  18.639  0.00  0.00    +0.000 C 
ATOM     32  C   UNL     1       2.384  15.317  20.023  0.00  0.00    +0.000 C 
ATOM     33  N   UNL     1       1.781  16.568  20.491  0.00  0.00    +0.000 NA
ATOM     34  C   UNL     1       0.321  16.467  20.542  0.00  0.00    +0.000 C 
ATOM     35  C   UNL     1      -0.275  16.115  19.178  0.00  0.00    +0.000 C 
ATOM     36  H   UNL     1       2.046  17.327  19.865  0.00  0.00    +0.000 HD
ENDBRANCH  28  30
ENDBRANCH   9  25
TORSDOF 5
ENDMDL
MODEL 5
REMARK VINA RESULT:      -8.1      1.704      2.410
REMARK  Name = 
REMARK  8 active torsions:
REMARK  status: ('A' for Active; 'I' for Inactive)
REMARK    1  A    between atoms: C_1  and  O_2
REMARK    2  A    between atoms: O_2  and  C_3
REMARK    3  A    between atoms: C_3  and  C_5
REMARK    4  A    between atoms: C_6  and  C_7
REMARK    5  A    between atoms: C_9  and  C_10
REMARK    6  A    between atoms: C_18  and  C_19
REMARK    7  A    between atoms: C_22  and  C_23
REMARK    8  A    between atoms: C_32  and  C_33
REMARK                            x       y       z     vdW  Elec       q    Type
REMARK                         _______ _______ _______ _____ _____    ______ ____
ROOT
ATOM      1  C   UNL     1      -0.170  11.477  21.822  0.00  0.00    +0.000 C 
ATOM      2  C   UNL     1       0.227  11.333  20.546  0.00  0.00    +0.000 C 
ATOM      3  C   UNL     1       0.152  12.389  19.462  0.00  0.00    +0.000 C 
ATOM      4  O   UNL     1      -0.344  13.495  19.498  0.00  0.00    +0.000 OA
ATOM      5  N   UNL     1       0.756  11.811  18.359  0.00  0.00    +0.000 N 
ATOM      6  C   UNL     1       1.165  10.512  18.621  0.00  0.00    +0.000 A 
ATOM      7  C   UNL     1       1.778   9.664  17.725  0.00  0.00    +0.000 A 
ATOM      8  C   UNL     1       2.100   8.387  18.180  0.00  0.00    +0.000 A 
ATOM      9  C   UNL     1       1.818   7.978  19.509  0.00  0.00    +0.000 A 
ATOM     10  C   UNL     1       1.184   8.875  20.396  0.00  0.00    +0.000 A 
ATOM     11  C   UNL     1       0.862  10.146  19.939  0.00  0.00    +0.000 A 
ATOM     12  H   UNL     1       0.843  12.295  17.480  0.00  0.00    +0.000 HD
ENDROOT
BRANCH   1  17
ATOM     13  C   UNL     1      -1.707  14.473  23.339  0.00  0.00    +0.000 A 
ATOM     14  C   UNL     1      -0.477  14.899  22.841  0.00  0.00    +0.000 A 
ATOM     15  C   UNL     1       0.225  16.211  22.902  0.00  0.00    +0.000 C 
ATOM     16  N   UNL     1       0.134  13.823  22.238  0.00  0.00    +0.000 N 
ATOM     17  C   UNL     1      -0.652  12.706  22.339  0.00  0.00    +0.000 A 
ATOM     18  C   UNL     1      -1.815  13.069  22.999  0.00  0.00    +0.000 A 
ATOM     19  C   UNL     1      -2.946  12.159  23.343  0.00  0.00    +0.000 C 
ATOM     20  H   UNL     1       1.058  13.846  21.827  0.00  0.00    +0.000 HD
BRANCH  13  21
ATOM     21  C   UNL     1      -2.665  15.304  24.090  0.00  0.00    +0.000 C 
ATOM     22  O   UNL     1      -3.399  16.143  23.580  0.00  0.00    +0.000 OA
BRANCH  21  24
ATOM     23  C   UNL     1      -1.573  15.640  26.150  0.00  0.00    +0.000 C 
ATOM     24  O   UNL     1      -2.649  15.041  25.431  0.00  0.00    +0.000 OA
ENDBRANCH  21  24
ENDBRANCH  13  21
ENDBRANCH   1  17
BRANCH   9  25
ATOM     25  C   UNL     1       2.188   6.619  19.894  0.00  0.00    +0.000 A 
ATOM     26  C   UNL     1       1.536   5.844  20.829  0.00  0.00    +0.000 A 
ATOM     27  S   UNL     1       2.332   4.330  21.001  0.00  0.00    +0.000 S 
ATOM     28  C   UNL     1       3.490   4.813  19.824  0.00  0.00    +0.000 A 
ATOM     29  N   UNL     1       3.307   6.021  19.341  0.00  0.00    +0.000 NA
BRANCH  28  30
ATOM     30  C   UNL     1       4.612   3.888  19.401  0.00  0.00    +0.000 C 
ATOM     31  C   UNL     1       5.730   4.645  18.671  0.00  0.00    +0.000 C 
ATOM     32  C   UNL     1       5.344   5.035  17.243  0.00  0.00    +0.000 C 
ATOM     33  N   UNL     1       4.904   3.878  16.461  0.00  0.00    +0.000 NA
ATOM     34  C   UNL     1       3.764   3.212  17.093  0.00  0.00    +0.000 C 
ATOM     35  C   UNL     1       4.089   2.749  18.515  0.00  0.00    +0.000 C 
ATOM     36  H   UNL     1       5.674   3.217  16.371  0.00  0.00    +0.000 HD
ENDBRANCH  28  30
ENDBRANCH   9  25
TORSDOF 5
ENDMDL
MODEL 6
REMARK VINA RESULT:      -8.0      2.941      4.092
REMARK  Name = 
REMARK  8 active torsions:
REMARK  status: ('A' for Active; 'I' for Inactive)
REMARK    1  A    between atoms: C_1  and  O_2
REMARK    2  A    between atoms: O_2  and  C_3
REMARK    3  A    between atoms: C_3  and  C_5
REMARK    4  A    between atoms: C_6  and  C_7
REMARK    5  A    between atoms: C_9  and  C_10
REMARK    6  A    between atoms: C_18  and  C_19
REMARK    7  A    between atoms: C_22  and  C_23
REMARK    8  A    between atoms: C_32  and  C_33
REMARK                            x       y       z     vdW  Elec       q    Type
REMARK                         _______ _______ _______ _____ _____    ______ ____
ROOT
ATOM      1  C   UNL     1      -2.460  12.559  20.218  0.00  0.00    +0.000 C 
ATOM      2  C   UNL     1      -1.932  11.980  21.309  0.00  0.00    +0.000 C 
ATOM      3  C   UNL     1      -2.308  12.274  22.748  0.00  0.00    +0.000 C 
ATOM      4  O   UNL     1      -3.058  13.118  23.190  0.00  0.00    +0.000 OA
ATOM      5  N   UNL     1      -1.572  11.375  23.500  0.00  0.00    +0.000 N 
ATOM      6  C   UNL     1      -0.759  10.584  22.701  0.00  0.00    +0.000 A 
ATOM      7  C   UNL     1       0.107   9.611  23.148  0.00  0.00    +0.000 A 
ATOM      8  C   UNL     1       0.849   8.932  22.183  0.00  0.00    +0.000 A 
ATOM      9  C   UNL     1       0.714   9.223  20.801  0.00  0.00    +0.000 A 
ATOM     10  C   UNL     1      -0.182  10.231  20.383  0.00  0.00    +0.000 A 
ATOM     11  C   UNL     1      -0.918  10.907  21.347  0.00  0.00    +0.000 A 
ATOM     12  H   UNL     1      -1.623  11.349  24.506  0.00  0.00    +0.000 HD
ENDROOT
BRANCH   1  17
ATOM     13  C   UNL     1      -5.473  14.686  20.407  0.00  0.00    +0.000 A 
ATOM     14  C   UNL     1      -4.397  15.548  20.611  0.00  0.00    +0.000 A 
ATOM     15  C   UNL     1      -4.328  17.003  20.925  0.00  0.00    +0.000 C 
ATOM     16  N   UNL     1      -3.238  14.811  20.525  0.00  0.00    +0.000 N 
ATOM     17  C   UNL     1      -3.525  13.493  20.286  0.00  0.00    +0.000 A 
ATOM     18  C   UNL     1      -4.902  13.373  20.185  0.00  0.00    +0.000 A 
ATOM     19  C   UNL     1      -5.655  12.109  19.947  0.00  0.00    +0.000 C 
ATOM     20  H   UNL     1      -2.310  15.184  20.674  0.00  0.00    +0.000 HD
BRANCH  13  21
ATOM     21  C   UNL     1      -6.897  15.063  20.451  0.00  0.00    +0.000 C 
ATOM     22  O   UNL     1      -7.481  15.662  19.556  0.00  0.00    +0.000 OA
BRANCH  21  24
ATOM     23  C   UNL     1      -7.609  15.686  22.609  0.00  0.00    +0.000 C 
ATOM     24  O   UNL     1      -7.507  14.673  21.610  0.00  0.00    +0.000 OA
ENDBRANCH  21  24
ENDBRANCH  13  21
ENDBRANCH   1  17
BRANCH   9  25
ATOM     25  C   UNL     1       1.536   8.463  19.864  0.00  0.00    +0.000 A 
ATOM     26  C   UNL     1       1.946   8.897  18.621  0.00  0.00    +0.000 A 
ATOM     27  S   UNL     1       2.860   7.668  17.839  0.00  0.00    +0.000 S 
ATOM     28  C   UNL     1       2.642   6.646  19.204  0.00  0.00    +0.000 A 
ATOM     29  N   UNL     1       1.930   7.173  20.175  0.00  0.00    +0.000 NA
BRANCH  28  30
ATOM     30  C   UNL     1       3.245   5.257  19.248  0.00  0.00    +0.000 C 
ATOM     31  C   UNL     1       3.092   4.526  17.906  0.00  0.00    +0.000 C 
ATOM     32  C   UNL     1       1.664   4.036  17.661  0.00  0.00    +0.000 C 
ATOM     33  N   UNL     1       1.174   3.205  18.763  0.00  0.00    +0.000 NA
ATOM     34  C   UNL     1       1.212   3.932  20.033  0.00  0.00    +0.000 C 
ATOM     35  C   UNL     1       2.623   4.417  20.373  0.00  0.00    +0.000 C 
ATOM     36  H   UNL     1       1.748   2.367  18.837  0.00  0.00    +0.000 HD
ENDBRANCH  28  30
ENDBRANCH   9  25
TORSDOF 5
ENDMDL
MODEL 7
REMARK VINA RESULT:      -8.0      1.708      2.375
REMARK  Name = 
REMARK  8 active torsions:
REMARK  status: ('A' for Active; 'I' for Inactive)
REMARK    1  A    between atoms: C_1  and  O_2
REMARK    2  A    between atoms: O_2  and  C_3
REMARK    3  A    between atoms: C_3  and  C_5
REMARK    4  A    between atoms: C_6  and  C_7
REMARK    5  A    between atoms: C_9  and  C_10
REMARK    6  A    between atoms: C_18  and  C_19
REMARK    7  A    between atoms: C_22  and  C_23
REMARK    8  A    between atoms: C_32  and  C_33
REMARK                            x       y       z     vdW  Elec       q    Type
REMARK                         _______ _______ _______ _____ _____    ______ ____
ROOT
ATOM      1  C   UNL     1      -0.843  11.250  21.640  0.00  0.00    +0.000 C 
ATOM      2  C   UNL     1      -0.210  11.225  20.455  0.00  0.00    +0.000 C 
ATOM      3  C   UNL     1      -0.159  12.352  19.444  0.00  0.00    +0.000 C 
ATOM      4  O   UNL     1      -0.729  13.423  19.455  0.00  0.00    +0.000 OA
ATOM      5  N   UNL     1       0.676  11.894  18.440  0.00  0.00    +0.000 N 
ATOM      6  C   UNL     1       1.119  10.604  18.692  0.00  0.00    +0.000 A 
ATOM      7  C   UNL     1       1.945   9.862  17.876  0.00  0.00    +0.000 A 
ATOM      8  C   UNL     1       2.266   8.575  18.302  0.00  0.00    +0.000 A 
ATOM      9  C   UNL     1       1.774   8.053  19.526  0.00  0.00    +0.000 A 
ATOM     10  C   UNL     1       0.927   8.843  20.333  0.00  0.00    +0.000 A 
ATOM     11  C   UNL     1       0.607  10.124  19.904  0.00  0.00    +0.000 A 
ATOM     12  H   UNL     1       0.889  12.446  17.624  0.00  0.00    +0.000 HD
ENDROOT
BRANCH   1  17
ATOM     13  C   UNL     1      -2.867  14.132  22.754  0.00  0.00    +0.000 A 
ATOM     14  C   UNL     1      -1.667  14.227  23.457  0.00  0.00    +0.000 A 
ATOM     15  C   UNL     1      -1.197  15.173  24.507  0.00  0.00    +0.000 C 
ATOM     16  N   UNL     1      -0.858  13.187  23.061  0.00  0.00    +0.000 N 
ATOM     17  C   UNL     1      -1.497  12.408  22.133  0.00  0.00    +0.000 A 
ATOM     18  C   UNL     1      -2.741  12.970  21.897  0.00  0.00    +0.000 A 
ATOM     19  C   UNL     1      -3.780  12.438  20.970  0.00  0.00    +0.000 C 
ATOM     20  H   UNL     1       0.058  12.997  23.445  0.00  0.00    +0.000 HD
BRANCH  13  21
ATOM     21  C   UNL     1      -4.025  15.030  22.905  0.00  0.00    +0.000 C 
ATOM     22  O   UNL     1      -4.979  14.810  23.643  0.00  0.00    +0.000 OA
BRANCH  21  24
ATOM     23  C   UNL     1      -4.670  16.105  20.910  0.00  0.00    +0.000 C 
ATOM     24  O   UNL     1      -3.927  16.149  22.126  0.00  0.00    +0.000 OA
ENDBRANCH  21  24
ENDBRANCH  13  21
ENDBRANCH   1  17
BRANCH   9  25
ATOM     25  C   UNL     1       2.162   6.692  19.888  0.00  0.00    +0.000 A 
ATOM     26  C   UNL     1       1.467   5.859  20.739  0.00  0.00    +0.000 A 
ATOM     27  S   UNL     1       2.301   4.366  20.916  0.00  0.00    +0.000 S 
ATOM     28  C   UNL     1       3.529   4.934  19.854  0.00  0.00    +0.000 A 
ATOM     29  N   UNL     1       3.341   6.154  19.403  0.00  0.00    +0.000 NA
BRANCH  28  30
ATOM     30  C   UNL     1       4.713   4.064  19.487  0.00  0.00    +0.000 C 
ATOM     31  C   UNL     1       5.088   4.208  18.005  0.00  0.00    +0.000 C 
ATOM     32  C   UNL     1       4.110   3.488  17.076  0.00  0.00    +0.000 C 
ATOM     33  N   UNL     1       3.952   2.077  17.436  0.00  0.00    +0.000 NA
ATOM     34  C   UNL     1       3.486   1.931  18.817  0.00  0.00    +0.000 C 
ATOM     35  C   UNL     1       4.442   2.589  19.815  0.00  0.00    +0.000 C 
ATOM     36  H   UNL     1       4.844   1.597  17.329  0.00  0.00    +0.000 HD
ENDBRANCH  28  30
ENDBRANCH   9  25
TORSDOF 5
ENDMDL
MODEL 8
REMARK VINA RESULT:      -8.0      4.582     10.870
REMARK  Name = 
REMARK  8 active torsions:
REMARK  status: ('A' for Active; 'I' for Inactive)
REMARK    1  A    between atoms: C_1  and  O_2
REMARK    2  A    between atoms: O_2  and  C_3
REMARK    3  A    between atoms: C_3  and  C_5
REMARK    4  A    between atoms: C_6  and  C_7
REMARK    5  A    between atoms: C_9  and  C_10
REMARK    6  A    between atoms: C_18  and  C_19
REMARK    7  A    between atoms: C_22  and  C_23
REMARK    8  A    between atoms: C_32  and  C_33
REMARK                            x       y       z     vdW  Elec       q    Type
REMARK                         _______ _______ _______ _____ _____    ______ ____
ROOT
ATOM      1  C   UNL     1       3.012   7.519  18.011  0.00  0.00    +0.000 C 
ATOM      2  C   UNL     1       2.370   7.487  19.191  0.00  0.00    +0.000 C 
ATOM      3  C   UNL     1       2.348   6.327  20.166  0.00  0.00    +0.000 C 
ATOM      4  O   UNL     1       2.806   5.210  20.044  0.00  0.00    +0.000 OA
ATOM      5  N   UNL     1       1.644   6.795  21.262  0.00  0.00    +0.000 N 
ATOM      6  C   UNL     1       1.197   8.093  21.067  0.00  0.00    +0.000 A 
ATOM      7  C   UNL     1       0.452   8.831  21.960  0.00  0.00    +0.000 A 
ATOM      8  C   UNL     1       0.089  10.119  21.570  0.00  0.00    +0.000 A 
ATOM      9  C   UNL     1       0.476  10.652  20.313  0.00  0.00    +0.000 A 
ATOM     10  C   UNL     1       1.237   9.862  19.424  0.00  0.00    +0.000 A 
ATOM     11  C   UNL     1       1.594   8.579  19.814  0.00  0.00    +0.000 A 
ATOM     12  H   UNL     1       1.470   6.223  22.072  0.00  0.00    +0.000 HD
ENDROOT
BRANCH   1  17
ATOM     13  C   UNL     1       5.464   4.998  16.884  0.00  0.00    +0.000 A 
ATOM     14  C   UNL     1       4.269   4.301  17.060  0.00  0.00    +0.000 A 
ATOM     15  C   UNL     1       3.928   2.856  16.938  0.00  0.00    +0.000 C 
ATOM     16  N   UNL     1       3.306   5.200  17.458  0.00  0.00    +0.000 N 
ATOM     17  C   UNL     1       3.838   6.458  17.561  0.00  0.00    +0.000 A 
ATOM     18  C   UNL     1       5.172   6.382  17.194  0.00  0.00    +0.000 A 
ATOM     19  C   UNL     1       6.141   7.516  17.177  0.00  0.00    +0.000 C 
ATOM     20  H   UNL     1       2.354   4.952  17.694  0.00  0.00    +0.000 HD
BRANCH  13  21
ATOM     21  C   UNL     1       6.755   4.404  16.495  0.00  0.00    +0.000 C 
ATOM     22  O   UNL     1       7.743   4.363  17.220  0.00  0.00    +0.000 OA
BRANCH  21  24
ATOM     23  C   UNL     1       7.069   4.834  14.200  0.00  0.00    +0.000 C 
ATOM     24  O   UNL     1       6.740   3.899  15.226  0.00  0.00    +0.000 OA
ENDBRANCH  21  24
ENDBRANCH  13  21
ENDBRANCH   1  17
BRANCH   9  25
ATOM     25  C   UNL     1       0.046  12.009  19.990  0.00  0.00    +0.000 A 
ATOM     26  C   UNL     1       0.288  12.667  18.802  0.00  0.00    +0.000 A 
ATOM     27  S   UNL     1      -0.359  14.259  18.866  0.00  0.00    +0.000 S 
ATOM     28  C   UNL     1      -0.910  13.964  20.468  0.00  0.00    +0.000 A 
ATOM     29  N   UNL     1      -0.626  12.768  20.933  0.00  0.00    +0.000 NA
BRANCH  28  30
ATOM     30  C   UNL     1      -1.664  15.022  21.246  0.00  0.00    +0.000 C 
ATOM     31  C   UNL     1      -0.761  16.206  21.621  0.00  0.00    +0.000 C 
ATOM     32  C   UNL     1       0.203  15.875  22.761  0.00  0.00    +0.000 C 
ATOM     33  N   UNL     1      -0.500  15.365  23.940  0.00  0.00    +0.000 NA
ATOM     34  C   UNL     1      -1.279  14.167  23.618  0.00  0.00    +0.000 C 
ATOM     35  C   UNL     1      -2.303  14.432  22.512  0.00  0.00    +0.000 C 
ATOM     36  H   UNL     1      -1.124  16.086  24.302  0.00  0.00    +0.000 HD
ENDBRANCH  28  30
ENDBRANCH   9  25
TORSDOF 5
ENDMDL
MODEL 9
REMARK VINA RESULT:      -7.9      4.176     10.360
REMARK  Name = 
REMARK  8 active torsions:
REMARK  status: ('A' for Active; 'I' for Inactive)
REMARK    1  A    between atoms: C_1  and  O_2
REMARK    2  A    between atoms: O_2  and  C_3
REMARK    3  A    between atoms: C_3  and  C_5
REMARK    4  A    between atoms: C_6  and  C_7
REMARK    5  A    between atoms: C_9  and  C_10
REMARK    6  A    between atoms: C_18  and  C_19
REMARK    7  A    between atoms: C_22  and  C_23
REMARK    8  A    between atoms: C_32  and  C_33
REMARK                            x       y       z     vdW  Elec       q    Type
REMARK                         _______ _______ _______ _____ _____    ______ ____
ROOT
ATOM      1  C   UNL     1       1.691   7.577  20.497  0.00  0.00    +0.000 C 
ATOM      2  C   UNL     1       1.464   8.556  19.603  0.00  0.00    +0.000 C 
ATOM      3  C   UNL     1       2.002   8.617  18.188  0.00  0.00    +0.000 C 
ATOM      4  O   UNL     1       2.786   7.878  17.630  0.00  0.00    +0.000 OA
ATOM      5  N   UNL     1       1.429   9.748  17.637  0.00  0.00    +0.000 N 
ATOM      6  C   UNL     1       0.628  10.415  18.553  0.00  0.00    +0.000 A 
ATOM      7  C   UNL     1      -0.063  11.583  18.318  0.00  0.00    +0.000 A 
ATOM      8  C   UNL     1      -0.805  12.104  19.377  0.00  0.00    +0.000 A 
ATOM      9  C   UNL     1      -0.854  11.456  20.639  0.00  0.00    +0.000 A 
ATOM     10  C   UNL     1      -0.128  10.262  20.841  0.00  0.00    +0.000 A 
ATOM     11  C   UNL     1       0.611   9.748  19.784  0.00  0.00    +0.000 A 
ATOM     12  H   UNL     1       1.618  10.040  16.691  0.00  0.00    +0.000 HD
ENDROOT
BRANCH   1  17
ATOM     13  C   UNL     1       3.262   4.341  19.662  0.00  0.00    +0.000 A 
ATOM     14  C   UNL     1       4.268   5.293  19.503  0.00  0.00    +0.000 A 
ATOM     15  C   UNL     1       5.677   5.190  19.035  0.00  0.00    +0.000 C 
ATOM     16  N   UNL     1       3.744   6.524  19.828  0.00  0.00    +0.000 N 
ATOM     17  C   UNL     1       2.425   6.406  20.179  0.00  0.00    +0.000 A 
ATOM     18  C   UNL     1       2.089   5.064  20.108  0.00  0.00    +0.000 A 
ATOM     19  C   UNL     1       0.745   4.482  20.390  0.00  0.00    +0.000 C 
ATOM     20  H   UNL     1       4.250   7.397  19.761  0.00  0.00    +0.000 HD
BRANCH  13  21
ATOM     21  C   UNL     1       3.393   2.899  19.384  0.00  0.00    +0.000 C 
ATOM     22  O   UNL     1       4.183   2.155  19.954  0.00  0.00    +0.000 OA
BRANCH  21  24
ATOM     23  C   UNL     1       2.687   3.111  17.146  0.00  0.00    +0.000 C 
ATOM     24  O   UNL     1       2.533   2.472  18.412  0.00  0.00    +0.000 OA
ENDBRANCH  21  24
ENDBRANCH  13  21
ENDBRANCH   1  17
BRANCH   9  25
ATOM     25  C   UNL     1      -1.655  12.078  21.690  0.00  0.00    +0.000 A 
ATOM     26  C   UNL     1      -1.172  12.558  22.889  0.00  0.00    +0.000 A 
ATOM     27  S   UNL     1      -2.465  13.168  23.845  0.00  0.00    +0.000 S 
ATOM     28  C   UNL     1      -3.575  12.747  22.600  0.00  0.00    +0.000 A 
ATOM     29  N   UNL     1      -3.028  12.181  21.547  0.00  0.00    +0.000 NA
BRANCH  28  30
ATOM     30  C   UNL     1      -5.056  13.028  22.742  0.00  0.00    +0.000 C 
ATOM     31  C   UNL     1      -5.772  13.008  21.384  0.00  0.00    +0.000 C 
ATOM     32  C   UNL     1      -5.487  14.257  20.548  0.00  0.00    +0.000 C 
ATOM     33  N   UNL     1      -5.796  15.487  21.280  0.00  0.00    +0.000 NA
ATOM     34  C   UNL     1      -5.033  15.569  22.527  0.00  0.00    +0.000 C 
ATOM     35  C   UNL     1      -5.302  14.373  23.442  0.00  0.00    +0.000 C 
ATOM     36  H   UNL     1      -6.792  15.515  21.492  0.00  0.00    +0.000 HD
ENDBRANCH  28  30
ENDBRANCH   9  25
TORSDOF 5
ENDMDL
