MODEL 1
REMARK VINA RESULT:      -7.0      0.000      0.000
REMARK  Name = 
REMARK  6 active torsions:
REMARK  status: ('A' for Active; 'I' for Inactive)
REMARK    1  A    between atoms: C_1  and  N_2
REMARK    2  A    between atoms: N_2  and  C_3
REMARK    3  A    between atoms: C_4  and  O_6
REMARK    4  A    between atoms: O_6  and  N_7
REMARK    5  A    between atoms: C_8  and  C_9
REMARK    6  A    between atoms: C_8  and  C_11
REMARK                            x       y       z     vdW  Elec       q    Type
REMARK                         _______ _______ _______ _____ _____    ______ ____
ROOT
ATOM      1  N   UNL     1       4.665   5.107  18.056  0.00  0.00    +0.000 NA
ATOM      2  C   UNL     1       5.901   5.073  17.646  0.00  0.00    +0.000 C 
ENDROOT
BRANCH   2   3
ATOM      3  C   UNL     1       6.239   4.878  16.259  0.00  0.00    +0.000 A 
ATOM      4  N   UNL     1       7.211   5.492  15.602  0.00  0.00    +0.000 NA
ATOM      5  C   UNL     1       7.113   4.992  14.325  0.00  0.00    +0.000 A 
ATOM      6  C   UNL     1       7.859   5.256  13.169  0.00  0.00    +0.000 A 
ATOM      7  C   UNL     1       7.503   4.591  11.985  0.00  0.00    +0.000 A 
ATOM      8  C   UNL     1       6.433   3.686  11.956  0.00  0.00    +0.000 A 
ATOM      9  C   UNL     1       5.686   3.404  13.106  0.00  0.00    +0.000 A 
ATOM     10  C   UNL     1       6.069   4.084  14.257  0.00  0.00    +0.000 A 
ATOM     11  O   UNL     1       5.509   3.997  15.497  0.00  0.00    +0.000 OA
ENDBRANCH   2   3
BRANCH   2  12
ATOM     12  C   UNL     1       6.950   5.247  18.631  0.00  0.00    +0.000 C 
ATOM     13  N   UNL     1       7.801   5.401  19.410  0.00  0.00    +0.000 NA
ENDBRANCH   2  12
BRANCH   1  14
ATOM     14  O   UNL     1       4.524   5.311  19.452  0.00  0.00    +0.000 OA
BRANCH  14  18
ATOM     15  C   UNL     1       1.205   4.277  20.576  0.00  0.00    +0.000 C 
ATOM     16  N   UNL     1       2.606   4.256  20.209  0.00  0.00    +0.000 N 
ATOM     17  C   UNL     1       3.345   3.010  20.289  0.00  0.00    +0.000 C 
ATOM     18  C   UNL     1       3.186   5.447  19.780  0.00  0.00    +0.000 C 
ATOM     19  O   UNL     1       2.557   6.498  19.708  0.00  0.00    +0.000 OA
ENDBRANCH  14  18
ENDBRANCH   1  14
TORSDOF 4
ENDMDL
MODEL 2
REMARK VINA RESULT:      -7.0      0.853      1.305
REMARK  Name = 
REMARK  6 active torsions:
REMARK  status: ('A' for Active; 'I' for Inactive)
REMARK    1  A    between atoms: C_1  and  N_2
REMARK    2  A    between atoms: N_2  and  C_3
REMARK    3  A    between atoms: C_4  and  O_6
REMARK    4  A    between atoms: O_6  and  N_7
REMARK    5  A    between atoms: C_8  and  C_9
REMARK    6  A    between atoms: C_8  and  C_11
REMARK                            x       y       z     vdW  Elec       q    Type
REMARK                         _______ _______ _______ _____ _____    ______ ____
ROOT
ATOM      1  N   UNL     1       4.511   4.660  18.079  0.00  0.00    +0.000 NA
ATOM      2  C   UNL     1       5.745   4.845  17.707  0.00  0.00    +0.000 C 
ENDROOT
BRANCH   2   3
ATOM      3  C   UNL     1       6.150   4.743  16.328  0.00  0.00    +0.000 A 
ATOM      4  N   UNL     1       7.109   5.445  15.745  0.00  0.00    +0.000 NA
ATOM      5  C   UNL     1       7.091   5.008  14.441  0.00  0.00    +0.000 A 
ATOM      6  C   UNL     1       7.866   5.375  13.333  0.00  0.00    +0.000 A 
ATOM      7  C   UNL     1       7.597   4.754  12.103  0.00  0.00    +0.000 A 
ATOM      8  C   UNL     1       6.585   3.793  11.983  0.00  0.00    +0.000 A 
ATOM      9  C   UNL     1       5.810   3.409  13.084  0.00  0.00    +0.000 A 
ATOM     10  C   UNL     1       6.106   4.048  14.283  0.00  0.00    +0.000 A 
ATOM     11  O   UNL     1       5.503   3.864  15.492  0.00  0.00    +0.000 OA
ENDBRANCH   2   3
BRANCH   2  12
ATOM     12  C   UNL     1       6.722   5.172  18.727  0.00  0.00    +0.000 C 
ATOM     13  N   UNL     1       7.504   5.455  19.542  0.00  0.00    +0.000 NA
ENDBRANCH   2  12
BRANCH   1  14
ATOM     14  O   UNL     1       4.299   4.804  19.474  0.00  0.00    +0.000 OA
BRANCH  14  18
ATOM     15  C   UNL     1       1.590   2.959  21.088  0.00  0.00    +0.000 C 
ATOM     16  N   UNL     1       2.390   4.032  20.534  0.00  0.00    +0.000 N 
ATOM     17  C   UNL     1       1.896   5.395  20.596  0.00  0.00    +0.000 C 
ATOM     18  C   UNL     1       3.619   3.704  19.967  0.00  0.00    +0.000 C 
ATOM     19  O   UNL     1       4.037   2.551  19.920  0.00  0.00    +0.000 OA
ENDBRANCH  14  18
ENDBRANCH   1  14
TORSDOF 4
ENDMDL
MODEL 3
REMARK VINA RESULT:      -6.7      0.762      1.357
REMARK  Name = 
REMARK  6 active torsions:
REMARK  status: ('A' for Active; 'I' for Inactive)
REMARK    1  A    between atoms: C_1  and  N_2
REMARK    2  A    between atoms: N_2  and  C_3
REMARK    3  A    between atoms: C_4  and  O_6
REMARK    4  A    between atoms: O_6  and  N_7
REMARK    5  A    between atoms: C_8  and  C_9
REMARK    6  A    between atoms: C_8  and  C_11
REMARK                            x       y       z     vdW  Elec       q    Type
REMARK                         _______ _______ _______ _____ _____    ______ ____
ROOT
ATOM      1  N   UNL     1       4.673   5.140  18.005  0.00  0.00    +0.000 NA
ATOM      2  C   UNL     1       5.882   5.025  17.536  0.00  0.00    +0.000 C 
ENDROOT
BRANCH   2   3
ATOM      3  C   UNL     1       6.140   4.800  16.137  0.00  0.00    +0.000 A 
ATOM      4  N   UNL     1       5.517   3.925  15.362  0.00  0.00    +0.000 NA
ATOM      5  C   UNL     1       6.130   4.071  14.141  0.00  0.00    +0.000 A 
ATOM      6  C   UNL     1       5.919   3.422  12.917  0.00  0.00    +0.000 A 
ATOM      7  C   UNL     1       6.731   3.780  11.829  0.00  0.00    +0.000 A 
ATOM      8  C   UNL     1       7.724   4.760  11.958  0.00  0.00    +0.000 A 
ATOM      9  C   UNL     1       7.939   5.424  13.172  0.00  0.00    +0.000 A 
ATOM     10  C   UNL     1       7.116   5.040  14.224  0.00  0.00    +0.000 A 
ATOM     11  O   UNL     1       7.123   5.520  15.500  0.00  0.00    +0.000 OA
ENDBRANCH   2   3
BRANCH   2  12
ATOM     12  C   UNL     1       6.987   5.140  18.467  0.00  0.00    +0.000 C 
ATOM     13  N   UNL     1       7.868   5.251  19.221  0.00  0.00    +0.000 NA
ENDBRANCH   2  12
BRANCH   1  14
ATOM     14  O   UNL     1       4.613   5.360  19.405  0.00  0.00    +0.000 OA
BRANCH  14  18
ATOM     15  C   UNL     1       1.419   4.156  20.707  0.00  0.00    +0.000 C 
ATOM     16  N   UNL     1       2.794   4.205  20.252  0.00  0.00    +0.000 N 
ATOM     17  C   UNL     1       3.588   2.990  20.253  0.00  0.00    +0.000 C 
ATOM     18  C   UNL     1       3.295   5.430  19.819  0.00  0.00    +0.000 C 
ATOM     19  O   UNL     1       2.619   6.454  19.815  0.00  0.00    +0.000 OA
ENDBRANCH  14  18
ENDBRANCH   1  14
TORSDOF 4
ENDMDL
MODEL 4
REMARK VINA RESULT:      -6.6      1.221      1.946
REMARK  Name = 
REMARK  6 active torsions:
REMARK  status: ('A' for Active; 'I' for Inactive)
REMARK    1  A    between atoms: C_1  and  N_2
REMARK    2  A    between atoms: N_2  and  C_3
REMARK    3  A    between atoms: C_4  and  O_6
REMARK    4  A    between atoms: O_6  and  N_7
REMARK    5  A    between atoms: C_8  and  C_9
REMARK    6  A    between atoms: C_8  and  C_11
REMARK                            x       y       z     vdW  Elec       q    Type
REMARK                         _______ _______ _______ _____ _____    ______ ____
ROOT
ATOM      1  N   UNL     1       4.619   4.309  18.100  0.00  0.00    +0.000 NA
ATOM      2  C   UNL     1       5.790   4.627  17.625  0.00  0.00    +0.000 C 
ENDROOT
BRANCH   2   3
ATOM      3  C   UNL     1       6.090   4.549  16.218  0.00  0.00    +0.000 A 
ATOM      4  N   UNL     1       5.518   3.733  15.345  0.00  0.00    +0.000 NA
ATOM      5  C   UNL     1       6.156   4.019  14.161  0.00  0.00    +0.000 A 
ATOM      6  C   UNL     1       5.998   3.486  12.875  0.00  0.00    +0.000 A 
ATOM      7  C   UNL     1       6.823   3.977  11.850  0.00  0.00    +0.000 A 
ATOM      8  C   UNL     1       7.777   4.971  12.101  0.00  0.00    +0.000 A 
ATOM      9  C   UNL     1       7.938   5.520  13.380  0.00  0.00    +0.000 A 
ATOM     10  C   UNL     1       7.104   5.008  14.366  0.00  0.00    +0.000 A 
ATOM     11  O   UNL     1       7.062   5.360  15.683  0.00  0.00    +0.000 OA
ENDBRANCH   2   3
BRANCH   2  12
ATOM     12  C   UNL     1       6.803   5.078  18.558  0.00  0.00    +0.000 C 
ATOM     13  N   UNL     1       7.603   5.453  19.317  0.00  0.00    +0.000 NA
ENDBRANCH   2  12
BRANCH   1  14
ATOM     14  O   UNL     1       4.507   4.450  19.506  0.00  0.00    +0.000 OA
BRANCH  14  18
ATOM     15  C   UNL     1       1.745   2.729  21.165  0.00  0.00    +0.000 C 
ATOM     16  N   UNL     1       2.573   3.762  20.577  0.00  0.00    +0.000 N 
ATOM     17  C   UNL     1       2.107   5.136  20.581  0.00  0.00    +0.000 C 
ATOM     18  C   UNL     1       3.799   3.386  20.036  0.00  0.00    +0.000 C 
ATOM     19  O   UNL     1       4.193   2.223  20.038  0.00  0.00    +0.000 OA
ENDBRANCH  14  18
ENDBRANCH   1  14
TORSDOF 4
ENDMDL
MODEL 5
REMARK VINA RESULT:      -6.5      2.677      6.987
REMARK  Name = 
REMARK  6 active torsions:
REMARK  status: ('A' for Active; 'I' for Inactive)
REMARK    1  A    between atoms: C_1  and  N_2
REMARK    2  A    between atoms: N_2  and  C_3
REMARK    3  A    between atoms: C_4  and  O_6
REMARK    4  A    between atoms: O_6  and  N_7
REMARK    5  A    between atoms: C_8  and  C_9
REMARK    6  A    between atoms: C_8  and  C_11
REMARK                            x       y       z     vdW  Elec       q    Type
REMARK                         _______ _______ _______ _____ _____    ______ ____
ROOT
ATOM      1  N   UNL     1       4.758   5.552  16.402  0.00  0.00    +0.000 NA
ATOM      2  C   UNL     1       4.486   5.578  17.676  0.00  0.00    +0.000 C 
ENDROOT
BRANCH   2   3
ATOM      3  C   UNL     1       3.570   6.535  18.241  0.00  0.00    +0.000 A 
ATOM      4  N   UNL     1       3.046   6.486  19.456  0.00  0.00    +0.000 NA
ATOM      5  C   UNL     1       2.229   7.591  19.507  0.00  0.00    +0.000 A 
ATOM      6  C   UNL     1       1.402   8.083  20.526  0.00  0.00    +0.000 A 
ATOM      7  C   UNL     1       0.661   9.248  20.272  0.00  0.00    +0.000 A 
ATOM      8  C   UNL     1       0.743   9.903  19.037  0.00  0.00    +0.000 A 
ATOM      9  C   UNL     1       1.574   9.429  18.014  0.00  0.00    +0.000 A 
ATOM     10  C   UNL     1       2.290   8.274  18.304  0.00  0.00    +0.000 A 
ATOM     11  O   UNL     1       3.156   7.608  17.488  0.00  0.00    +0.000 OA
ENDBRANCH   2   3
BRANCH   2  12
ATOM     12  C   UNL     1       5.129   4.598  18.529  0.00  0.00    +0.000 C 
ATOM     13  N   UNL     1       5.655   3.826  19.224  0.00  0.00    +0.000 NA
ENDBRANCH   2  12
BRANCH   1  14
ATOM     14  O   UNL     1       5.678   4.541  16.027  0.00  0.00    +0.000 OA
BRANCH  14  18
ATOM     15  C   UNL     1       7.893   5.204  13.198  0.00  0.00    +0.000 C 
ATOM     16  N   UNL     1       6.813   4.687  14.014  0.00  0.00    +0.000 N 
ATOM     17  C   UNL     1       5.859   3.762  13.430  0.00  0.00    +0.000 C 
ATOM     18  C   UNL     1       6.744   5.098  15.342  0.00  0.00    +0.000 C 
ATOM     19  O   UNL     1       7.555   5.876  15.834  0.00  0.00    +0.000 OA
ENDBRANCH  14  18
ENDBRANCH   1  14
TORSDOF 4
ENDMDL
MODEL 6
REMARK VINA RESULT:      -6.5      4.531      7.036
REMARK  Name = 
REMARK  6 active torsions:
REMARK  status: ('A' for Active; 'I' for Inactive)
REMARK    1  A    between atoms: C_1  and  N_2
REMARK    2  A    between atoms: N_2  and  C_3
REMARK    3  A    between atoms: C_4  and  O_6
REMARK    4  A    between atoms: O_6  and  N_7
REMARK    5  A    between atoms: C_8  and  C_9
REMARK    6  A    between atoms: C_8  and  C_11
REMARK                            x       y       z     vdW  Elec       q    Type
REMARK                         _______ _______ _______ _____ _____    ______ ____
ROOT
ATOM      1  N   UNL     1       7.361   6.974  16.758  0.00  0.00    +0.000 NA
ATOM      2  C   UNL     1       7.786   7.324  17.939  0.00  0.00    +0.000 C 
ENDROOT
BRANCH   2   3
ATOM      3  C   UNL     1       8.259   8.657  18.215  0.00  0.00    +0.000 A 
ATOM      4  N   UNL     1       8.045   9.729  17.468  0.00  0.00    +0.000 NA
ATOM      5  C   UNL     1       8.713  10.731  18.131  0.00  0.00    +0.000 A 
ATOM      6  C   UNL     1       8.863  12.093  17.837  0.00  0.00    +0.000 A 
ATOM      7  C   UNL     1       9.633  12.878  18.711  0.00  0.00    +0.000 A 
ATOM      8  C   UNL     1      10.235  12.319  19.846  0.00  0.00    +0.000 A 
ATOM      9  C   UNL     1      10.084  10.962  20.157  0.00  0.00    +0.000 A 
ATOM     10  C   UNL     1       9.316  10.220  19.268  0.00  0.00    +0.000 A 
ATOM     11  O   UNL     1       9.022   8.890  19.335  0.00  0.00    +0.000 OA
ENDBRANCH   2   3
BRANCH   2  12
ATOM     12  C   UNL     1       7.764   6.330  18.993  0.00  0.00    +0.000 C 
ATOM     13  N   UNL     1       7.758   5.542  19.851  0.00  0.00    +0.000 NA
ENDBRANCH   2  12
BRANCH   1  14
ATOM     14  O   UNL     1       6.932   5.626  16.674  0.00  0.00    +0.000 OA
BRANCH  14  18
ATOM     15  C   UNL     1       5.916   3.795  13.680  0.00  0.00    +0.000 C 
ATOM     16  N   UNL     1       5.954   4.321  15.029  0.00  0.00    +0.000 N 
ATOM     17  C   UNL     1       4.931   3.924  15.978  0.00  0.00    +0.000 C 
ATOM     18  C   UNL     1       6.991   5.189  15.362  0.00  0.00    +0.000 C 
ATOM     19  O   UNL     1       7.858   5.519  14.559  0.00  0.00    +0.000 OA
ENDBRANCH  14  18
ENDBRANCH   1  14
TORSDOF 4
ENDMDL
MODEL 7
REMARK VINA RESULT:      -6.4      1.266      1.954
REMARK  Name = 
REMARK  6 active torsions:
REMARK  status: ('A' for Active; 'I' for Inactive)
REMARK    1  A    between atoms: C_1  and  N_2
REMARK    2  A    between atoms: N_2  and  C_3
REMARK    3  A    between atoms: C_4  and  O_6
REMARK    4  A    between atoms: O_6  and  N_7
REMARK    5  A    between atoms: C_8  and  C_9
REMARK    6  A    between atoms: C_8  and  C_11
REMARK                            x       y       z     vdW  Elec       q    Type
REMARK                         _______ _______ _______ _____ _____    ______ ____
ROOT
ATOM      1  N   UNL     1       5.396   4.232  18.254  0.00  0.00    +0.000 NA
ATOM      2  C   UNL     1       5.173   5.067  17.280  0.00  0.00    +0.000 C 
ENDROOT
BRANCH   2   3
ATOM      3  C   UNL     1       5.737   4.878  15.968  0.00  0.00    +0.000 A 
ATOM      4  N   UNL     1       6.779   5.525  15.469  0.00  0.00    +0.000 NA
ATOM      5  C   UNL     1       6.906   5.014  14.198  0.00  0.00    +0.000 A 
ATOM      6  C   UNL     1       7.819   5.300  13.174  0.00  0.00    +0.000 A 
ATOM      7  C   UNL     1       7.683   4.615  11.956  0.00  0.00    +0.000 A 
ATOM      8  C   UNL     1       6.666   3.671  11.766  0.00  0.00    +0.000 A 
ATOM      9  C   UNL     1       5.754   3.367  12.784  0.00  0.00    +0.000 A 
ATOM     10  C   UNL     1       5.921   4.067  13.973  0.00  0.00    +0.000 A 
ATOM     11  O   UNL     1       5.172   3.966  15.108  0.00  0.00    +0.000 OA
ENDBRANCH   2   3
BRANCH   2  12
ATOM     12  C   UNL     1       4.320   6.209  17.544  0.00  0.00    +0.000 C 
ATOM     13  N   UNL     1       3.619   7.115  17.752  0.00  0.00    +0.000 NA
ENDBRANCH   2  12
BRANCH   1  14
ATOM     14  O   UNL     1       4.757   4.579  19.471  0.00  0.00    +0.000 OA
BRANCH  14  18
ATOM     15  C   UNL     1       2.163   2.619  21.138  0.00  0.00    +0.000 C 
ATOM     16  N   UNL     1       2.884   3.716  20.525  0.00  0.00    +0.000 N 
ATOM     17  C   UNL     1       2.265   5.027  20.460  0.00  0.00    +0.000 C 
ATOM     18  C   UNL     1       4.160   3.462  20.030  0.00  0.00    +0.000 C 
ATOM     19  O   UNL     1       4.683   2.353  20.091  0.00  0.00    +0.000 OA
ENDBRANCH  14  18
ENDBRANCH   1  14
TORSDOF 4
ENDMDL
MODEL 8
REMARK VINA RESULT:      -6.4      4.480      6.971
REMARK  Name = 
REMARK  6 active torsions:
REMARK  status: ('A' for Active; 'I' for Inactive)
REMARK    1  A    between atoms: C_1  and  N_2
REMARK    2  A    between atoms: N_2  and  C_3
REMARK    3  A    between atoms: C_4  and  O_6
REMARK    4  A    between atoms: O_6  and  N_7
REMARK    5  A    between atoms: C_8  and  C_9
REMARK    6  A    between atoms: C_8  and  C_11
REMARK                            x       y       z     vdW  Elec       q    Type
REMARK                         _______ _______ _______ _____ _____    ______ ____
ROOT
ATOM      1  N   UNL     1       7.594   6.869  16.738  0.00  0.00    +0.000 NA
ATOM      2  C   UNL     1       7.881   7.244  17.952  0.00  0.00    +0.000 C 
ENDROOT
BRANCH   2   3
ATOM      3  C   UNL     1       8.320   8.583  18.253  0.00  0.00    +0.000 A 
ATOM      4  N   UNL     1       9.073   8.942  19.282  0.00  0.00    +0.000 NA
ATOM      5  C   UNL     1       9.189  10.305  19.145  0.00  0.00    +0.000 A 
ATOM      6  C   UNL     1       9.859  11.258  19.924  0.00  0.00    +0.000 A 
ATOM      7  C   UNL     1       9.781  12.604  19.534  0.00  0.00    +0.000 A 
ATOM      8  C   UNL     1       9.055  12.989  18.400  0.00  0.00    +0.000 A 
ATOM      9  C   UNL     1       8.389  12.046  17.606  0.00  0.00    +0.000 A 
ATOM     10  C   UNL     1       8.490  10.725  18.025  0.00  0.00    +0.000 A 
ATOM     11  O   UNL     1       7.937   9.624  17.441  0.00  0.00    +0.000 OA
ENDBRANCH   2   3
BRANCH   2  12
ATOM     12  C   UNL     1       7.738   6.271  19.017  0.00  0.00    +0.000 C 
ATOM     13  N   UNL     1       7.607   5.481  19.862  0.00  0.00    +0.000 NA
ENDBRANCH   2  12
BRANCH   1  14
ATOM     14  O   UNL     1       7.177   5.518  16.633  0.00  0.00    +0.000 OA
BRANCH  14  18
ATOM     15  C   UNL     1       5.866   3.827  13.671  0.00  0.00    +0.000 C 
ATOM     16  N   UNL     1       6.040   4.289  15.034  0.00  0.00    +0.000 N 
ATOM     17  C   UNL     1       5.117   3.840  16.060  0.00  0.00    +0.000 C 
ATOM     18  C   UNL     1       7.104   5.145  15.302  0.00  0.00    +0.000 C 
ATOM     19  O   UNL     1       7.886   5.518  14.433  0.00  0.00    +0.000 OA
ENDBRANCH  14  18
ENDBRANCH   1  14
TORSDOF 4
ENDMDL
MODEL 9
REMARK VINA RESULT:      -6.3      3.429      7.740
REMARK  Name = 
REMARK  6 active torsions:
REMARK  status: ('A' for Active; 'I' for Inactive)
REMARK    1  A    between atoms: C_1  and  N_2
REMARK    2  A    between atoms: N_2  and  C_3
REMARK    3  A    between atoms: C_4  and  O_6
REMARK    4  A    between atoms: O_6  and  N_7
REMARK    5  A    between atoms: C_8  and  C_9
REMARK    6  A    between atoms: C_8  and  C_11
REMARK                            x       y       z     vdW  Elec       q    Type
REMARK                         _______ _______ _______ _____ _____    ______ ____
ROOT
ATOM      1  N   UNL     1       3.930   5.666  19.541  0.00  0.00    +0.000 NA
ATOM      2  C   UNL     1       2.707   5.953  19.196  0.00  0.00    +0.000 C 
ENDROOT
BRANCH   2   3
ATOM      3  C   UNL     1       2.041   7.141  19.664  0.00  0.00    +0.000 A 
ATOM      4  N   UNL     1       1.917   8.278  18.997  0.00  0.00    +0.000 NA
ATOM      5  C   UNL     1       1.237   9.098  19.866  0.00  0.00    +0.000 A 
ATOM      6  C   UNL     1       0.810  10.427  19.741  0.00  0.00    +0.000 A 
ATOM      7  C   UNL     1       0.141  11.012  20.827  0.00  0.00    +0.000 A 
ATOM      8  C   UNL     1      -0.096  10.292  22.005  0.00  0.00    +0.000 A 
ATOM      9  C   UNL     1       0.315   8.960  22.140  0.00  0.00    +0.000 A 
ATOM     10  C   UNL     1       0.974   8.418  21.044  0.00  0.00    +0.000 A 
ATOM     11  O   UNL     1       1.479   7.157  20.919  0.00  0.00    +0.000 OA
ENDBRANCH   2   3
BRANCH   2  12
ATOM     12  C   UNL     1       2.020   5.040  18.305  0.00  0.00    +0.000 C 
ATOM     13  N   UNL     1       1.451   4.307  17.601  0.00  0.00    +0.000 NA
ENDBRANCH   2  12
BRANCH   1  14
ATOM     14  O   UNL     1       4.422   4.460  18.982  0.00  0.00    +0.000 OA
BRANCH  14  18
ATOM     15  C   UNL     1       7.362   4.541  16.815  0.00  0.00    +0.000 C 
ATOM     16  N   UNL     1       5.997   4.421  17.285  0.00  0.00    +0.000 N 
ATOM     17  C   UNL     1       4.943   4.109  16.337  0.00  0.00    +0.000 C 
ATOM     18  C   UNL     1       5.757   4.601  18.644  0.00  0.00    +0.000 C 
ATOM     19  O   UNL     1       6.651   4.860  19.444  0.00  0.00    +0.000 OA
ENDBRANCH  14  18
ENDBRANCH   1  14
TORSDOF 4
ENDMDL
