MODEL 1
REMARK VINA RESULT:      -7.6      0.000      0.000
REMARK  Name = 
REMARK  5 active torsions:
REMARK  status: ('A' for Active; 'I' for Inactive)
REMARK    1  A    between atoms: C_1  and  C_2
REMARK    2  A    between atoms: C_2  and  C_3
REMARK    3  A    between atoms: C_3  and  C_4
REMARK    4  A    between atoms: C_3  and  N_14
REMARK    5  A    between atoms: N_6  and  C_7
REMARK                            x       y       z     vdW  Elec       q    Type
REMARK                         _______ _______ _______ _____ _____    ______ ____
ROOT
ATOM      1  C   UNL     1       6.152   5.579  18.879  0.00  0.00    +0.000 C 
ATOM      2  O   UNL     1       6.666   5.331  19.968  0.00  0.00    +0.000 OA
ATOM      3  N   UNL     1       4.847   5.237  18.542  0.00  0.00    +0.000 N 
ATOM      4  H   UNL     1       4.553   5.368  17.582  0.00  0.00    +0.000 HD
ENDROOT
BRANCH   3   5
ATOM      5  C   UNL     1       3.895   4.650  19.416  0.00  0.00    +0.000 A 
ATOM      6  C   UNL     1       2.881   5.377  20.052  0.00  0.00    +0.000 A 
ATOM      7  C   UNL     1       2.006   4.758  20.948  0.00  0.00    +0.000 A 
ATOM      8  C   UNL     1       2.131   3.402  21.198  0.00  0.00    +0.000 A 
ATOM      9  F   UNL     1       1.308   2.813  22.077  0.00  0.00    +0.000 F 
ATOM     10  C   UNL     1       3.100   2.648  20.549  0.00  0.00    +0.000 A 
ATOM     11  C   UNL     1       3.977   3.270  19.650  0.00  0.00    +0.000 A 
ENDBRANCH   3   5
BRANCH   1  12
ATOM     12  C   UNL     1       6.949   6.306  17.771  0.00  0.00    +0.000 C 
BRANCH  12  13
ATOM     13  N   UNL     1       6.584   5.656  16.502  0.00  0.00    +0.000 N 
ATOM     14  C   UNL     1       5.495   5.987  15.741  0.00  0.00    +0.000 C 
ATOM     15  O   UNL     1       4.731   6.928  15.897  0.00  0.00    +0.000 OA
ATOM     16  C   UNL     1       5.352   4.992  14.631  0.00  0.00    +0.000 C 
ATOM     17  C   UNL     1       6.571   4.104  14.761  0.00  0.00    +0.000 C 
ATOM     18  C   UNL     1       7.222   4.548  16.037  0.00  0.00    +0.000 C 
ATOM     19  O   UNL     1       8.197   4.006  16.534  0.00  0.00    +0.000 OA
ENDBRANCH  12  13
BRANCH  12  21
ATOM     20  C   UNL     1       8.042   8.637  17.825  0.00  0.00    +0.000 C 
ATOM     21  C   UNL     1       6.767   7.824  17.700  0.00  0.00    +0.000 C 
ENDBRANCH  12  21
ENDBRANCH   1  12
TORSDOF 4
ENDMDL
MODEL 2
REMARK VINA RESULT:      -7.5      1.561      3.385
REMARK  Name = 
REMARK  5 active torsions:
REMARK  status: ('A' for Active; 'I' for Inactive)
REMARK    1  A    between atoms: C_1  and  C_2
REMARK    2  A    between atoms: C_2  and  C_3
REMARK    3  A    between atoms: C_3  and  C_4
REMARK    4  A    between atoms: C_3  and  N_14
REMARK    5  A    between atoms: N_6  and  C_7
REMARK                            x       y       z     vdW  Elec       q    Type
REMARK                         _______ _______ _______ _____ _____    ______ ____
ROOT
ATOM      1  C   UNL     1       4.543   3.723  16.833  0.00  0.00    +0.000 C 
ATOM      2  O   UNL     1       4.739   2.514  16.938  0.00  0.00    +0.000 OA
ATOM      3  N   UNL     1       3.638   4.433  17.615  0.00  0.00    +0.000 N 
ATOM      4  H   UNL     1       3.452   5.398  17.371  0.00  0.00    +0.000 HD
ENDROOT
BRANCH   3   5
ATOM      5  C   UNL     1       2.887   3.902  18.696  0.00  0.00    +0.000 A 
ATOM      6  C   UNL     1       1.502   3.700  18.646  0.00  0.00    +0.000 A 
ATOM      7  C   UNL     1       0.803   3.229  19.761  0.00  0.00    +0.000 A 
ATOM      8  C   UNL     1       1.493   2.940  20.927  0.00  0.00    +0.000 A 
ATOM      9  F   UNL     1       0.820   2.513  22.004  0.00  0.00    +0.000 F 
ATOM     10  C   UNL     1       2.872   3.092  20.990  0.00  0.00    +0.000 A 
ATOM     11  C   UNL     1       3.571   3.563  19.872  0.00  0.00    +0.000 A 
ENDBRANCH   3   5
BRANCH   1  12
ATOM     12  C   UNL     1       5.311   4.565  15.787  0.00  0.00    +0.000 C 
BRANCH  12  13
ATOM     13  N   UNL     1       6.110   5.540  16.545  0.00  0.00    +0.000 N 
ATOM     14  C   UNL     1       7.293   5.259  17.176  0.00  0.00    +0.000 C 
ATOM     15  O   UNL     1       7.943   4.226  17.120  0.00  0.00    +0.000 OA
ATOM     16  C   UNL     1       7.710   6.446  17.989  0.00  0.00    +0.000 C 
ATOM     17  C   UNL     1       6.686   7.510  17.656  0.00  0.00    +0.000 C 
ATOM     18  C   UNL     1       5.665   6.797  16.819  0.00  0.00    +0.000 C 
ATOM     19  O   UNL     1       4.627   7.304  16.424  0.00  0.00    +0.000 OA
ENDBRANCH  12  13
BRANCH  12  21
ATOM     20  C   UNL     1       5.695   3.812  13.355  0.00  0.00    +0.000 C 
ATOM     21  C   UNL     1       6.172   3.779  14.795  0.00  0.00    +0.000 C 
ENDBRANCH  12  21
ENDBRANCH   1  12
TORSDOF 4
ENDMDL
MODEL 3
REMARK VINA RESULT:      -7.5      0.140      1.085
REMARK  Name = 
REMARK  5 active torsions:
REMARK  status: ('A' for Active; 'I' for Inactive)
REMARK    1  A    between atoms: C_1  and  C_2
REMARK    2  A    between atoms: C_2  and  C_3
REMARK    3  A    between atoms: C_3  and  C_4
REMARK    4  A    between atoms: C_3  and  N_14
REMARK    5  A    between atoms: N_6  and  C_7
REMARK                            x       y       z     vdW  Elec       q    Type
REMARK                         _______ _______ _______ _____ _____    ______ ____
ROOT
ATOM      1  C   UNL     1       6.285   5.599  18.824  0.00  0.00    +0.000 C 
ATOM      2  O   UNL     1       6.819   5.410  19.915  0.00  0.00    +0.000 OA
ATOM      3  N   UNL     1       4.996   5.183  18.510  0.00  0.00    +0.000 N 
ATOM      4  H   UNL     1       4.688   5.269  17.550  0.00  0.00    +0.000 HD
ENDROOT
BRANCH   3   5
ATOM      5  C   UNL     1       4.081   4.576  19.410  0.00  0.00    +0.000 A 
ATOM      6  C   UNL     1       4.090   3.208  19.711  0.00  0.00    +0.000 A 
ATOM      7  C   UNL     1       3.130   2.652  20.560  0.00  0.00    +0.000 A 
ATOM      8  C   UNL     1       2.166   3.469  21.127  0.00  0.00    +0.000 A 
ATOM      9  F   UNL     1       1.229   2.932  21.922  0.00  0.00    +0.000 F 
ATOM     10  C   UNL     1       2.159   4.835  20.880  0.00  0.00    +0.000 A 
ATOM     11  C   UNL     1       3.123   5.392  20.029  0.00  0.00    +0.000 A 
ENDBRANCH   3   5
BRANCH   1  12
ATOM     12  C   UNL     1       7.036   6.331  17.688  0.00  0.00    +0.000 C 
BRANCH  12  13
ATOM     13  N   UNL     1       6.613   5.691  16.432  0.00  0.00    +0.000 N 
ATOM     14  C   UNL     1       5.501   6.041  15.714  0.00  0.00    +0.000 C 
ATOM     15  O   UNL     1       4.757   6.992  15.902  0.00  0.00    +0.000 OA
ATOM     16  C   UNL     1       5.300   5.053  14.606  0.00  0.00    +0.000 C 
ATOM     17  C   UNL     1       6.510   4.146  14.687  0.00  0.00    +0.000 C 
ATOM     18  C   UNL     1       7.217   4.575  15.938  0.00  0.00    +0.000 C 
ATOM     19  O   UNL     1       8.202   4.018  16.396  0.00  0.00    +0.000 OA
ENDBRANCH  12  13
BRANCH  12  21
ATOM     20  C   UNL     1       8.117   8.660  17.877  0.00  0.00    +0.000 C 
ATOM     21  C   UNL     1       6.857   7.850  17.635  0.00  0.00    +0.000 C 
ENDBRANCH  12  21
ENDBRANCH   1  12
TORSDOF 4
ENDMDL
MODEL 4
REMARK VINA RESULT:      -7.5      1.533      2.859
REMARK  Name = 
REMARK  5 active torsions:
REMARK  status: ('A' for Active; 'I' for Inactive)
REMARK    1  A    between atoms: C_1  and  C_2
REMARK    2  A    between atoms: C_2  and  C_3
REMARK    3  A    between atoms: C_3  and  C_4
REMARK    4  A    between atoms: C_3  and  N_14
REMARK    5  A    between atoms: N_6  and  C_7
REMARK                            x       y       z     vdW  Elec       q    Type
REMARK                         _______ _______ _______ _____ _____    ______ ____
ROOT
ATOM      1  C   UNL     1       4.428   3.655  17.030  0.00  0.00    +0.000 C 
ATOM      2  O   UNL     1       4.501   2.429  17.066  0.00  0.00    +0.000 OA
ATOM      3  N   UNL     1       3.634   4.411  17.885  0.00  0.00    +0.000 N 
ATOM      4  H   UNL     1       3.540   5.401  17.698  0.00  0.00    +0.000 HD
ENDROOT
BRANCH   3   5
ATOM      5  C   UNL     1       2.876   3.902  18.973  0.00  0.00    +0.000 A 
ATOM      6  C   UNL     1       1.484   4.023  19.064  0.00  0.00    +0.000 A 
ATOM      7  C   UNL     1       0.794   3.555  20.185  0.00  0.00    +0.000 A 
ATOM      8  C   UNL     1       1.495   2.947  21.214  0.00  0.00    +0.000 A 
ATOM      9  F   UNL     1       0.837   2.521  22.301  0.00  0.00    +0.000 F 
ATOM     10  C   UNL     1       2.871   2.777  21.130  0.00  0.00    +0.000 A 
ATOM     11  C   UNL     1       3.561   3.245  20.005  0.00  0.00    +0.000 A 
ENDBRANCH   3   5
BRANCH   1  12
ATOM     12  C   UNL     1       5.237   4.469  15.992  0.00  0.00    +0.000 C 
BRANCH  12  13
ATOM     13  N   UNL     1       5.985   5.483  16.752  0.00  0.00    +0.000 N 
ATOM     14  C   UNL     1       5.564   6.769  16.962  0.00  0.00    +0.000 C 
ATOM     15  O   UNL     1       4.479   7.256  16.683  0.00  0.00    +0.000 OA
ATOM     16  C   UNL     1       6.667   7.546  17.613  0.00  0.00    +0.000 C 
ATOM     17  C   UNL     1       7.748   6.519  17.875  0.00  0.00    +0.000 C 
ATOM     18  C   UNL     1       7.255   5.275  17.197  0.00  0.00    +0.000 C 
ATOM     19  O   UNL     1       7.897   4.240  17.110  0.00  0.00    +0.000 OA
ENDBRANCH  12  13
BRANCH  12  21
ATOM     20  C   UNL     1       6.036   3.977  13.594  0.00  0.00    +0.000 C 
ATOM     21  C   UNL     1       6.156   3.660  15.074  0.00  0.00    +0.000 C 
ENDBRANCH  12  21
ENDBRANCH   1  12
TORSDOF 4
ENDMDL
MODEL 5
REMARK VINA RESULT:      -7.5      1.489      2.939
REMARK  Name = 
REMARK  5 active torsions:
REMARK  status: ('A' for Active; 'I' for Inactive)
REMARK    1  A    between atoms: C_1  and  C_2
REMARK    2  A    between atoms: C_2  and  C_3
REMARK    3  A    between atoms: C_3  and  C_4
REMARK    4  A    between atoms: C_3  and  N_14
REMARK    5  A    between atoms: N_6  and  C_7
REMARK                            x       y       z     vdW  Elec       q    Type
REMARK                         _______ _______ _______ _____ _____    ______ ____
ROOT
ATOM      1  C   UNL     1       4.414   3.688  17.113  0.00  0.00    +0.000 C 
ATOM      2  O   UNL     1       4.385   2.460  17.100  0.00  0.00    +0.000 OA
ATOM      3  N   UNL     1       3.756   4.470  18.056  0.00  0.00    +0.000 N 
ATOM      4  H   UNL     1       3.733   5.472  17.911  0.00  0.00    +0.000 HD
ENDROOT
BRANCH   3   5
ATOM      5  C   UNL     1       3.044   3.981  19.182  0.00  0.00    +0.000 A 
ATOM      6  C   UNL     1       3.627   3.185  20.176  0.00  0.00    +0.000 A 
ATOM      7  C   UNL     1       2.866   2.682  21.233  0.00  0.00    +0.000 A 
ATOM      8  C   UNL     1       1.517   2.990  21.311  0.00  0.00    +0.000 A 
ATOM      9  F   UNL     1       0.781   2.487  22.311  0.00  0.00    +0.000 F 
ATOM     10  C   UNL     1       0.923   3.812  20.362  0.00  0.00    +0.000 A 
ATOM     11  C   UNL     1       1.688   4.316  19.303  0.00  0.00    +0.000 A 
ENDBRANCH   3   5
BRANCH   1  12
ATOM     12  C   UNL     1       5.207   4.475  16.042  0.00  0.00    +0.000 C 
BRANCH  12  13
ATOM     13  N   UNL     1       5.956   5.517  16.763  0.00  0.00    +0.000 N 
ATOM     14  C   UNL     1       5.522   6.803  16.949  0.00  0.00    +0.000 C 
ATOM     15  O   UNL     1       4.426   7.270  16.677  0.00  0.00    +0.000 OA
ATOM     16  C   UNL     1       6.626   7.609  17.560  0.00  0.00    +0.000 C 
ATOM     17  C   UNL     1       7.725   6.602  17.829  0.00  0.00    +0.000 C 
ATOM     18  C   UNL     1       7.235   5.336  17.191  0.00  0.00    +0.000 C 
ATOM     19  O   UNL     1       7.888   4.307  17.118  0.00  0.00    +0.000 OA
ENDBRANCH  12  13
BRANCH  12  21
ATOM     20  C   UNL     1       6.259   4.149  13.715  0.00  0.00    +0.000 C 
ATOM     21  C   UNL     1       6.122   3.645  15.140  0.00  0.00    +0.000 C 
ENDBRANCH  12  21
ENDBRANCH   1  12
TORSDOF 4
ENDMDL
MODEL 6
REMARK VINA RESULT:      -7.4      1.545      3.282
REMARK  Name = 
REMARK  5 active torsions:
REMARK  status: ('A' for Active; 'I' for Inactive)
REMARK    1  A    between atoms: C_1  and  C_2
REMARK    2  A    between atoms: C_2  and  C_3
REMARK    3  A    between atoms: C_3  and  C_4
REMARK    4  A    between atoms: C_3  and  N_14
REMARK    5  A    between atoms: N_6  and  C_7
REMARK                            x       y       z     vdW  Elec       q    Type
REMARK                         _______ _______ _______ _____ _____    ______ ____
ROOT
ATOM      1  C   UNL     1       4.530   3.761  17.074  0.00  0.00    +0.000 C 
ATOM      2  O   UNL     1       4.723   2.566  17.291  0.00  0.00    +0.000 OA
ATOM      3  N   UNL     1       3.616   4.539  17.776  0.00  0.00    +0.000 N 
ATOM      4  H   UNL     1       3.434   5.477  17.444  0.00  0.00    +0.000 HD
ENDROOT
BRANCH   3   5
ATOM      5  C   UNL     1       2.852   4.109  18.893  0.00  0.00    +0.000 A 
ATOM      6  C   UNL     1       3.144   4.474  20.213  0.00  0.00    +0.000 A 
ATOM      7  C   UNL     1       2.392   3.976  21.280  0.00  0.00    +0.000 A 
ATOM      8  C   UNL     1       1.332   3.121  21.028  0.00  0.00    +0.000 A 
ATOM      9  F   UNL     1       0.627   2.622  22.053  0.00  0.00    +0.000 F 
ATOM     10  C   UNL     1       0.994   2.776  19.726  0.00  0.00    +0.000 A 
ATOM     11  C   UNL     1       1.747   3.278  18.656  0.00  0.00    +0.000 A 
ENDBRANCH   3   5
BRANCH   1  12
ATOM     12  C   UNL     1       5.311   4.503  15.965  0.00  0.00    +0.000 C 
BRANCH  12  13
ATOM     13  N   UNL     1       6.134   5.517  16.644  0.00  0.00    +0.000 N 
ATOM     14  C   UNL     1       7.138   5.239  17.532  0.00  0.00    +0.000 C 
ATOM     15  O   UNL     1       7.606   4.146  17.816  0.00  0.00    +0.000 OA
ATOM     16  C   UNL     1       7.616   6.518  18.149  0.00  0.00    +0.000 C 
ATOM     17  C   UNL     1       6.850   7.599  17.415  0.00  0.00    +0.000 C 
ATOM     18  C   UNL     1       5.869   6.850  16.564  0.00  0.00    +0.000 C 
ATOM     19  O   UNL     1       5.005   7.381  15.883  0.00  0.00    +0.000 OA
ENDBRANCH  12  13
BRANCH  12  21
ATOM     20  C   UNL     1       6.380   4.189  13.643  0.00  0.00    +0.000 C 
ATOM     21  C   UNL     1       6.152   3.626  15.034  0.00  0.00    +0.000 C 
ENDBRANCH  12  21
ENDBRANCH   1  12
TORSDOF 4
ENDMDL
MODEL 7
REMARK VINA RESULT:      -7.3      3.193      4.530
REMARK  Name = 
REMARK  5 active torsions:
REMARK  status: ('A' for Active; 'I' for Inactive)
REMARK    1  A    between atoms: C_1  and  C_2
REMARK    2  A    between atoms: C_2  and  C_3
REMARK    3  A    between atoms: C_3  and  C_4
REMARK    4  A    between atoms: C_3  and  N_14
REMARK    5  A    between atoms: N_6  and  C_7
REMARK                            x       y       z     vdW  Elec       q    Type
REMARK                         _______ _______ _______ _____ _____    ______ ____
ROOT
ATOM      1  C   UNL     1       3.572   6.085  17.660  0.00  0.00    +0.000 C 
ATOM      2  O   UNL     1       2.763   5.274  18.105  0.00  0.00    +0.000 OA
ATOM      3  N   UNL     1       3.430   7.464  17.771  0.00  0.00    +0.000 N 
ATOM      4  H   UNL     1       4.079   8.052  17.264  0.00  0.00    +0.000 HD
ENDROOT
BRANCH   3   5
ATOM      5  C   UNL     1       2.401   8.133  18.484  0.00  0.00    +0.000 A 
ATOM      6  C   UNL     1       1.614   9.150  17.929  0.00  0.00    +0.000 A 
ATOM      7  C   UNL     1       0.653   9.815  18.694  0.00  0.00    +0.000 A 
ATOM      8  C   UNL     1       0.463   9.452  20.017  0.00  0.00    +0.000 A 
ATOM      9  F   UNL     1      -0.440  10.107  20.759  0.00  0.00    +0.000 F 
ATOM     10  C   UNL     1       1.200   8.419  20.582  0.00  0.00    +0.000 A 
ATOM     11  C   UNL     1       2.162   7.752  19.813  0.00  0.00    +0.000 A 
ENDBRANCH   3   5
BRANCH   1  12
ATOM     12  C   UNL     1       4.844   5.613  16.916  0.00  0.00    +0.000 C 
BRANCH  12  13
ATOM     13  N   UNL     1       5.975   5.876  17.820  0.00  0.00    +0.000 N 
ATOM     14  C   UNL     1       6.945   6.817  17.603  0.00  0.00    +0.000 C 
ATOM     15  O   UNL     1       6.981   7.666  16.725  0.00  0.00    +0.000 OA
ATOM     16  C   UNL     1       8.018   6.665  18.637  0.00  0.00    +0.000 C 
ATOM     17  C   UNL     1       7.493   5.593  19.569  0.00  0.00    +0.000 C 
ATOM     18  C   UNL     1       6.247   5.092  18.900  0.00  0.00    +0.000 C 
ATOM     19  O   UNL     1       5.579   4.154  19.306  0.00  0.00    +0.000 OA
ENDBRANCH  12  13
BRANCH  12  21
ATOM     20  C   UNL     1       5.969   3.786  15.493  0.00  0.00    +0.000 C 
ATOM     21  C   UNL     1       4.836   4.162  16.430  0.00  0.00    +0.000 C 
ENDBRANCH  12  21
ENDBRANCH   1  12
TORSDOF 4
ENDMDL
MODEL 8
REMARK VINA RESULT:      -7.3      1.473      3.056
REMARK  Name = 
REMARK  5 active torsions:
REMARK  status: ('A' for Active; 'I' for Inactive)
REMARK    1  A    between atoms: C_1  and  C_2
REMARK    2  A    between atoms: C_2  and  C_3
REMARK    3  A    between atoms: C_3  and  C_4
REMARK    4  A    between atoms: C_3  and  N_14
REMARK    5  A    between atoms: N_6  and  C_7
REMARK                            x       y       z     vdW  Elec       q    Type
REMARK                         _______ _______ _______ _____ _____    ______ ____
ROOT
ATOM      1  C   UNL     1       4.286   4.898  17.201  0.00  0.00    +0.000 C 
ATOM      2  O   UNL     1       3.894   3.859  16.674  0.00  0.00    +0.000 OA
ATOM      3  N   UNL     1       3.896   5.321  18.467  0.00  0.00    +0.000 N 
ATOM      4  H   UNL     1       4.169   6.249  18.764  0.00  0.00    +0.000 HD
ENDROOT
BRANCH   3   5
ATOM      5  C   UNL     1       3.081   4.587  19.368  0.00  0.00    +0.000 A 
ATOM      6  C   UNL     1       1.741   4.903  19.627  0.00  0.00    +0.000 A 
ATOM      7  C   UNL     1       1.001   4.182  20.567  0.00  0.00    +0.000 A 
ATOM      8  C   UNL     1       1.595   3.128  21.241  0.00  0.00    +0.000 A 
ATOM      9  F   UNL     1       0.894   2.453  22.162  0.00  0.00    +0.000 F 
ATOM     10  C   UNL     1       2.910   2.767  20.974  0.00  0.00    +0.000 A 
ATOM     11  C   UNL     1       3.650   3.490  20.029  0.00  0.00    +0.000 A 
ENDBRANCH   3   5
BRANCH   1  12
ATOM     12  C   UNL     1       5.266   5.841  16.464  0.00  0.00    +0.000 C 
BRANCH  12  13
ATOM     13  N   UNL     1       6.417   6.027  17.363  0.00  0.00    +0.000 N 
ATOM     14  C   UNL     1       6.889   5.080  18.232  0.00  0.00    +0.000 C 
ATOM     15  O   UNL     1       6.542   3.912  18.327  0.00  0.00    +0.000 OA
ATOM     16  C   UNL     1       7.944   5.694  19.101  0.00  0.00    +0.000 C 
ATOM     17  C   UNL     1       8.122   7.092  18.547  0.00  0.00    +0.000 C 
ATOM     18  C   UNL     1       7.036   7.229  17.522  0.00  0.00    +0.000 C 
ATOM     19  O   UNL     1       6.795   8.258  16.911  0.00  0.00    +0.000 OA
ENDBRANCH  12  13
BRANCH  12  21
ATOM     20  C   UNL     1       7.079   4.749  14.998  0.00  0.00    +0.000 C 
ATOM     21  C   UNL     1       5.707   5.394  15.069  0.00  0.00    +0.000 C 
ENDBRANCH  12  21
ENDBRANCH   1  12
TORSDOF 4
ENDMDL
MODEL 9
REMARK VINA RESULT:      -7.3      3.281      4.661
REMARK  Name = 
REMARK  5 active torsions:
REMARK  status: ('A' for Active; 'I' for Inactive)
REMARK    1  A    between atoms: C_1  and  C_2
REMARK    2  A    between atoms: C_2  and  C_3
REMARK    3  A    between atoms: C_3  and  C_4
REMARK    4  A    between atoms: C_3  and  N_14
REMARK    5  A    between atoms: N_6  and  C_7
REMARK                            x       y       z     vdW  Elec       q    Type
REMARK                         _______ _______ _______ _____ _____    ______ ____
ROOT
ATOM      1  C   UNL     1       3.550   6.129  17.720  0.00  0.00    +0.000 C 
ATOM      2  O   UNL     1       2.760   5.333  18.222  0.00  0.00    +0.000 OA
ATOM      3  N   UNL     1       3.400   7.511  17.777  0.00  0.00    +0.000 N 
ATOM      4  H   UNL     1       4.031   8.081  17.227  0.00  0.00    +0.000 HD
ENDROOT
BRANCH   3   5
ATOM      5  C   UNL     1       2.387   8.203  18.491  0.00  0.00    +0.000 A 
ATOM      6  C   UNL     1       2.070   7.938  19.829  0.00  0.00    +0.000 A 
ATOM      7  C   UNL     1       1.024   8.609  20.466  0.00  0.00    +0.000 A 
ATOM      8  C   UNL     1       0.301   9.564  19.771  0.00  0.00    +0.000 A 
ATOM      9  F   UNL     1      -0.719  10.190  20.373  0.00  0.00    +0.000 F 
ATOM     10  C   UNL     1       0.622   9.877  18.456  0.00  0.00    +0.000 A 
ATOM     11  C   UNL     1       1.672   9.204  17.818  0.00  0.00    +0.000 A 
ENDBRANCH   3   5
BRANCH   1  12
ATOM     12  C   UNL     1       4.803   5.634  16.961  0.00  0.00    +0.000 C 
BRANCH  12  13
ATOM     13  N   UNL     1       5.950   5.877  17.850  0.00  0.00    +0.000 N 
ATOM     14  C   UNL     1       6.936   6.799  17.618  0.00  0.00    +0.000 C 
ATOM     15  O   UNL     1       6.977   7.645  16.737  0.00  0.00    +0.000 OA
ATOM     16  C   UNL     1       8.018   6.628  18.639  0.00  0.00    +0.000 C 
ATOM     17  C   UNL     1       7.485   5.569  19.581  0.00  0.00    +0.000 C 
ATOM     18  C   UNL     1       6.221   5.091  18.928  0.00  0.00    +0.000 C 
ATOM     19  O   UNL     1       5.540   4.167  19.345  0.00  0.00    +0.000 OA
ENDBRANCH  12  13
BRANCH  12  21
ATOM     20  C   UNL     1       5.885   3.782  15.536  0.00  0.00    +0.000 C 
ATOM     21  C   UNL     1       4.764   4.183  16.476  0.00  0.00    +0.000 C 
ENDBRANCH  12  21
ENDBRANCH   1  12
TORSDOF 4
ENDMDL
