MODEL 1
REMARK VINA RESULT:      -8.1      0.000      0.000
REMARK  Name = 
REMARK  7 active torsions:
REMARK  status: ('A' for Active; 'I' for Inactive)
REMARK    1  A    between atoms: C_1  and  C_2
REMARK    2  A    between atoms: C_2  and  C_3
REMARK    3  A    between atoms: C_8  and  N_9
REMARK    4  A    between atoms: C_10  and  C_12
REMARK    5  A    between atoms: C_22  and  C_23
REMARK    6  A    between atoms: C_26  and  C_27
REMARK    7  A    between atoms: C_26  and  C_28
REMARK                            x       y       z     vdW  Elec       q    Type
REMARK                         _______ _______ _______ _____ _____    ______ ____
ROOT
ATOM      1  C   UNL     1      -3.428  12.604  21.906  0.00  0.00    +0.000 C 
ATOM      2  C   UNL     1      -2.040  13.266  21.814  0.00  0.00    +0.000 C 
ATOM      3  C   UNL     1      -2.118  14.551  22.677  0.00  0.00    +0.000 C 
ATOM      4  C   UNL     1      -0.915  12.286  22.337  0.00  0.00    +0.000 C 
ATOM      5  C   UNL     1      -0.479  11.292  21.261  0.00  0.00    +0.000 A 
ATOM      6  C   UNL     1      -0.817  11.526  19.940  0.00  0.00    +0.000 A 
ATOM      7  S   UNL     1      -0.353  10.259  18.910  0.00  0.00    +0.000 S 
ATOM      8  C   UNL     1       0.451   9.451  20.156  0.00  0.00    +0.000 A 
ATOM      9  C   UNL     1       0.311  10.060  21.400  0.00  0.00    +0.000 A 
ATOM     10  C   UNL     1      -1.546  12.733  19.397  0.00  0.00    +0.000 C 
ATOM     11  C   UNL     1      -2.884  12.332  18.751  0.00  0.00    +0.000 C 
ATOM     12  C   UNL     1      -0.675  13.426  18.324  0.00  0.00    +0.000 C 
ATOM     13  N   UNL     1      -1.740  13.751  20.448  0.00  0.00    +0.000 NA
ATOM     14  H   UNL     1      -2.430  14.434  20.143  0.00  0.00    +0.000 HD
ENDROOT
BRANCH   9  15
ATOM     15  C   UNL     1       0.852   9.505  22.641  0.00  0.00    +0.000 C 
ATOM     16  N   UNL     1      -0.069   9.249  23.618  0.00  0.00    +0.000 N 
ATOM     17  O   UNL     1       2.050   9.304  22.840  0.00  0.00    +0.000 OA
ATOM     18  H   UNL     1      -0.976   9.691  23.590  0.00  0.00    +0.000 HD
ATOM     19  H   UNL     1       0.295   8.999  24.537  0.00  0.00    +0.000 HD
ENDBRANCH   9  15
BRANCH   8  20
ATOM     20  N   UNL     1       1.223   8.380  19.718  0.00  0.00    +0.000 N 
ATOM     21  C   UNL     1       2.091   8.575  18.649  0.00  0.00    +0.000 C 
ATOM     22  O   UNL     1       2.169   9.615  17.999  0.00  0.00    +0.000 OA
ATOM     23  H   UNL     1       0.915   7.446  19.950  0.00  0.00    +0.000 HD
BRANCH  21  24
ATOM     24  C   UNL     1       2.893   7.405  18.191  0.00  0.00    +0.000 A 
ATOM     25  C   UNL     1       2.540   6.144  18.701  0.00  0.00    +0.000 A 
ATOM     26  C   UNL     1       3.216   4.993  18.297  0.00  0.00    +0.000 A 
ATOM     27  C   UNL     1       4.249   5.094  17.373  0.00  0.00    +0.000 A 
ATOM     28  C   UNL     1       4.590   6.342  16.837  0.00  0.00    +0.000 A 
ATOM     29  C   UNL     1       3.924   7.502  17.249  0.00  0.00    +0.000 A 
ATOM     30  O   UNL     1       5.575   6.499  15.894  0.00  0.00    +0.000 OA
ATOM     31  C   UNL     1       5.907   5.249  15.272  0.00  0.00    +0.000 C 
ATOM     32  C   UNL     1       6.083   4.153  16.310  0.00  0.00    +0.000 C 
ATOM     33  O   UNL     1       4.864   3.921  17.021  0.00  0.00    +0.000 OA
ENDBRANCH  21  24
ENDBRANCH   8  20
TORSDOF 3
ENDMDL
MODEL 2
REMARK VINA RESULT:      -8.1      1.228      1.354
REMARK  Name = 
REMARK  7 active torsions:
REMARK  status: ('A' for Active; 'I' for Inactive)
REMARK    1  A    between atoms: C_1  and  C_2
REMARK    2  A    between atoms: C_2  and  C_3
REMARK    3  A    between atoms: C_8  and  N_9
REMARK    4  A    between atoms: C_10  and  C_12
REMARK    5  A    between atoms: C_22  and  C_23
REMARK    6  A    between atoms: C_26  and  C_27
REMARK    7  A    between atoms: C_26  and  C_28
REMARK                            x       y       z     vdW  Elec       q    Type
REMARK                         _______ _______ _______ _____ _____    ______ ____
ROOT
ATOM      1  C   UNL     1      -2.922  13.576  20.780  0.00  0.00    +0.000 C 
ATOM      2  C   UNL     1      -1.795  13.678  21.826  0.00  0.00    +0.000 C 
ATOM      3  C   UNL     1      -2.364  14.529  22.989  0.00  0.00    +0.000 C 
ATOM      4  C   UNL     1      -1.357  12.242  22.321  0.00  0.00    +0.000 C 
ATOM      5  C   UNL     1      -0.365  11.585  21.361  0.00  0.00    +0.000 A 
ATOM      6  C   UNL     1       0.276  12.359  20.410  0.00  0.00    +0.000 A 
ATOM      7  S   UNL     1       1.244  11.440  19.362  0.00  0.00    +0.000 S 
ATOM      8  C   UNL     1       0.970  10.024  20.241  0.00  0.00    +0.000 A 
ATOM      9  C   UNL     1       0.067  10.182  21.289  0.00  0.00    +0.000 A 
ATOM     10  C   UNL     1       0.158  13.855  20.236  0.00  0.00    +0.000 C 
ATOM     11  C   UNL     1      -0.426  14.211  18.858  0.00  0.00    +0.000 C 
ATOM     12  C   UNL     1       1.556  14.504  20.356  0.00  0.00    +0.000 C 
ATOM     13  N   UNL     1      -0.637  14.452  21.328  0.00  0.00    +0.000 NA
ATOM     14  H   UNL     1      -0.912  15.399  21.075  0.00  0.00    +0.000 HD
ENDROOT
BRANCH   9  15
ATOM     15  C   UNL     1      -0.386   9.083  22.142  0.00  0.00    +0.000 C 
ATOM     16  N   UNL     1      -0.340   9.330  23.486  0.00  0.00    +0.000 N 
ATOM     17  O   UNL     1      -0.755   7.989  21.717  0.00  0.00    +0.000 OA
ATOM     18  H   UNL     1       0.239  10.074  23.847  0.00  0.00    +0.000 HD
ATOM     19  H   UNL     1      -0.513   8.537  24.103  0.00  0.00    +0.000 HD
ENDBRANCH   9  15
BRANCH   8  20
ATOM     20  N   UNL     1       1.783   8.963  19.855  0.00  0.00    +0.000 N 
ATOM     21  C   UNL     1       1.817   8.601  18.512  0.00  0.00    +0.000 C 
ATOM     22  O   UNL     1       1.110   9.102  17.641  0.00  0.00    +0.000 OA
ATOM     23  H   UNL     1       2.061   8.296  20.561  0.00  0.00    +0.000 HD
BRANCH  21  24
ATOM     24  C   UNL     1       2.684   7.451  18.131  0.00  0.00    +0.000 A 
ATOM     25  C   UNL     1       2.274   6.172  18.545  0.00  0.00    +0.000 A 
ATOM     26  C   UNL     1       3.009   5.037  18.200  0.00  0.00    +0.000 A 
ATOM     27  C   UNL     1       4.158   5.174  17.431  0.00  0.00    +0.000 A 
ATOM     28  C   UNL     1       4.559   6.441  16.989  0.00  0.00    +0.000 A 
ATOM     29  C   UNL     1       3.833   7.583  17.343  0.00  0.00    +0.000 A 
ATOM     30  O   UNL     1       5.664   6.633  16.196  0.00  0.00    +0.000 OA
ATOM     31  C   UNL     1       6.089   5.406  15.585  0.00  0.00    +0.000 C 
ATOM     32  C   UNL     1       6.129   4.276  16.600  0.00  0.00    +0.000 C 
ATOM     33  O   UNL     1       4.825   4.015  17.128  0.00  0.00    +0.000 OA
ENDBRANCH  21  24
ENDBRANCH   8  20
TORSDOF 3
ENDMDL
MODEL 3
REMARK VINA RESULT:      -8.0      2.056      3.289
REMARK  Name = 
REMARK  7 active torsions:
REMARK  status: ('A' for Active; 'I' for Inactive)
REMARK    1  A    between atoms: C_1  and  C_2
REMARK    2  A    between atoms: C_2  and  C_3
REMARK    3  A    between atoms: C_8  and  N_9
REMARK    4  A    between atoms: C_10  and  C_12
REMARK    5  A    between atoms: C_22  and  C_23
REMARK    6  A    between atoms: C_26  and  C_27
REMARK    7  A    between atoms: C_26  and  C_28
REMARK                            x       y       z     vdW  Elec       q    Type
REMARK                         _______ _______ _______ _____ _____    ______ ____
ROOT
ATOM      1  C   UNL     1      -1.199  15.083  22.053  0.00  0.00    +0.000 C 
ATOM      2  C   UNL     1      -1.548  15.128  20.553  0.00  0.00    +0.000 C 
ATOM      3  C   UNL     1      -1.932  16.597  20.245  0.00  0.00    +0.000 C 
ATOM      4  C   UNL     1      -0.320  14.655  19.677  0.00  0.00    +0.000 C 
ATOM      5  C   UNL     1      -0.241  13.131  19.582  0.00  0.00    +0.000 A 
ATOM      6  C   UNL     1      -1.337  12.368  19.942  0.00  0.00    +0.000 A 
ATOM      7  S   UNL     1      -1.023  10.701  19.885  0.00  0.00    +0.000 S 
ATOM      8  C   UNL     1       0.513  10.945  19.224  0.00  0.00    +0.000 A 
ATOM      9  C   UNL     1       0.870  12.286  19.119  0.00  0.00    +0.000 A 
ATOM     10  C   UNL     1      -2.688  12.883  20.380  0.00  0.00    +0.000 C 
ATOM     11  C   UNL     1      -3.013  12.441  21.819  0.00  0.00    +0.000 C 
ATOM     12  C   UNL     1      -3.784  12.329  19.442  0.00  0.00    +0.000 C 
ATOM     13  N   UNL     1      -2.767  14.350  20.238  0.00  0.00    +0.000 NA
ATOM     14  H   UNL     1      -3.570  14.703  20.754  0.00  0.00    +0.000 HD
ENDROOT
BRANCH   9  15
ATOM     15  C   UNL     1       2.177  12.744  18.648  0.00  0.00    +0.000 C 
ATOM     16  N   UNL     1       2.518  12.342  17.386  0.00  0.00    +0.000 N 
ATOM     17  O   UNL     1       2.957  13.413  19.326  0.00  0.00    +0.000 OA
ATOM     18  H   UNL     1       2.049  11.558  16.958  0.00  0.00    +0.000 HD
ATOM     19  H   UNL     1       3.477  12.525  17.091  0.00  0.00    +0.000 HD
ENDBRANCH   9  15
BRANCH   8  20
ATOM     20  N   UNL     1       1.119   9.775  18.779  0.00  0.00    +0.000 N 
ATOM     21  C   UNL     1       1.557   8.849  19.721  0.00  0.00    +0.000 C 
ATOM     22  O   UNL     1       1.523   9.027  20.936  0.00  0.00    +0.000 OA
ATOM     23  H   UNL     1       1.512   9.768  17.848  0.00  0.00    +0.000 HD
BRANCH  21  24
ATOM     24  C   UNL     1       2.217   7.613  19.215  0.00  0.00    +0.000 A 
ATOM     25  C   UNL     1       2.915   7.708  17.999  0.00  0.00    +0.000 A 
ATOM     26  C   UNL     1       3.592   6.607  17.473  0.00  0.00    +0.000 A 
ATOM     27  C   UNL     1       3.579   5.402  18.164  0.00  0.00    +0.000 A 
ATOM     28  C   UNL     1       2.911   5.304  19.390  0.00  0.00    +0.000 A 
ATOM     29  C   UNL     1       2.220   6.401  19.916  0.00  0.00    +0.000 A 
ATOM     30  O   UNL     1       2.896   4.151  20.135  0.00  0.00    +0.000 OA
ATOM     31  C   UNL     1       3.927   3.245  19.718  0.00  0.00    +0.000 C 
ATOM     32  C   UNL     1       3.957   3.113  18.204  0.00  0.00    +0.000 C 
ATOM     33  O   UNL     1       4.269   4.367  17.588  0.00  0.00    +0.000 OA
ENDBRANCH  21  24
ENDBRANCH   8  20
TORSDOF 3
ENDMDL
MODEL 4
REMARK VINA RESULT:      -7.9      1.860      3.159
REMARK  Name = 
REMARK  7 active torsions:
REMARK  status: ('A' for Active; 'I' for Inactive)
REMARK    1  A    between atoms: C_1  and  C_2
REMARK    2  A    between atoms: C_2  and  C_3
REMARK    3  A    between atoms: C_8  and  N_9
REMARK    4  A    between atoms: C_10  and  C_12
REMARK    5  A    between atoms: C_22  and  C_23
REMARK    6  A    between atoms: C_26  and  C_27
REMARK    7  A    between atoms: C_26  and  C_28
REMARK                            x       y       z     vdW  Elec       q    Type
REMARK                         _______ _______ _______ _____ _____    ______ ____
ROOT
ATOM      1  C   UNL     1      -2.741  14.882  20.529  0.00  0.00    +0.000 C 
ATOM      2  C   UNL     1      -3.415  13.540  20.869  0.00  0.00    +0.000 C 
ATOM      3  C   UNL     1      -4.917  13.854  21.080  0.00  0.00    +0.000 C 
ATOM      4  C   UNL     1      -3.201  12.492  19.704  0.00  0.00    +0.000 C 
ATOM      5  C   UNL     1      -1.842  11.800  19.802  0.00  0.00    +0.000 A 
ATOM      6  C   UNL     1      -1.121  11.879  20.979  0.00  0.00    +0.000 A 
ATOM      7  S   UNL     1       0.410  11.155  20.861  0.00  0.00    +0.000 S 
ATOM      8  C   UNL     1       0.088  10.574  19.307  0.00  0.00    +0.000 A 
ATOM      9  C   UNL     1      -1.138  10.991  18.796  0.00  0.00    +0.000 A 
ATOM     10  C   UNL     1      -1.559  12.546  22.262  0.00  0.00    +0.000 C 
ATOM     11  C   UNL     1      -0.619  13.707  22.637  0.00  0.00    +0.000 C 
ATOM     12  C   UNL     1      -1.545  11.516  23.415  0.00  0.00    +0.000 C 
ATOM     13  N   UNL     1      -2.961  12.998  22.170  0.00  0.00    +0.000 NA
ATOM     14  H   UNL     1      -3.164  13.648  22.927  0.00  0.00    +0.000 HD
ENDROOT
BRANCH   9  15
ATOM     15  C   UNL     1      -1.602  10.680  17.444  0.00  0.00    +0.000 C 
ATOM     16  N   UNL     1      -1.951  11.761  16.683  0.00  0.00    +0.000 N 
ATOM     17  O   UNL     1      -1.718   9.538  17.002  0.00  0.00    +0.000 OA
ATOM     18  H   UNL     1      -2.159  12.646  17.122  0.00  0.00    +0.000 HD
ATOM     19  H   UNL     1      -2.411  11.566  15.794  0.00  0.00    +0.000 HD
ENDBRANCH   9  15
BRANCH   8  20
ATOM     20  N   UNL     1       1.043   9.677  18.840  0.00  0.00    +0.000 N 
ATOM     21  C   UNL     1       1.309   8.534  19.588  0.00  0.00    +0.000 C 
ATOM     22  O   UNL     1       0.818   8.296  20.689  0.00  0.00    +0.000 OA
ATOM     23  H   UNL     1       1.727  10.012  18.177  0.00  0.00    +0.000 HD
BRANCH  21  24
ATOM     24  C   UNL     1       2.347   7.599  19.070  0.00  0.00    +0.000 A 
ATOM     25  C   UNL     1       2.536   6.396  19.772  0.00  0.00    +0.000 A 
ATOM     26  C   UNL     1       3.462   5.449  19.334  0.00  0.00    +0.000 A 
ATOM     27  C   UNL     1       4.204   5.697  18.186  0.00  0.00    +0.000 A 
ATOM     28  C   UNL     1       4.003   6.880  17.463  0.00  0.00    +0.000 A 
ATOM     29  C   UNL     1       3.085   7.839  17.905  0.00  0.00    +0.000 A 
ATOM     30  O   UNL     1       4.680   7.162  16.302  0.00  0.00    +0.000 OA
ATOM     31  C   UNL     1       5.278   5.984  15.745  0.00  0.00    +0.000 C 
ATOM     32  C   UNL     1       6.004   5.183  16.815  0.00  0.00    +0.000 C 
ATOM     33  O   UNL     1       5.091   4.720  17.815  0.00  0.00    +0.000 OA
ENDBRANCH  21  24
ENDBRANCH   8  20
TORSDOF 3
ENDMDL
MODEL 5
REMARK VINA RESULT:      -7.8      1.930      3.498
REMARK  Name = 
REMARK  7 active torsions:
REMARK  status: ('A' for Active; 'I' for Inactive)
REMARK    1  A    between atoms: C_1  and  C_2
REMARK    2  A    between atoms: C_2  and  C_3
REMARK    3  A    between atoms: C_8  and  N_9
REMARK    4  A    between atoms: C_10  and  C_12
REMARK    5  A    between atoms: C_22  and  C_23
REMARK    6  A    between atoms: C_26  and  C_27
REMARK    7  A    between atoms: C_26  and  C_28
REMARK                            x       y       z     vdW  Elec       q    Type
REMARK                         _______ _______ _______ _____ _____    ______ ____
ROOT
ATOM      1  C   UNL     1      -2.755  14.856  20.589  0.00  0.00    +0.000 C 
ATOM      2  C   UNL     1      -3.466  13.521  20.885  0.00  0.00    +0.000 C 
ATOM      3  C   UNL     1      -4.957  13.871  21.123  0.00  0.00    +0.000 C 
ATOM      4  C   UNL     1      -3.294  12.513  19.679  0.00  0.00    +0.000 C 
ATOM      5  C   UNL     1      -1.955  11.778  19.737  0.00  0.00    +0.000 A 
ATOM      6  C   UNL     1      -1.220  11.792  20.909  0.00  0.00    +0.000 A 
ATOM      7  S   UNL     1       0.287  11.028  20.747  0.00  0.00    +0.000 S 
ATOM      8  C   UNL     1      -0.066  10.517  19.176  0.00  0.00    +0.000 A 
ATOM      9  C   UNL     1      -1.284  10.988  18.694  0.00  0.00    +0.000 A 
ATOM     10  C   UNL     1      -1.627  12.422  22.220  0.00  0.00    +0.000 C 
ATOM     11  C   UNL     1      -0.650  13.540  22.628  0.00  0.00    +0.000 C 
ATOM     12  C   UNL     1      -1.632  11.349  23.333  0.00  0.00    +0.000 C 
ATOM     13  N   UNL     1      -3.016  12.918  22.160  0.00  0.00    +0.000 NA
ATOM     14  H   UNL     1      -3.192  13.544  22.943  0.00  0.00    +0.000 HD
ENDROOT
BRANCH   9  15
ATOM     15  C   UNL     1      -1.770  10.743  17.336  0.00  0.00    +0.000 C 
ATOM     16  N   UNL     1      -1.970  11.861  16.576  0.00  0.00    +0.000 N 
ATOM     17  O   UNL     1      -2.026   9.626  16.888  0.00  0.00    +0.000 OA
ATOM     18  H   UNL     1      -2.068  12.764  17.016  0.00  0.00    +0.000 HD
ATOM     19  H   UNL     1      -2.441  11.728  15.681  0.00  0.00    +0.000 HD
ENDBRANCH   9  15
BRANCH   8  20
ATOM     20  N   UNL     1       0.857   9.610  18.665  0.00  0.00    +0.000 N 
ATOM     21  C   UNL     1       1.329   8.598  19.494  0.00  0.00    +0.000 C 
ATOM     22  O   UNL     1       1.052   8.492  20.687  0.00  0.00    +0.000 OA
ATOM     23  H   UNL     1       1.392   9.883  17.853  0.00  0.00    +0.000 HD
BRANCH  21  24
ATOM     24  C   UNL     1       2.329   7.651  18.924  0.00  0.00    +0.000 A 
ATOM     25  C   UNL     1       3.036   8.072  17.785  0.00  0.00    +0.000 A 
ATOM     26  C   UNL     1       4.016   7.262  17.210  0.00  0.00    +0.000 A 
ATOM     27  C   UNL     1       4.299   6.025  17.775  0.00  0.00    +0.000 A 
ATOM     28  C   UNL     1       3.620   5.608  18.927  0.00  0.00    +0.000 A 
ATOM     29  C   UNL     1       2.628   6.411  19.500  0.00  0.00    +0.000 A 
ATOM     30  O   UNL     1       3.884   4.414  19.550  0.00  0.00    +0.000 OA
ATOM     31  C   UNL     1       5.144   3.871  19.131  0.00  0.00    +0.000 C 
ATOM     32  C   UNL     1       5.288   3.932  17.619  0.00  0.00    +0.000 C 
ATOM     33  O   UNL     1       5.275   5.286  17.158  0.00  0.00    +0.000 OA
ENDBRANCH  21  24
ENDBRANCH   8  20
TORSDOF 3
ENDMDL
MODEL 6
REMARK VINA RESULT:      -7.8      2.256      4.122
REMARK  Name = 
REMARK  7 active torsions:
REMARK  status: ('A' for Active; 'I' for Inactive)
REMARK    1  A    between atoms: C_1  and  C_2
REMARK    2  A    between atoms: C_2  and  C_3
REMARK    3  A    between atoms: C_8  and  N_9
REMARK    4  A    between atoms: C_10  and  C_12
REMARK    5  A    between atoms: C_22  and  C_23
REMARK    6  A    between atoms: C_26  and  C_27
REMARK    7  A    between atoms: C_26  and  C_28
REMARK                            x       y       z     vdW  Elec       q    Type
REMARK                         _______ _______ _______ _____ _____    ______ ____
ROOT
ATOM      1  C   UNL     1      -2.141  16.403  21.815  0.00  0.00    +0.000 C 
ATOM      2  C   UNL     1      -3.355  15.461  21.695  0.00  0.00    +0.000 C 
ATOM      3  C   UNL     1      -4.596  16.375  21.539  0.00  0.00    +0.000 C 
ATOM      4  C   UNL     1      -3.192  14.491  20.457  0.00  0.00    +0.000 C 
ATOM      5  C   UNL     1      -2.322  13.279  20.791  0.00  0.00    +0.000 A 
ATOM      6  C   UNL     1      -2.058  12.975  22.114  0.00  0.00    +0.000 A 
ATOM      7  S   UNL     1      -0.982  11.674  22.286  0.00  0.00    +0.000 S 
ATOM      8  C   UNL     1      -0.972  11.376  20.623  0.00  0.00    +0.000 A 
ATOM      9  C   UNL     1      -1.698  12.306  19.883  0.00  0.00    +0.000 A 
ATOM     10  C   UNL     1      -2.600  13.691  23.329  0.00  0.00    +0.000 C 
ATOM     11  C   UNL     1      -1.465  14.315  24.161  0.00  0.00    +0.000 C 
ATOM     12  C   UNL     1      -3.367  12.690  24.223  0.00  0.00    +0.000 C 
ATOM     13  N   UNL     1      -3.602  14.704  22.942  0.00  0.00    +0.000 NA
ATOM     14  H   UNL     1      -3.774  15.334  23.724  0.00  0.00    +0.000 HD
ENDROOT
BRANCH   9  15
ATOM     15  C   UNL     1      -1.772  12.301  18.422  0.00  0.00    +0.000 C 
ATOM     16  N   UNL     1      -0.869  13.108  17.789  0.00  0.00    +0.000 N 
ATOM     17  O   UNL     1      -2.599  11.657  17.777  0.00  0.00    +0.000 OA
ATOM     18  H   UNL     1      -0.416  13.858  18.291  0.00  0.00    +0.000 HD
ATOM     19  H   UNL     1      -0.993  13.234  16.784  0.00  0.00    +0.000 HD
ENDBRANCH   9  15
BRANCH   8  20
ATOM     20  N   UNL     1      -0.344  10.185  20.274  0.00  0.00    +0.000 N 
ATOM     21  C   UNL     1       0.914  10.240  19.682  0.00  0.00    +0.000 C 
ATOM     22  O   UNL     1       1.485  11.280  19.362  0.00  0.00    +0.000 OA
ATOM     23  H   UNL     1      -0.918   9.362  20.157  0.00  0.00    +0.000 HD
BRANCH  21  24
ATOM     24  C   UNL     1       1.554   8.948  19.306  0.00  0.00    +0.000 A 
ATOM     25  C   UNL     1       2.264   8.912  18.093  0.00  0.00    +0.000 A 
ATOM     26  C   UNL     1       2.924   7.753  17.684  0.00  0.00    +0.000 A 
ATOM     27  C   UNL     1       2.883   6.621  18.489  0.00  0.00    +0.000 A 
ATOM     28  C   UNL     1       2.202   6.655  19.712  0.00  0.00    +0.000 A 
ATOM     29  C   UNL     1       1.528   7.811  20.121  0.00  0.00    +0.000 A 
ATOM     30  O   UNL     1       2.159   5.581  20.566  0.00  0.00    +0.000 OA
ATOM     31  C   UNL     1       3.176   4.619  20.249  0.00  0.00    +0.000 C 
ATOM     32  C   UNL     1       3.217   4.341  18.755  0.00  0.00    +0.000 C 
ATOM     33  O   UNL     1       3.557   5.522  18.023  0.00  0.00    +0.000 OA
ENDBRANCH  21  24
ENDBRANCH   8  20
TORSDOF 3
ENDMDL
MODEL 7
REMARK VINA RESULT:      -7.8      2.854      4.285
REMARK  Name = 
REMARK  7 active torsions:
REMARK  status: ('A' for Active; 'I' for Inactive)
REMARK    1  A    between atoms: C_1  and  C_2
REMARK    2  A    between atoms: C_2  and  C_3
REMARK    3  A    between atoms: C_8  and  N_9
REMARK    4  A    between atoms: C_10  and  C_12
REMARK    5  A    between atoms: C_22  and  C_23
REMARK    6  A    between atoms: C_26  and  C_27
REMARK    7  A    between atoms: C_26  and  C_28
REMARK                            x       y       z     vdW  Elec       q    Type
REMARK                         _______ _______ _______ _____ _____    ______ ____
ROOT
ATOM      1  C   UNL     1      -0.481  17.198  18.130  0.00  0.00    +0.000 C 
ATOM      2  C   UNL     1      -0.715  16.560  19.513  0.00  0.00    +0.000 C 
ATOM      3  C   UNL     1      -1.729  17.476  20.243  0.00  0.00    +0.000 C 
ATOM      4  C   UNL     1      -1.270  15.086  19.364  0.00  0.00    +0.000 C 
ATOM      5  C   UNL     1      -0.149  14.076  19.121  0.00  0.00    +0.000 A 
ATOM      6  C   UNL     1       1.161  14.440  19.372  0.00  0.00    +0.000 A 
ATOM      7  S   UNL     1       2.273  13.235  18.931  0.00  0.00    +0.000 S 
ATOM      8  C   UNL     1       1.040  12.142  18.556  0.00  0.00    +0.000 A 
ATOM      9  C   UNL     1      -0.238  12.684  18.657  0.00  0.00    +0.000 A 
ATOM     10  C   UNL     1       1.639  15.755  19.942  0.00  0.00    +0.000 C 
ATOM     11  C   UNL     1       2.547  16.498  18.946  0.00  0.00    +0.000 C 
ATOM     12  C   UNL     1       2.443  15.499  21.237  0.00  0.00    +0.000 C 
ATOM     13  N   UNL     1       0.498  16.595  20.359  0.00  0.00    +0.000 NA
ATOM     14  H   UNL     1       0.812  17.552  20.508  0.00  0.00    +0.000 HD
ENDROOT
BRANCH   9  15
ATOM     15  C   UNL     1      -1.459  11.956  18.310  0.00  0.00    +0.000 C 
ATOM     16  N   UNL     1      -1.845  12.054  17.002  0.00  0.00    +0.000 N 
ATOM     17  O   UNL     1      -2.135  11.320  19.118  0.00  0.00    +0.000 OA
ATOM     18  H   UNL     1      -1.496  12.803  16.423  0.00  0.00    +0.000 HD
ATOM     19  H   UNL     1      -2.764  11.677  16.767  0.00  0.00    +0.000 HD
ENDBRANCH   9  15
BRANCH   8  20
ATOM     20  N   UNL     1       1.494  10.848  18.326  0.00  0.00    +0.000 N 
ATOM     21  C   UNL     1       1.382   9.909  19.347  0.00  0.00    +0.000 C 
ATOM     22  O   UNL     1       0.983  10.161  20.481  0.00  0.00    +0.000 OA
ATOM     23  H   UNL     1       2.164  10.704  17.584  0.00  0.00    +0.000 HD
BRANCH  21  24
ATOM     24  C   UNL     1       1.893   8.535  19.077  0.00  0.00    +0.000 A 
ATOM     25  C   UNL     1       2.572   8.328  17.864  0.00  0.00    +0.000 A 
ATOM     26  C   UNL     1       3.113   7.081  17.550  0.00  0.00    +0.000 A 
ATOM     27  C   UNL     1       2.982   6.031  18.451  0.00  0.00    +0.000 A 
ATOM     28  C   UNL     1       2.332   6.235  19.675  0.00  0.00    +0.000 A 
ATOM     29  C   UNL     1       1.776   7.479  19.989  0.00  0.00    +0.000 A 
ATOM     30  O   UNL     1       2.205   5.246  20.619  0.00  0.00    +0.000 OA
ATOM     31  C   UNL     1       3.121   4.169  20.376  0.00  0.00    +0.000 C 
ATOM     32  C   UNL     1       3.107   3.761  18.912  0.00  0.00    +0.000 C 
ATOM     33  O   UNL     1       3.541   4.837  18.076  0.00  0.00    +0.000 OA
ENDBRANCH  21  24
ENDBRANCH   8  20
TORSDOF 3
ENDMDL
MODEL 8
REMARK VINA RESULT:      -7.7      2.292      3.551
REMARK  Name = 
REMARK  7 active torsions:
REMARK  status: ('A' for Active; 'I' for Inactive)
REMARK    1  A    between atoms: C_1  and  C_2
REMARK    2  A    between atoms: C_2  and  C_3
REMARK    3  A    between atoms: C_8  and  N_9
REMARK    4  A    between atoms: C_10  and  C_12
REMARK    5  A    between atoms: C_22  and  C_23
REMARK    6  A    between atoms: C_26  and  C_27
REMARK    7  A    between atoms: C_26  and  C_28
REMARK                            x       y       z     vdW  Elec       q    Type
REMARK                         _______ _______ _______ _____ _____    ______ ____
ROOT
ATOM      1  C   UNL     1      -0.990  16.201  21.762  0.00  0.00    +0.000 C 
ATOM      2  C   UNL     1      -1.443  15.780  20.351  0.00  0.00    +0.000 C 
ATOM      3  C   UNL     1      -1.934  17.073  19.654  0.00  0.00    +0.000 C 
ATOM      4  C   UNL     1      -0.252  15.111  19.555  0.00  0.00    +0.000 C 
ATOM      5  C   UNL     1      -0.088  13.633  19.911  0.00  0.00    +0.000 A 
ATOM      6  C   UNL     1      -1.108  12.974  20.571  0.00  0.00    +0.000 A 
ATOM      7  S   UNL     1      -0.699  11.380  20.986  0.00  0.00    +0.000 S 
ATOM      8  C   UNL     1       0.770  11.470  20.157  0.00  0.00    +0.000 A 
ATOM      9  C   UNL     1       1.038  12.730  19.629  0.00  0.00    +0.000 A 
ATOM     10  C   UNL     1      -2.455  13.546  20.948  0.00  0.00    +0.000 C 
ATOM     11  C   UNL     1      -2.653  13.545  22.475  0.00  0.00    +0.000 C 
ATOM     12  C   UNL     1      -3.578  12.696  20.311  0.00  0.00    +0.000 C 
ATOM     13  N   UNL     1      -2.631  14.898  20.384  0.00  0.00    +0.000 NA
ATOM     14  H   UNL     1      -3.417  15.361  20.837  0.00  0.00    +0.000 HD
ENDROOT
BRANCH   9  15
ATOM     15  C   UNL     1       2.280  13.072  18.936  0.00  0.00    +0.000 C 
ATOM     16  N   UNL     1       2.367  12.640  17.642  0.00  0.00    +0.000 N 
ATOM     17  O   UNL     1       3.217  13.674  19.461  0.00  0.00    +0.000 OA
ATOM     18  H   UNL     1       1.768  11.897  17.313  0.00  0.00    +0.000 HD
ATOM     19  H   UNL     1       3.274  12.739  17.186  0.00  0.00    +0.000 HD
ENDBRANCH   9  15
BRANCH   8  20
ATOM     20  N   UNL     1       1.414  10.244  20.031  0.00  0.00    +0.000 N 
ATOM     21  C   UNL     1       1.307   9.553  18.828  0.00  0.00    +0.000 C 
ATOM     22  O   UNL     1       0.607   9.909  17.883  0.00  0.00    +0.000 OA
ATOM     23  H   UNL     1       1.658   9.746  20.875  0.00  0.00    +0.000 HD
BRANCH  21  24
ATOM     24  C   UNL     1       1.994   8.234  18.728  0.00  0.00    +0.000 A 
ATOM     25  C   UNL     1       2.976   8.096  17.732  0.00  0.00    +0.000 A 
ATOM     26  C   UNL     1       3.693   6.906  17.594  0.00  0.00    +0.000 A 
ATOM     27  C   UNL     1       3.435   5.848  18.456  0.00  0.00    +0.000 A 
ATOM     28  C   UNL     1       2.479   5.986  19.470  0.00  0.00    +0.000 A 
ATOM     29  C   UNL     1       1.749   7.171  19.604  0.00  0.00    +0.000 A 
ATOM     30  O   UNL     1       2.209   4.988  20.373  0.00  0.00    +0.000 OA
ATOM     31  C   UNL     1       3.253   4.004  20.395  0.00  0.00    +0.000 C 
ATOM     32  C   UNL     1       3.650   3.599  18.984  0.00  0.00    +0.000 C 
ATOM     33  O   UNL     1       4.181   4.714  18.262  0.00  0.00    +0.000 OA
ENDBRANCH  21  24
ENDBRANCH   8  20
TORSDOF 3
ENDMDL
MODEL 9
REMARK VINA RESULT:      -7.6      2.273      3.280
REMARK  Name = 
REMARK  7 active torsions:
REMARK  status: ('A' for Active; 'I' for Inactive)
REMARK    1  A    between atoms: C_1  and  C_2
REMARK    2  A    between atoms: C_2  and  C_3
REMARK    3  A    between atoms: C_8  and  N_9
REMARK    4  A    between atoms: C_10  and  C_12
REMARK    5  A    between atoms: C_22  and  C_23
REMARK    6  A    between atoms: C_26  and  C_27
REMARK    7  A    between atoms: C_26  and  C_28
REMARK                            x       y       z     vdW  Elec       q    Type
REMARK                         _______ _______ _______ _____ _____    ______ ____
ROOT
ATOM      1  C   UNL     1      -0.887  16.549  21.780  0.00  0.00    +0.000 C 
ATOM      2  C   UNL     1      -1.356  16.064  20.394  0.00  0.00    +0.000 C 
ATOM      3  C   UNL     1      -1.826  17.329  19.632  0.00  0.00    +0.000 C 
ATOM      4  C   UNL     1      -0.184  15.330  19.630  0.00  0.00    +0.000 C 
ATOM      5  C   UNL     1      -0.047  13.870  20.061  0.00  0.00    +0.000 A 
ATOM      6  C   UNL     1      -1.077  13.267  20.761  0.00  0.00    +0.000 A 
ATOM      7  S   UNL     1      -0.698  11.689  21.257  0.00  0.00    +0.000 S 
ATOM      8  C   UNL     1       0.768  11.706  20.417  0.00  0.00    +0.000 A 
ATOM      9  C   UNL     1       1.058  12.930  19.822  0.00  0.00    +0.000 A 
ATOM     10  C   UNL     1      -2.410  13.886  21.113  0.00  0.00    +0.000 C 
ATOM     11  C   UNL     1      -2.599  13.969  22.639  0.00  0.00    +0.000 C 
ATOM     12  C   UNL     1      -3.553  13.026  20.527  0.00  0.00    +0.000 C 
ATOM     13  N   UNL     1      -2.562  15.210  20.479  0.00  0.00    +0.000 NA
ATOM     14  H   UNL     1      -3.336  15.711  20.911  0.00  0.00    +0.000 HD
ENDROOT
BRANCH   9  15
ATOM     15  C   UNL     1       2.303  13.210  19.107  0.00  0.00    +0.000 C 
ATOM     16  N   UNL     1       2.346  12.771  17.813  0.00  0.00    +0.000 N 
ATOM     17  O   UNL     1       3.277  13.767  19.612  0.00  0.00    +0.000 OA
ATOM     18  H   UNL     1       1.705  12.058  17.496  0.00  0.00    +0.000 HD
ATOM     19  H   UNL     1       3.248  12.825  17.340  0.00  0.00    +0.000 HD
ENDBRANCH   9  15
BRANCH   8  20
ATOM     20  N   UNL     1       1.387  10.461  20.352  0.00  0.00    +0.000 N 
ATOM     21  C   UNL     1       1.274   9.719  19.182  0.00  0.00    +0.000 C 
ATOM     22  O   UNL     1       0.590  10.047  18.215  0.00  0.00    +0.000 OA
ATOM     23  H   UNL     1       1.612   9.997  21.221  0.00  0.00    +0.000 HD
BRANCH  21  24
ATOM     24  C   UNL     1       1.934   8.383  19.148  0.00  0.00    +0.000 A 
ATOM     25  C   UNL     1       1.659   7.503  20.209  0.00  0.00    +0.000 A 
ATOM     26  C   UNL     1       2.207   6.220  20.236  0.00  0.00    +0.000 A 
ATOM     27  C   UNL     1       3.031   5.806  19.196  0.00  0.00    +0.000 A 
ATOM     28  C   UNL     1       3.288   6.664  18.120  0.00  0.00    +0.000 A 
ATOM     29  C   UNL     1       2.752   7.956  18.095  0.00  0.00    +0.000 A 
ATOM     30  O   UNL     1       4.063   6.297  17.048  0.00  0.00    +0.000 OA
ATOM     31  C   UNL     1       4.227   4.873  16.985  0.00  0.00    +0.000 C 
ATOM     32  C   UNL     1       4.583   4.304  18.349  0.00  0.00    +0.000 C 
ATOM     33  O   UNL     1       3.529   4.532  19.289  0.00  0.00    +0.000 OA
ENDBRANCH  21  24
ENDBRANCH   8  20
TORSDOF 3
ENDMDL
