MODEL 1
REMARK VINA RESULT:      -9.9      0.000      0.000
REMARK  Name = 
REMARK  7 active torsions:
REMARK  status: ('A' for Active; 'I' for Inactive)
REMARK    1  A    between atoms: C_1  and  N_2
REMARK    2  A    between atoms: C_4  and  C_5
REMARK    3  A    between atoms: C_10  and  N_11
REMARK    4  A    between atoms: C_12  and  O_14
REMARK    5  A    between atoms: O_14  and  C_15
REMARK    6  A    between atoms: C_15  and  C_16
REMARK    7  A    between atoms: C_25  and  C_26
REMARK                            x       y       z     vdW  Elec       q    Type
REMARK                         _______ _______ _______ _____ _____    ______ ____
ROOT
ATOM      1  C   UNL     1       3.032   6.987  18.330  0.00  0.00    +0.000 A 
ATOM      2  C   UNL     1       2.918   8.082  17.327  0.00  0.00    +0.000 A 
ATOM      3  C   UNL     1       2.159   9.132  17.661  0.00  0.00    +0.000 A 
ATOM      4  C   UNL     1       1.521   9.150  18.916  0.00  0.00    +0.000 A 
ATOM      5  N   UNL     1       0.707  10.028  19.451  0.00  0.00    +0.000 NA
ATOM      6  C   UNL     1       0.363   9.518  20.669  0.00  0.00    +0.000 A 
ATOM      7  C   UNL     1       0.985   8.307  20.886  0.00  0.00    +0.000 A 
ATOM      8  N   UNL     1       1.735   8.078  19.761  0.00  0.00    +0.000 N 
ATOM      9  N   UNL     1       2.494   6.974  19.512  0.00  0.00    +0.000 NA
ENDROOT
BRANCH   1  13
ATOM     10  C   UNL     1       6.000   3.950  15.733  0.00  0.00    +0.000 C 
ATOM     11  N   UNL     1       5.103   4.496  16.724  0.00  0.00    +0.000 N 
ATOM     12  C   UNL     1       4.665   5.780  16.811  0.00  0.00    +0.000 A 
ATOM     13  C   UNL     1       3.774   5.824  17.870  0.00  0.00    +0.000 A 
ATOM     14  C   UNL     1       3.747   4.472  18.364  0.00  0.00    +0.000 A 
ATOM     15  N   UNL     1       4.587   3.690  17.660  0.00  0.00    +0.000 NA
BRANCH  14  16
ATOM     16  C   UNL     1       2.930   3.890  19.435  0.00  0.00    +0.000 A 
ATOM     17  C   UNL     1       3.525   3.279  20.551  0.00  0.00    +0.000 A 
ATOM     18  C   UNL     1       2.743   2.686  21.544  0.00  0.00    +0.000 A 
ATOM     19  C   UNL     1       1.360   2.742  21.447  0.00  0.00    +0.000 A 
ATOM     20  F   UNL     1       0.610   2.177  22.402  0.00  0.00    +0.000 F 
ATOM     21  C   UNL     1       0.744   3.382  20.378  0.00  0.00    +0.000 A 
ATOM     22  C   UNL     1       1.528   3.953  19.372  0.00  0.00    +0.000 A 
ENDBRANCH  14  16
ENDBRANCH   1  13
BRANCH   6  23
ATOM     23  N   UNL     1      -0.474  10.165  21.542  0.00  0.00    +0.000 N 
ATOM     24  C   UNL     1      -0.313  10.147  22.904  0.00  0.00    +0.000 C 
ATOM     25  O   UNL     1       0.612   9.671  23.544  0.00  0.00    +0.000 OA
ATOM     26  H   UNL     1      -1.317  10.588  21.191  0.00  0.00    +0.000 HD
BRANCH  24  27
ATOM     27  O   UNL     1      -1.416  10.696  23.486  0.00  0.00    +0.000 OA
BRANCH  27  28
ATOM     28  C   UNL     1      -1.702  12.039  23.066  0.00  0.00    +0.000 C 
BRANCH  28  29
ATOM     29  C   UNL     1      -3.175  12.354  23.083  0.00  0.00    +0.000 A 
ATOM     30  C   UNL     1      -3.888  12.368  24.290  0.00  0.00    +0.000 A 
ATOM     31  C   UNL     1      -5.238  12.728  24.313  0.00  0.00    +0.000 A 
ATOM     32  C   UNL     1      -5.890  13.068  23.129  0.00  0.00    +0.000 A 
ATOM     33  C   UNL     1      -5.196  13.044  21.922  0.00  0.00    +0.000 A 
ATOM     34  C   UNL     1      -3.846  12.683  21.896  0.00  0.00    +0.000 A 
ENDBRANCH  28  29
ENDBRANCH  27  28
ENDBRANCH  24  27
ENDBRANCH   6  23
TORSDOF 6
ENDMDL
MODEL 2
REMARK VINA RESULT:      -9.8      0.668      1.092
REMARK  Name = 
REMARK  7 active torsions:
REMARK  status: ('A' for Active; 'I' for Inactive)
REMARK    1  A    between atoms: C_1  and  N_2
REMARK    2  A    between atoms: C_4  and  C_5
REMARK    3  A    between atoms: C_10  and  N_11
REMARK    4  A    between atoms: C_12  and  O_14
REMARK    5  A    between atoms: O_14  and  C_15
REMARK    6  A    between atoms: C_15  and  C_16
REMARK    7  A    between atoms: C_25  and  C_26
REMARK                            x       y       z     vdW  Elec       q    Type
REMARK                         _______ _______ _______ _____ _____    ______ ____
ROOT
ATOM      1  C   UNL     1       2.910   7.092  18.401  0.00  0.00    +0.000 A 
ATOM      2  C   UNL     1       2.640   8.177  17.417  0.00  0.00    +0.000 A 
ATOM      3  C   UNL     1       1.859   9.183  17.824  0.00  0.00    +0.000 A 
ATOM      4  C   UNL     1       1.342   9.168  19.134  0.00  0.00    +0.000 A 
ATOM      5  N   UNL     1       0.534  10.001  19.746  0.00  0.00    +0.000 NA
ATOM      6  C   UNL     1       0.336   9.474  20.990  0.00  0.00    +0.000 A 
ATOM      7  C   UNL     1       1.042   8.301  21.143  0.00  0.00    +0.000 A 
ATOM      8  N   UNL     1       1.695   8.112  19.951  0.00  0.00    +0.000 N 
ATOM      9  N   UNL     1       2.488   7.052  19.628  0.00  0.00    +0.000 NA
ENDROOT
BRANCH   1  13
ATOM     10  C   UNL     1       5.904   4.264  15.607  0.00  0.00    +0.000 C 
ATOM     11  N   UNL     1       5.010   4.736  16.637  0.00  0.00    +0.000 N 
ATOM     12  C   UNL     1       4.547   6.004  16.799  0.00  0.00    +0.000 A 
ATOM     13  C   UNL     1       3.669   5.971  17.869  0.00  0.00    +0.000 A 
ATOM     14  C   UNL     1       3.677   4.595  18.290  0.00  0.00    +0.000 A 
ATOM     15  N   UNL     1       4.523   3.870  17.535  0.00  0.00    +0.000 NA
BRANCH  14  16
ATOM     16  C   UNL     1       2.887   3.938  19.339  0.00  0.00    +0.000 A 
ATOM     17  C   UNL     1       1.491   3.829  19.234  0.00  0.00    +0.000 A 
ATOM     18  C   UNL     1       0.741   3.246  20.257  0.00  0.00    +0.000 A 
ATOM     19  C   UNL     1       1.390   2.728  21.369  0.00  0.00    +0.000 A 
ATOM     20  F   UNL     1       0.670   2.165  22.348  0.00  0.00    +0.000 F 
ATOM     21  C   UNL     1       2.774   2.780  21.476  0.00  0.00    +0.000 A 
ATOM     22  C   UNL     1       3.522   3.387  20.463  0.00  0.00    +0.000 A 
ENDBRANCH  14  16
ENDBRANCH   1  13
BRANCH   6  23
ATOM     23  N   UNL     1      -0.449  10.075  21.940  0.00  0.00    +0.000 N 
ATOM     24  C   UNL     1      -0.347  11.398  22.285  0.00  0.00    +0.000 C 
ATOM     25  O   UNL     1       0.347  12.259  21.763  0.00  0.00    +0.000 OA
ATOM     26  H   UNL     1      -1.062   9.507  22.501  0.00  0.00    +0.000 HD
BRANCH  24  27
ATOM     27  O   UNL     1      -1.107  11.627  23.393  0.00  0.00    +0.000 OA
BRANCH  27  28
ATOM     28  C   UNL     1      -1.736  12.916  23.424  0.00  0.00    +0.000 C 
BRANCH  28  29
ATOM     29  C   UNL     1      -3.225  12.844  23.206  0.00  0.00    +0.000 A 
ATOM     30  C   UNL     1      -4.109  12.882  24.293  0.00  0.00    +0.000 A 
ATOM     31  C   UNL     1      -5.491  12.885  24.085  0.00  0.00    +0.000 A 
ATOM     32  C   UNL     1      -6.002  12.839  22.789  0.00  0.00    +0.000 A 
ATOM     33  C   UNL     1      -5.133  12.786  21.701  0.00  0.00    +0.000 A 
ATOM     34  C   UNL     1      -3.751  12.782  21.907  0.00  0.00    +0.000 A 
ENDBRANCH  28  29
ENDBRANCH  27  28
ENDBRANCH  24  27
ENDBRANCH   6  23
TORSDOF 6
ENDMDL
MODEL 3
REMARK VINA RESULT:      -9.7      2.418      3.567
REMARK  Name = 
REMARK  7 active torsions:
REMARK  status: ('A' for Active; 'I' for Inactive)
REMARK    1  A    between atoms: C_1  and  N_2
REMARK    2  A    between atoms: C_4  and  C_5
REMARK    3  A    between atoms: C_10  and  N_11
REMARK    4  A    between atoms: C_12  and  O_14
REMARK    5  A    between atoms: O_14  and  C_15
REMARK    6  A    between atoms: C_15  and  C_16
REMARK    7  A    between atoms: C_25  and  C_26
REMARK                            x       y       z     vdW  Elec       q    Type
REMARK                         _______ _______ _______ _____ _____    ______ ____
ROOT
ATOM      1  C   UNL     1       2.452   6.812  18.689  0.00  0.00    +0.000 A 
ATOM      2  C   UNL     1       2.540   7.791  17.571  0.00  0.00    +0.000 A 
ATOM      3  C   UNL     1       2.042   9.012  17.794  0.00  0.00    +0.000 A 
ATOM      4  C   UNL     1       1.472   9.305  19.048  0.00  0.00    +0.000 A 
ATOM      5  N   UNL     1       0.891  10.394  19.492  0.00  0.00    +0.000 NA
ATOM      6  C   UNL     1       0.492  10.106  20.765  0.00  0.00    +0.000 A 
ATOM      7  C   UNL     1       0.843   8.818  21.108  0.00  0.00    +0.000 A 
ATOM      8  N   UNL     1       1.481   8.310  20.006  0.00  0.00    +0.000 N 
ATOM      9  N   UNL     1       1.971   7.045  19.873  0.00  0.00    +0.000 NA
ENDROOT
BRANCH   1  13
ATOM     10  C   UNL     1       2.585   1.932  17.717  0.00  0.00    +0.000 C 
ATOM     11  N   UNL     1       2.947   3.317  17.907  0.00  0.00    +0.000 N 
ATOM     12  C   UNL     1       2.109   4.349  18.191  0.00  0.00    +0.000 A 
ATOM     13  C   UNL     1       2.904   5.471  18.353  0.00  0.00    +0.000 A 
ATOM     14  C   UNL     1       4.243   4.988  18.140  0.00  0.00    +0.000 A 
ATOM     15  N   UNL     1       4.235   3.675  17.846  0.00  0.00    +0.000 NA
BRANCH  14  16
ATOM     16  C   UNL     1       5.519   5.706  18.249  0.00  0.00    +0.000 A 
ATOM     17  C   UNL     1       6.464   5.363  19.230  0.00  0.00    +0.000 A 
ATOM     18  C   UNL     1       7.654   6.080  19.359  0.00  0.00    +0.000 A 
ATOM     19  C   UNL     1       7.925   7.116  18.476  0.00  0.00    +0.000 A 
ATOM     20  F   UNL     1       9.069   7.801  18.597  0.00  0.00    +0.000 F 
ATOM     21  C   UNL     1       7.030   7.446  17.466  0.00  0.00    +0.000 A 
ATOM     22  C   UNL     1       5.826   6.744  17.354  0.00  0.00    +0.000 A 
ENDBRANCH  14  16
ENDBRANCH   1  13
BRANCH   6  23
ATOM     23  N   UNL     1      -0.149  11.012  21.571  0.00  0.00    +0.000 N 
ATOM     24  C   UNL     1      -0.387  10.807  22.905  0.00  0.00    +0.000 C 
ATOM     25  O   UNL     1       0.003   9.883  23.604  0.00  0.00    +0.000 OA
ATOM     26  H   UNL     1      -0.572  11.825  21.155  0.00  0.00    +0.000 HD
BRANCH  24  27
ATOM     27  O   UNL     1      -1.220  11.784  23.361  0.00  0.00    +0.000 OA
BRANCH  27  28
ATOM     28  C   UNL     1      -2.111  12.315  22.367  0.00  0.00    +0.000 C 
BRANCH  28  29
ATOM     29  C   UNL     1      -3.505  12.539  22.894  0.00  0.00    +0.000 A 
ATOM     30  C   UNL     1      -4.548  12.891  22.027  0.00  0.00    +0.000 A 
ATOM     31  C   UNL     1      -5.853  13.031  22.505  0.00  0.00    +0.000 A 
ATOM     32  C   UNL     1      -6.126  12.829  23.857  0.00  0.00    +0.000 A 
ATOM     33  C   UNL     1      -5.095  12.493  24.732  0.00  0.00    +0.000 A 
ATOM     34  C   UNL     1      -3.789  12.354  24.255  0.00  0.00    +0.000 A 
ENDBRANCH  28  29
ENDBRANCH  27  28
ENDBRANCH  24  27
ENDBRANCH   6  23
TORSDOF 6
ENDMDL
MODEL 4
REMARK VINA RESULT:      -9.6      4.410      5.564
REMARK  Name = 
REMARK  7 active torsions:
REMARK  status: ('A' for Active; 'I' for Inactive)
REMARK    1  A    between atoms: C_1  and  N_2
REMARK    2  A    between atoms: C_4  and  C_5
REMARK    3  A    between atoms: C_10  and  N_11
REMARK    4  A    between atoms: C_12  and  O_14
REMARK    5  A    between atoms: O_14  and  C_15
REMARK    6  A    between atoms: C_15  and  C_16
REMARK    7  A    between atoms: C_25  and  C_26
REMARK                            x       y       z     vdW  Elec       q    Type
REMARK                         _______ _______ _______ _____ _____    ______ ____
ROOT
ATOM      1  C   UNL     1       2.338   6.704  19.435  0.00  0.00    +0.000 A 
ATOM      2  C   UNL     1       2.893   6.939  18.073  0.00  0.00    +0.000 A 
ATOM      3  C   UNL     1       2.725   8.159  17.553  0.00  0.00    +0.000 A 
ATOM      4  C   UNL     1       2.048   9.141  18.303  0.00  0.00    +0.000 A 
ATOM      5  N   UNL     1       1.726  10.377  18.004  0.00  0.00    +0.000 NA
ATOM      6  C   UNL     1       1.044  10.851  19.087  0.00  0.00    +0.000 A 
ATOM      7  C   UNL     1       0.954   9.889  20.069  0.00  0.00    +0.000 A 
ATOM      8  N   UNL     1       1.609   8.794  19.566  0.00  0.00    +0.000 N 
ATOM      9  N   UNL     1       1.741   7.585  20.179  0.00  0.00    +0.000 NA
ENDROOT
BRANCH   1  13
ATOM     10  C   UNL     1       1.665   2.452  21.934  0.00  0.00    +0.000 C 
ATOM     11  N   UNL     1       2.129   3.452  21.001  0.00  0.00    +0.000 N 
ATOM     12  C   UNL     1       1.663   4.721  20.865  0.00  0.00    +0.000 A 
ATOM     13  C   UNL     1       2.449   5.331  19.902  0.00  0.00    +0.000 A 
ATOM     14  C   UNL     1       3.386   4.310  19.514  0.00  0.00    +0.000 A 
ATOM     15  N   UNL     1       3.151   3.167  20.184  0.00  0.00    +0.000 NA
BRANCH  14  16
ATOM     16  C   UNL     1       4.512   4.390  18.576  0.00  0.00    +0.000 A 
ATOM     17  C   UNL     1       5.748   4.930  18.969  0.00  0.00    +0.000 A 
ATOM     18  C   UNL     1       6.799   5.046  18.059  0.00  0.00    +0.000 A 
ATOM     19  C   UNL     1       6.635   4.579  16.763  0.00  0.00    +0.000 A 
ATOM     20  F   UNL     1       7.646   4.687  15.891  0.00  0.00    +0.000 F 
ATOM     21  C   UNL     1       5.440   3.996  16.360  0.00  0.00    +0.000 A 
ATOM     22  C   UNL     1       4.378   3.904  17.265  0.00  0.00    +0.000 A 
ENDBRANCH  14  16
ENDBRANCH   1  13
BRANCH   6  23
ATOM     23  N   UNL     1       0.550  12.129  19.158  0.00  0.00    +0.000 N 
ATOM     24  C   UNL     1       1.336  13.240  19.326  0.00  0.00    +0.000 C 
ATOM     25  O   UNL     1       2.557  13.301  19.332  0.00  0.00    +0.000 OA
ATOM     26  H   UNL     1      -0.446  12.269  19.203  0.00  0.00    +0.000 HD
BRANCH  24  27
ATOM     27  O   UNL     1       0.536  14.315  19.570  0.00  0.00    +0.000 OA
BRANCH  27  28
ATOM     28  C   UNL     1       1.240  15.560  19.700  0.00  0.00    +0.000 C 
BRANCH  28  29
ATOM     29  C   UNL     1       0.873  16.552  18.626  0.00  0.00    +0.000 A 
ATOM     30  C   UNL     1      -0.456  16.966  18.461  0.00  0.00    +0.000 A 
ATOM     31  C   UNL     1      -0.784  17.937  17.512  0.00  0.00    +0.000 A 
ATOM     32  C   UNL     1       0.211  18.496  16.712  0.00  0.00    +0.000 A 
ATOM     33  C   UNL     1       1.533  18.082  16.857  0.00  0.00    +0.000 A 
ATOM     34  C   UNL     1       1.863  17.110  17.805  0.00  0.00    +0.000 A 
ENDBRANCH  28  29
ENDBRANCH  27  28
ENDBRANCH  24  27
ENDBRANCH   6  23
TORSDOF 6
ENDMDL
MODEL 5
REMARK VINA RESULT:      -9.5      4.309      5.554
REMARK  Name = 
REMARK  7 active torsions:
REMARK  status: ('A' for Active; 'I' for Inactive)
REMARK    1  A    between atoms: C_1  and  N_2
REMARK    2  A    between atoms: C_4  and  C_5
REMARK    3  A    between atoms: C_10  and  N_11
REMARK    4  A    between atoms: C_12  and  O_14
REMARK    5  A    between atoms: O_14  and  C_15
REMARK    6  A    between atoms: C_15  and  C_16
REMARK    7  A    between atoms: C_25  and  C_26
REMARK                            x       y       z     vdW  Elec       q    Type
REMARK                         _______ _______ _______ _____ _____    ______ ____
ROOT
ATOM      1  C   UNL     1       2.098   6.949  19.550  0.00  0.00    +0.000 A 
ATOM      2  C   UNL     1       2.441   7.261  18.134  0.00  0.00    +0.000 A 
ATOM      3  C   UNL     1       2.213   8.510  17.716  0.00  0.00    +0.000 A 
ATOM      4  C   UNL     1       1.674   9.450  18.617  0.00  0.00    +0.000 A 
ATOM      5  N   UNL     1       1.328  10.703  18.442  0.00  0.00    +0.000 NA
ATOM      6  C   UNL     1       0.827  11.117  19.642  0.00  0.00    +0.000 A 
ATOM      7  C   UNL     1       0.875  10.100  20.571  0.00  0.00    +0.000 A 
ATOM      8  N   UNL     1       1.429   9.032  19.910  0.00  0.00    +0.000 N 
ATOM      9  N   UNL     1       1.636   7.788  20.426  0.00  0.00    +0.000 NA
ENDROOT
BRANCH   1  13
ATOM     10  C   UNL     1       1.598   2.509  21.743  0.00  0.00    +0.000 C 
ATOM     11  N   UNL     1       2.016   3.588  20.879  0.00  0.00    +0.000 N 
ATOM     12  C   UNL     1       1.508   4.848  20.842  0.00  0.00    +0.000 A 
ATOM     13  C   UNL     1       2.260   5.551  19.915  0.00  0.00    +0.000 A 
ATOM     14  C   UNL     1       3.223   4.591  19.442  0.00  0.00    +0.000 A 
ATOM     15  N   UNL     1       3.033   3.396  20.031  0.00  0.00    +0.000 NA
BRANCH  14  16
ATOM     16  C   UNL     1       4.332   4.774  18.498  0.00  0.00    +0.000 A 
ATOM     17  C   UNL     1       4.238   4.324  17.171  0.00  0.00    +0.000 A 
ATOM     18  C   UNL     1       5.313   4.460  16.292  0.00  0.00    +0.000 A 
ATOM     19  C   UNL     1       6.472   5.088  16.724  0.00  0.00    +0.000 A 
ATOM     20  F   UNL     1       7.502   5.222  15.879  0.00  0.00    +0.000 F 
ATOM     21  C   UNL     1       6.575   5.586  18.017  0.00  0.00    +0.000 A 
ATOM     22  C   UNL     1       5.507   5.427  18.905  0.00  0.00    +0.000 A 
ENDBRANCH  14  16
ENDBRANCH   1  13
BRANCH   6  23
ATOM     23  N   UNL     1       0.369  12.391  19.862  0.00  0.00    +0.000 N 
ATOM     24  C   UNL     1      -0.653  12.965  19.150  0.00  0.00    +0.000 C 
ATOM     25  O   UNL     1      -1.374  12.438  18.315  0.00  0.00    +0.000 OA
ATOM     26  H   UNL     1       0.870  12.990  20.497  0.00  0.00    +0.000 HD
BRANCH  24  27
ATOM     27  O   UNL     1      -0.719  14.290  19.461  0.00  0.00    +0.000 OA
BRANCH  27  28
ATOM     28  C   UNL     1       0.552  14.957  19.485  0.00  0.00    +0.000 C 
BRANCH  28  29
ATOM     29  C   UNL     1       0.573  16.203  18.637  0.00  0.00    +0.000 A 
ATOM     30  C   UNL     1       1.779  16.691  18.115  0.00  0.00    +0.000 A 
ATOM     31  C   UNL     1       1.788  17.806  17.273  0.00  0.00    +0.000 A 
ATOM     32  C   UNL     1       0.593  18.448  16.951  0.00  0.00    +0.000 A 
ATOM     33  C   UNL     1      -0.610  17.980  17.476  0.00  0.00    +0.000 A 
ATOM     34  C   UNL     1      -0.621  16.866  18.319  0.00  0.00    +0.000 A 
ENDBRANCH  28  29
ENDBRANCH  27  28
ENDBRANCH  24  27
ENDBRANCH   6  23
TORSDOF 6
ENDMDL
MODEL 6
REMARK VINA RESULT:      -9.4      4.120      5.409
REMARK  Name = 
REMARK  7 active torsions:
REMARK  status: ('A' for Active; 'I' for Inactive)
REMARK    1  A    between atoms: C_1  and  N_2
REMARK    2  A    between atoms: C_4  and  C_5
REMARK    3  A    between atoms: C_10  and  N_11
REMARK    4  A    between atoms: C_12  and  O_14
REMARK    5  A    between atoms: O_14  and  C_15
REMARK    6  A    between atoms: C_15  and  C_16
REMARK    7  A    between atoms: C_25  and  C_26
REMARK                            x       y       z     vdW  Elec       q    Type
REMARK                         _______ _______ _______ _____ _____    ______ ____
ROOT
ATOM      1  C   UNL     1       2.343   6.679  19.424  0.00  0.00    +0.000 A 
ATOM      2  C   UNL     1       2.839   6.914  18.039  0.00  0.00    +0.000 A 
ATOM      3  C   UNL     1       2.652   8.135  17.527  0.00  0.00    +0.000 A 
ATOM      4  C   UNL     1       2.011   9.118  18.306  0.00  0.00    +0.000 A 
ATOM      5  N   UNL     1       1.679  10.354  18.022  0.00  0.00    +0.000 NA
ATOM      6  C   UNL     1       1.046  10.830  19.133  0.00  0.00    +0.000 A 
ATOM      7  C   UNL     1       0.997   9.869  20.119  0.00  0.00    +0.000 A 
ATOM      8  N   UNL     1       1.626   8.772  19.587  0.00  0.00    +0.000 N 
ATOM      9  N   UNL     1       1.782   7.562  20.193  0.00  0.00    +0.000 NA
ENDROOT
BRANCH   1  13
ATOM     10  C   UNL     1       1.720   2.409  21.904  0.00  0.00    +0.000 C 
ATOM     11  N   UNL     1       2.173   3.418  20.976  0.00  0.00    +0.000 N 
ATOM     12  C   UNL     1       1.691   4.683  20.845  0.00  0.00    +0.000 A 
ATOM     13  C   UNL     1       2.471   5.306  19.885  0.00  0.00    +0.000 A 
ATOM     14  C   UNL     1       3.422   4.299  19.495  0.00  0.00    +0.000 A 
ATOM     15  N   UNL     1       3.200   3.150  20.160  0.00  0.00    +0.000 NA
BRANCH  14  16
ATOM     16  C   UNL     1       4.549   4.397  18.560  0.00  0.00    +0.000 A 
ATOM     17  C   UNL     1       5.780   4.943  18.961  0.00  0.00    +0.000 A 
ATOM     18  C   UNL     1       6.832   5.077  18.054  0.00  0.00    +0.000 A 
ATOM     19  C   UNL     1       6.673   4.622  16.752  0.00  0.00    +0.000 A 
ATOM     20  F   UNL     1       7.685   4.747  15.884  0.00  0.00    +0.000 F 
ATOM     21  C   UNL     1       5.483   4.034  16.342  0.00  0.00    +0.000 A 
ATOM     22  C   UNL     1       4.421   3.924  17.244  0.00  0.00    +0.000 A 
ENDBRANCH  14  16
ENDBRANCH   1  13
BRANCH   6  23
ATOM     23  N   UNL     1       0.559  12.110  19.226  0.00  0.00    +0.000 N 
ATOM     24  C   UNL     1      -0.777  12.417  19.220  0.00  0.00    +0.000 C 
ATOM     25  O   UNL     1      -1.725  11.645  19.240  0.00  0.00    +0.000 OA
ATOM     26  H   UNL     1       1.202  12.883  19.187  0.00  0.00    +0.000 HD
BRANCH  24  27
ATOM     27  O   UNL     1      -0.920  13.768  19.110  0.00  0.00    +0.000 OA
BRANCH  27  28
ATOM     28  C   UNL     1       0.165  14.525  19.667  0.00  0.00    +0.000 C 
BRANCH  28  29
ATOM     29  C   UNL     1       0.547  15.709  18.816  0.00  0.00    +0.000 A 
ATOM     30  C   UNL     1      -0.430  16.607  18.363  0.00  0.00    +0.000 A 
ATOM     31  C   UNL     1      -0.067  17.741  17.633  0.00  0.00    +0.000 A 
ATOM     32  C   UNL     1       1.274  17.985  17.341  0.00  0.00    +0.000 A 
ATOM     33  C   UNL     1       2.252  17.092  17.774  0.00  0.00    +0.000 A 
ATOM     34  C   UNL     1       1.891  15.956  18.503  0.00  0.00    +0.000 A 
ENDBRANCH  28  29
ENDBRANCH  27  28
ENDBRANCH  24  27
ENDBRANCH   6  23
TORSDOF 6
ENDMDL
MODEL 7
REMARK VINA RESULT:      -9.3      1.259      1.764
REMARK  Name = 
REMARK  7 active torsions:
REMARK  status: ('A' for Active; 'I' for Inactive)
REMARK    1  A    between atoms: C_1  and  N_2
REMARK    2  A    between atoms: C_4  and  C_5
REMARK    3  A    between atoms: C_10  and  N_11
REMARK    4  A    between atoms: C_12  and  O_14
REMARK    5  A    between atoms: O_14  and  C_15
REMARK    6  A    between atoms: C_15  and  C_16
REMARK    7  A    between atoms: C_25  and  C_26
REMARK                            x       y       z     vdW  Elec       q    Type
REMARK                         _______ _______ _______ _____ _____    ______ ____
ROOT
ATOM      1  C   UNL     1       2.865   7.207  18.442  0.00  0.00    +0.000 A 
ATOM      2  C   UNL     1       2.560   8.277  17.452  0.00  0.00    +0.000 A 
ATOM      3  C   UNL     1       1.761   9.269  17.858  0.00  0.00    +0.000 A 
ATOM      4  C   UNL     1       1.258   9.254  19.174  0.00  0.00    +0.000 A 
ATOM      5  N   UNL     1       0.438  10.074  19.787  0.00  0.00    +0.000 NA
ATOM      6  C   UNL     1       0.264   9.553  21.037  0.00  0.00    +0.000 A 
ATOM      7  C   UNL     1       0.998   8.398  21.193  0.00  0.00    +0.000 A 
ATOM      8  N   UNL     1       1.643   8.213  19.996  0.00  0.00    +0.000 N 
ATOM      9  N   UNL     1       2.456   7.169  19.674  0.00  0.00    +0.000 NA
ENDROOT
BRANCH   1  13
ATOM     10  C   UNL     1       5.923   4.433  15.663  0.00  0.00    +0.000 C 
ATOM     11  N   UNL     1       5.012   4.888  16.687  0.00  0.00    +0.000 N 
ATOM     12  C   UNL     1       4.531   6.149  16.850  0.00  0.00    +0.000 A 
ATOM     13  C   UNL     1       3.643   6.099  17.912  0.00  0.00    +0.000 A 
ATOM     14  C   UNL     1       3.665   4.721  18.325  0.00  0.00    +0.000 A 
ATOM     15  N   UNL     1       4.527   4.011  17.574  0.00  0.00    +0.000 NA
BRANCH  14  16
ATOM     16  C   UNL     1       2.872   4.049  19.362  0.00  0.00    +0.000 A 
ATOM     17  C   UNL     1       1.471   3.991  19.282  0.00  0.00    +0.000 A 
ATOM     18  C   UNL     1       0.721   3.392  20.295  0.00  0.00    +0.000 A 
ATOM     19  C   UNL     1       1.373   2.806  21.371  0.00  0.00    +0.000 A 
ATOM     20  F   UNL     1       0.653   2.228  22.341  0.00  0.00    +0.000 F 
ATOM     21  C   UNL     1       2.760   2.807  21.452  0.00  0.00    +0.000 A 
ATOM     22  C   UNL     1       3.510   3.430  20.450  0.00  0.00    +0.000 A 
ENDBRANCH  14  16
ENDBRANCH   1  13
BRANCH   6  23
ATOM     23  N   UNL     1      -0.525  10.145  21.990  0.00  0.00    +0.000 N 
ATOM     24  C   UNL     1      -0.415  11.462  22.358  0.00  0.00    +0.000 C 
ATOM     25  O   UNL     1       0.291  12.325  21.856  0.00  0.00    +0.000 OA
ATOM     26  H   UNL     1      -1.147   9.573  22.536  0.00  0.00    +0.000 HD
BRANCH  24  27
ATOM     27  O   UNL     1      -1.182  11.678  23.463  0.00  0.00    +0.000 OA
BRANCH  27  28
ATOM     28  C   UNL     1      -2.567  11.930  23.182  0.00  0.00    +0.000 C 
BRANCH  28  29
ATOM     29  C   UNL     1      -2.922  13.393  23.266  0.00  0.00    +0.000 A 
ATOM     30  C   UNL     1      -3.032  14.168  22.104  0.00  0.00    +0.000 A 
ATOM     31  C   UNL     1      -3.429  15.506  22.178  0.00  0.00    +0.000 A 
ATOM     32  C   UNL     1      -3.709  16.084  23.415  0.00  0.00    +0.000 A 
ATOM     33  C   UNL     1      -3.589  15.326  24.578  0.00  0.00    +0.000 A 
ATOM     34  C   UNL     1      -3.192  13.989  24.506  0.00  0.00    +0.000 A 
ENDBRANCH  28  29
ENDBRANCH  27  28
ENDBRANCH  24  27
ENDBRANCH   6  23
TORSDOF 6
ENDMDL
MODEL 8
REMARK VINA RESULT:      -9.3      2.665      3.935
REMARK  Name = 
REMARK  7 active torsions:
REMARK  status: ('A' for Active; 'I' for Inactive)
REMARK    1  A    between atoms: C_1  and  N_2
REMARK    2  A    between atoms: C_4  and  C_5
REMARK    3  A    between atoms: C_10  and  N_11
REMARK    4  A    between atoms: C_12  and  O_14
REMARK    5  A    between atoms: O_14  and  C_15
REMARK    6  A    between atoms: C_15  and  C_16
REMARK    7  A    between atoms: C_25  and  C_26
REMARK                            x       y       z     vdW  Elec       q    Type
REMARK                         _______ _______ _______ _____ _____    ______ ____
ROOT
ATOM      1  C   UNL     1       2.226   6.722  19.593  0.00  0.00    +0.000 A 
ATOM      2  C   UNL     1       2.537   7.103  18.187  0.00  0.00    +0.000 A 
ATOM      3  C   UNL     1       2.225   8.348  17.814  0.00  0.00    +0.000 A 
ATOM      4  C   UNL     1       1.631   9.220  18.748  0.00  0.00    +0.000 A 
ATOM      5  N   UNL     1       1.203  10.452  18.618  0.00  0.00    +0.000 NA
ATOM      6  C   UNL     1       0.684  10.791  19.834  0.00  0.00    +0.000 A 
ATOM      7  C   UNL     1       0.805   9.749  20.727  0.00  0.00    +0.000 A 
ATOM      8  N   UNL     1       1.423   8.743  20.028  0.00  0.00    +0.000 N 
ATOM      9  N   UNL     1       1.715   7.498  20.499  0.00  0.00    +0.000 NA
ENDROOT
BRANCH   1  13
ATOM     10  C   UNL     1       2.097   2.212  21.696  0.00  0.00    +0.000 C 
ATOM     11  N   UNL     1       2.401   3.331  20.835  0.00  0.00    +0.000 N 
ATOM     12  C   UNL     1       1.829   4.564  20.864  0.00  0.00    +0.000 A 
ATOM     13  C   UNL     1       2.481   5.325  19.909  0.00  0.00    +0.000 A 
ATOM     14  C   UNL     1       3.456   4.428  19.348  0.00  0.00    +0.000 A 
ATOM     15  N   UNL     1       3.367   3.211  19.916  0.00  0.00    +0.000 NA
BRANCH  14  16
ATOM     16  C   UNL     1       4.489   4.690  18.338  0.00  0.00    +0.000 A 
ATOM     17  C   UNL     1       5.657   5.399  18.662  0.00  0.00    +0.000 A 
ATOM     18  C   UNL     1       6.613   5.686  17.686  0.00  0.00    +0.000 A 
ATOM     19  C   UNL     1       6.425   5.225  16.390  0.00  0.00    +0.000 A 
ATOM     20  F   UNL     1       7.344   5.497  15.455  0.00  0.00    +0.000 F 
ATOM     21  C   UNL     1       5.301   4.481  16.053  0.00  0.00    +0.000 A 
ATOM     22  C   UNL     1       4.332   4.215  17.025  0.00  0.00    +0.000 A 
ENDBRANCH  14  16
ENDBRANCH   1  13
BRANCH   6  23
ATOM     23  N   UNL     1       0.145  12.025  20.099  0.00  0.00    +0.000 N 
ATOM     24  C   UNL     1       0.811  13.017  20.771  0.00  0.00    +0.000 C 
ATOM     25  O   UNL     1       1.977  13.023  21.139  0.00  0.00    +0.000 OA
ATOM     26  H   UNL     1      -0.827  12.189  19.895  0.00  0.00    +0.000 HD
BRANCH  24  27
ATOM     27  O   UNL     1      -0.064  14.023  21.056  0.00  0.00    +0.000 OA
BRANCH  27  28
ATOM     28  C   UNL     1      -0.187  14.323  22.454  0.00  0.00    +0.000 C 
BRANCH  28  29
ATOM     29  C   UNL     1      -1.500  13.867  23.035  0.00  0.00    +0.000 A 
ATOM     30  C   UNL     1      -1.857  12.512  23.017  0.00  0.00    +0.000 A 
ATOM     31  C   UNL     1      -3.042  12.081  23.617  0.00  0.00    +0.000 A 
ATOM     32  C   UNL     1      -3.888  13.003  24.234  0.00  0.00    +0.000 A 
ATOM     33  C   UNL     1      -3.551  14.354  24.246  0.00  0.00    +0.000 A 
ATOM     34  C   UNL     1      -2.366  14.787  23.645  0.00  0.00    +0.000 A 
ENDBRANCH  28  29
ENDBRANCH  27  28
ENDBRANCH  24  27
ENDBRANCH   6  23
TORSDOF 6
ENDMDL
MODEL 9
REMARK VINA RESULT:      -9.3      4.530      5.804
REMARK  Name = 
REMARK  7 active torsions:
REMARK  status: ('A' for Active; 'I' for Inactive)
REMARK    1  A    between atoms: C_1  and  N_2
REMARK    2  A    between atoms: C_4  and  C_5
REMARK    3  A    between atoms: C_10  and  N_11
REMARK    4  A    between atoms: C_12  and  O_14
REMARK    5  A    between atoms: O_14  and  C_15
REMARK    6  A    between atoms: C_15  and  C_16
REMARK    7  A    between atoms: C_25  and  C_26
REMARK                            x       y       z     vdW  Elec       q    Type
REMARK                         _______ _______ _______ _____ _____    ______ ____
ROOT
ATOM      1  C   UNL     1       2.450   6.331  19.065  0.00  0.00    +0.000 A 
ATOM      2  C   UNL     1       1.981   6.464  20.473  0.00  0.00    +0.000 A 
ATOM      3  C   UNL     1       1.472   7.646  20.833  0.00  0.00    +0.000 A 
ATOM      4  C   UNL     1       1.404   8.686  19.884  0.00  0.00    +0.000 A 
ATOM      5  N   UNL     1       0.993   9.925  20.000  0.00  0.00    +0.000 NA
ATOM      6  C   UNL     1       1.188  10.493  18.774  0.00  0.00    +0.000 A 
ATOM      7  C   UNL     1       1.722   9.580  17.891  0.00  0.00    +0.000 A 
ATOM      8  N   UNL     1       1.850   8.417  18.605  0.00  0.00    +0.000 N 
ATOM      9  N   UNL     1       2.374   7.246  18.147  0.00  0.00    +0.000 NA
ENDROOT
BRANCH   1  13
ATOM     10  C   UNL     1       3.372   1.479  18.454  0.00  0.00    +0.000 C 
ATOM     11  N   UNL     1       3.486   2.918  18.478  0.00  0.00    +0.000 N 
ATOM     12  C   UNL     1       2.516   3.809  18.816  0.00  0.00    +0.000 A 
ATOM     13  C   UNL     1       3.097   5.065  18.762  0.00  0.00    +0.000 A 
ATOM     14  C   UNL     1       4.458   4.807  18.372  0.00  0.00    +0.000 A 
ATOM     15  N   UNL     1       4.659   3.490  18.182  0.00  0.00    +0.000 NA
BRANCH  14  16
ATOM     16  C   UNL     1       5.575   5.748  18.219  0.00  0.00    +0.000 A 
ATOM     17  C   UNL     1       5.501   6.822  17.317  0.00  0.00    +0.000 A 
ATOM     18  C   UNL     1       6.583   7.684  17.142  0.00  0.00    +0.000 A 
ATOM     19  C   UNL     1       7.730   7.504  17.902  0.00  0.00    +0.000 A 
ATOM     20  F   UNL     1       8.767   8.334  17.737  0.00  0.00    +0.000 F 
ATOM     21  C   UNL     1       7.813   6.478  18.837  0.00  0.00    +0.000 A 
ATOM     22  C   UNL     1       6.737   5.599  18.993  0.00  0.00    +0.000 A 
ENDBRANCH  14  16
ENDBRANCH   1  13
BRANCH   6  23
ATOM     23  N   UNL     1       0.862  11.796  18.493  0.00  0.00    +0.000 N 
ATOM     24  C   UNL     1       1.265  12.862  19.255  0.00  0.00    +0.000 C 
ATOM     25  O   UNL     1       2.034  12.858  20.205  0.00  0.00    +0.000 OA
ATOM     26  H   UNL     1       0.202  11.988  17.758  0.00  0.00    +0.000 HD
BRANCH  24  27
ATOM     27  O   UNL     1       0.604  13.978  18.838  0.00  0.00    +0.000 OA
BRANCH  27  28
ATOM     28  C   UNL     1       1.098  15.204  19.399  0.00  0.00    +0.000 C 
BRANCH  28  29
ATOM     29  C   UNL     1       0.864  16.392  18.502  0.00  0.00    +0.000 A 
ATOM     30  C   UNL     1       1.925  16.969  17.790  0.00  0.00    +0.000 A 
ATOM     31  C   UNL     1       1.695  18.025  16.905  0.00  0.00    +0.000 A 
ATOM     32  C   UNL     1       0.404  18.522  16.731  0.00  0.00    +0.000 A 
ATOM     33  C   UNL     1      -0.656  17.966  17.444  0.00  0.00    +0.000 A 
ATOM     34  C   UNL     1      -0.428  16.910  18.330  0.00  0.00    +0.000 A 
ENDBRANCH  28  29
ENDBRANCH  27  28
ENDBRANCH  24  27
ENDBRANCH   6  23
TORSDOF 6
ENDMDL
