MODEL 1
REMARK VINA RESULT:      -7.1      0.000      0.000
REMARK  Name = 
REMARK  15 active torsions:
REMARK  status: ('A' for Active; 'I' for Inactive)
REMARK    1  A    between atoms: C_1  and  N_2
REMARK    2  A    between atoms: N_2  and  C_3
REMARK    3  A    between atoms: N_12  and  C_13
REMARK    4  A    between atoms: C_13  and  C_14
REMARK    5  A    between atoms: C_14  and  C_15
REMARK    6  A    between atoms: C_15  and  C_16
REMARK    7  A    between atoms: C_15  and  C_22
REMARK    8  A    between atoms: C_16  and  O_17
REMARK    9  A    between atoms: O_17  and  P_18
REMARK   10  A    between atoms: P_18  and  O_20
REMARK   11  A    between atoms: P_18  and  O_21
REMARK   12  A    between atoms: C_22  and  O_23
REMARK   13  A    between atoms: O_23  and  P_24
REMARK   14  A    between atoms: P_24  and  O_26
REMARK   15  A    between atoms: P_24  and  O_27
REMARK                            x       y       z     vdW  Elec       q    Type
REMARK                         _______ _______ _______ _____ _____    ______ ____
ROOT
ATOM      1  C   UNL     1       3.952   4.788  18.088  0.00  0.00    +0.000 C 
ENDROOT
BRANCH   1   2
ATOM      2  C   UNL     1       2.752   5.763  18.079  0.00  0.00    +0.000 C 
BRANCH   2   3
ATOM      3  C   UNL     1       2.712   6.799  19.209  0.00  0.00    +0.000 C 
BRANCH   3  13
ATOM      4  C   UNL     1       0.470  11.077  19.626  0.00  0.00    +0.000 A 
ATOM      5  N   UNL     1       0.079  10.869  20.909  0.00  0.00    +0.000 NA
ATOM      6  C   UNL     1       0.383   9.690  21.486  0.00  0.00    +0.000 A 
ATOM      7 CL   UNL     1      -0.149   9.507  23.102  0.00  0.00    +0.000 Cl
ATOM      8  N   UNL     1       1.057   8.643  20.978  0.00  0.00    +0.000 NA
ATOM      9  C   UNL     1       1.418   8.887  19.709  0.00  0.00    +0.000 A 
ATOM     10  C   UNL     1       1.168  10.034  18.975  0.00  0.00    +0.000 A 
ATOM     11  N   UNL     1       1.707   9.930  17.709  0.00  0.00    +0.000 NA
ATOM     12  C   UNL     1       2.273   8.738  17.681  0.00  0.00    +0.000 A 
ATOM     13  N   UNL     1       2.119   8.071  18.866  0.00  0.00    +0.000 N 
BRANCH   4  15
ATOM     14  C   UNL     1      -1.190  12.717  19.088  0.00  0.00    +0.000 C 
ATOM     15  N   UNL     1       0.189  12.284  18.979  0.00  0.00    +0.000 N 
ATOM     16  H   UNL     1       0.886  12.980  19.233  0.00  0.00    +0.000 HD
ENDBRANCH   4  15
ENDBRANCH   3  13
ENDBRANCH   2   3
ENDBRANCH   1   2
BRANCH   1  17
ATOM     17  C   UNL     1       3.635   3.499  18.827  0.00  0.00    +0.000 C 
BRANCH  17  18
ATOM     18  O   UNL     1       2.236   3.421  19.137  0.00  0.00    +0.000 OA
BRANCH  18  19
ATOM     19  P   UNL     1       1.907   2.921  20.760  0.00  0.00    +0.000 P 
ATOM     20  O   UNL     1       2.281   4.264  21.388  0.00  0.00    +0.000 OA
BRANCH  19  21
ATOM     21  O   UNL     1       0.309   2.923  20.454  0.00  0.00    +0.000 OA
ATOM     22  H   UNL     1       0.080   3.529  19.728  0.00  0.00    +0.000 HD
ENDBRANCH  19  21
BRANCH  19  23
ATOM     23  O   UNL     1       1.579   2.421  22.384  0.00  0.00    +0.000 OA
ATOM     24  H   UNL     1       1.949   1.512  22.387  0.00  0.00    +0.000 HD
ENDBRANCH  19  23
ENDBRANCH  18  19
ENDBRANCH  17  18
ENDBRANCH   1  17
BRANCH   1  25
ATOM     25  C   UNL     1       4.350   4.403  16.671  0.00  0.00    +0.000 C 
BRANCH  25  26
ATOM     26  O   UNL     1       5.670   3.895  16.653  0.00  0.00    +0.000 OA
BRANCH  26  27
ATOM     27  P   UNL     1       6.672   4.747  15.530  0.00  0.00    +0.000 P 
ATOM     28  O   UNL     1       7.953   4.428  16.300  0.00  0.00    +0.000 OA
BRANCH  27  29
ATOM     29  O   UNL     1       6.505   3.570  14.421  0.00  0.00    +0.000 OA
ATOM     30  H   UNL     1       7.188   2.880  14.484  0.00  0.00    +0.000 HD
ENDBRANCH  27  29
BRANCH  27  31
ATOM     31  O   UNL     1       7.675   5.600  14.407  0.00  0.00    +0.000 OA
ATOM     32  H   UNL     1       7.102   5.623  13.611  0.00  0.00    +0.000 HD
ENDBRANCH  27  31
ENDBRANCH  26  27
ENDBRANCH  25  26
ENDBRANCH   1  25
TORSDOF 14
ENDMDL
MODEL 2
REMARK VINA RESULT:      -7.0      1.536      4.420
REMARK  Name = 
REMARK  15 active torsions:
REMARK  status: ('A' for Active; 'I' for Inactive)
REMARK    1  A    between atoms: C_1  and  N_2
REMARK    2  A    between atoms: N_2  and  C_3
REMARK    3  A    between atoms: N_12  and  C_13
REMARK    4  A    between atoms: C_13  and  C_14
REMARK    5  A    between atoms: C_14  and  C_15
REMARK    6  A    between atoms: C_15  and  C_16
REMARK    7  A    between atoms: C_15  and  C_22
REMARK    8  A    between atoms: C_16  and  O_17
REMARK    9  A    between atoms: O_17  and  P_18
REMARK   10  A    between atoms: P_18  and  O_20
REMARK   11  A    between atoms: P_18  and  O_21
REMARK   12  A    between atoms: C_22  and  O_23
REMARK   13  A    between atoms: O_23  and  P_24
REMARK   14  A    between atoms: P_24  and  O_26
REMARK   15  A    between atoms: P_24  and  O_27
REMARK                            x       y       z     vdW  Elec       q    Type
REMARK                         _______ _______ _______ _____ _____    ______ ____
ROOT
ATOM      1  C   UNL     1       4.431   5.393  18.015  0.00  0.00    +0.000 C 
ENDROOT
BRANCH   1   2
ATOM      2  C   UNL     1       3.966   6.833  18.334  0.00  0.00    +0.000 C 
BRANCH   2   3
ATOM      3  C   UNL     1       2.650   6.963  19.110  0.00  0.00    +0.000 C 
BRANCH   3  13
ATOM      4  C   UNL     1       0.170  11.037  19.975  0.00  0.00    +0.000 A 
ATOM      5  N   UNL     1      -0.023  10.769  21.291  0.00  0.00    +0.000 NA
ATOM      6  C   UNL     1       0.446   9.605  21.780  0.00  0.00    +0.000 A 
ATOM      7 CL   UNL     1       0.160   9.342  23.447  0.00  0.00    +0.000 Cl
ATOM      8  N   UNL     1       1.121   8.627  21.150  0.00  0.00    +0.000 NA
ATOM      9  C   UNL     1       1.283   8.928  19.853  0.00  0.00    +0.000 A 
ATOM     10  C   UNL     1       0.847  10.069  19.199  0.00  0.00    +0.000 A 
ATOM     11  N   UNL     1       1.212  10.038  17.869  0.00  0.00    +0.000 NA
ATOM     12  C   UNL     1       1.858   8.896  17.723  0.00  0.00    +0.000 A 
ATOM     13  N   UNL     1       1.920   8.191  18.895  0.00  0.00    +0.000 N 
BRANCH   4  15
ATOM     14  C   UNL     1       0.715  13.273  19.311  0.00  0.00    +0.000 C 
ATOM     15  N   UNL     1      -0.290  12.233  19.413  0.00  0.00    +0.000 N 
ATOM     16  H   UNL     1      -0.800  12.035  18.556  0.00  0.00    +0.000 HD
ENDBRANCH   4  15
ENDBRANCH   3  13
ENDBRANCH   2   3
ENDBRANCH   1   2
BRANCH   1  17
ATOM     17  C   UNL     1       5.122   4.739  19.198  0.00  0.00    +0.000 C 
BRANCH  17  18
ATOM     18  O   UNL     1       6.533   4.622  18.962  0.00  0.00    +0.000 OA
BRANCH  18  19
ATOM     19  P   UNL     1       7.052   5.321  17.467  0.00  0.00    +0.000 P 
ATOM     20  O   UNL     1       7.777   6.498  18.120  0.00  0.00    +0.000 OA
BRANCH  19  21
ATOM     21  O   UNL     1       8.121   4.112  17.255  0.00  0.00    +0.000 OA
ATOM     22  H   UNL     1       8.245   3.591  18.067  0.00  0.00    +0.000 HD
ENDBRANCH  19  21
BRANCH  19  23
ATOM     23  O   UNL     1       7.570   6.020  15.972  0.00  0.00    +0.000 OA
ATOM     24  H   UNL     1       7.717   6.955  16.234  0.00  0.00    +0.000 HD
ENDBRANCH  19  23
ENDBRANCH  18  19
ENDBRANCH  17  18
ENDBRANCH   1  17
BRANCH   1  25
ATOM     25  C   UNL     1       3.247   4.509  17.646  0.00  0.00    +0.000 C 
BRANCH  25  26
ATOM     26  O   UNL     1       3.208   3.368  18.479  0.00  0.00    +0.000 OA
BRANCH  26  27
ATOM     27  P   UNL     1       1.598   3.005  18.998  0.00  0.00    +0.000 P 
ATOM     28  O   UNL     1       0.964   3.647  17.765  0.00  0.00    +0.000 OA
BRANCH  27  29
ATOM     29  O   UNL     1       1.792   1.431  18.641  0.00  0.00    +0.000 OA
ATOM     30  H   UNL     1       1.305   0.836  19.237  0.00  0.00    +0.000 HD
ENDBRANCH  27  29
BRANCH  27  31
ATOM     31  O   UNL     1      -0.011   2.642  19.517  0.00  0.00    +0.000 OA
ATOM     32  H   UNL     1      -0.536   3.281  18.989  0.00  0.00    +0.000 HD
ENDBRANCH  27  31
ENDBRANCH  26  27
ENDBRANCH  25  26
ENDBRANCH   1  25
TORSDOF 14
ENDMDL
MODEL 3
REMARK VINA RESULT:      -7.0      0.936      4.676
REMARK  Name = 
REMARK  15 active torsions:
REMARK  status: ('A' for Active; 'I' for Inactive)
REMARK    1  A    between atoms: C_1  and  N_2
REMARK    2  A    between atoms: N_2  and  C_3
REMARK    3  A    between atoms: N_12  and  C_13
REMARK    4  A    between atoms: C_13  and  C_14
REMARK    5  A    between atoms: C_14  and  C_15
REMARK    6  A    between atoms: C_15  and  C_16
REMARK    7  A    between atoms: C_15  and  C_22
REMARK    8  A    between atoms: C_16  and  O_17
REMARK    9  A    between atoms: O_17  and  P_18
REMARK   10  A    between atoms: P_18  and  O_20
REMARK   11  A    between atoms: P_18  and  O_21
REMARK   12  A    between atoms: C_22  and  O_23
REMARK   13  A    between atoms: O_23  and  P_24
REMARK   14  A    between atoms: P_24  and  O_26
REMARK   15  A    between atoms: P_24  and  O_27
REMARK                            x       y       z     vdW  Elec       q    Type
REMARK                         _______ _______ _______ _____ _____    ______ ____
ROOT
ATOM      1  C   UNL     1       3.564   4.596  18.366  0.00  0.00    +0.000 C 
ENDROOT
BRANCH   1   2
ATOM      2  C   UNL     1       3.660   6.128  18.556  0.00  0.00    +0.000 C 
BRANCH   2   3
ATOM      3  C   UNL     1       2.548   6.778  19.387  0.00  0.00    +0.000 C 
BRANCH   3  13
ATOM      4  C   UNL     1       0.515  11.176  19.249  0.00  0.00    +0.000 A 
ATOM      5  N   UNL     1       0.002  11.097  20.503  0.00  0.00    +0.000 NA
ATOM      6  C   UNL     1       0.189   9.959  21.199  0.00  0.00    +0.000 A 
ATOM      7 CL   UNL     1      -0.491   9.940  22.770  0.00  0.00    +0.000 Cl
ATOM      8  N   UNL     1       0.847   8.842  20.842  0.00  0.00    +0.000 NA
ATOM      9  C   UNL     1       1.331   8.959  19.596  0.00  0.00    +0.000 A 
ATOM     10  C   UNL     1       1.209  10.050  18.752  0.00  0.00    +0.000 A 
ATOM     11  N   UNL     1       1.850   9.813  17.553  0.00  0.00    +0.000 NA
ATOM     12  C   UNL     1       2.351   8.597  17.673  0.00  0.00    +0.000 A 
ATOM     13  N   UNL     1       2.057   8.042  18.890  0.00  0.00    +0.000 N 
BRANCH   4  15
ATOM     14  C   UNL     1      -0.665  13.241  18.967  0.00  0.00    +0.000 C 
ATOM     15  N   UNL     1       0.357  12.335  18.483  0.00  0.00    +0.000 N 
ATOM     16  H   UNL     1       1.266  12.757  18.309  0.00  0.00    +0.000 HD
ENDBRANCH   4  15
ENDBRANCH   3  13
ENDBRANCH   2   3
ENDBRANCH   1   2
BRANCH   1  17
ATOM     17  C   UNL     1       4.533   4.088  17.312  0.00  0.00    +0.000 C 
BRANCH  17  18
ATOM     18  O   UNL     1       5.870   4.527  17.597  0.00  0.00    +0.000 OA
BRANCH  18  19
ATOM     19  P   UNL     1       6.797   4.902  16.185  0.00  0.00    +0.000 P 
ATOM     20  O   UNL     1       6.916   6.393  16.501  0.00  0.00    +0.000 OA
BRANCH  19  21
ATOM     21  O   UNL     1       8.090   4.139  16.813  0.00  0.00    +0.000 OA
ATOM     22  H   UNL     1       8.174   4.294  17.769  0.00  0.00    +0.000 HD
ENDBRANCH  19  21
BRANCH  19  23
ATOM     23  O   UNL     1       7.724   5.278  14.773  0.00  0.00    +0.000 OA
ATOM     24  H   UNL     1       8.405   4.571  14.793  0.00  0.00    +0.000 HD
ENDBRANCH  19  23
ENDBRANCH  18  19
ENDBRANCH  17  18
ENDBRANCH   1  17
BRANCH   1  25
ATOM     25  C   UNL     1       3.891   3.867  19.661  0.00  0.00    +0.000 C 
BRANCH  25  26
ATOM     26  O   UNL     1       2.713   3.646  20.411  0.00  0.00    +0.000 OA
BRANCH  26  27
ATOM     27  P   UNL     1       1.454   2.961  19.444  0.00  0.00    +0.000 P 
ATOM     28  O   UNL     1       2.175   1.621  19.300  0.00  0.00    +0.000 OA
BRANCH  27  29
ATOM     29  O   UNL     1       0.481   2.815  20.738  0.00  0.00    +0.000 OA
ATOM     30  H   UNL     1       0.417   3.629  21.267  0.00  0.00    +0.000 HD
ENDBRANCH  27  29
BRANCH  27  31
ATOM     31  O   UNL     1       0.194   2.276  18.476  0.00  0.00    +0.000 OA
ATOM     32  H   UNL     1       0.167   1.355  18.813  0.00  0.00    +0.000 HD
ENDBRANCH  27  31
ENDBRANCH  26  27
ENDBRANCH  25  26
ENDBRANCH   1  25
TORSDOF 14
ENDMDL
MODEL 4
REMARK VINA RESULT:      -7.0      1.199      1.719
REMARK  Name = 
REMARK  15 active torsions:
REMARK  status: ('A' for Active; 'I' for Inactive)
REMARK    1  A    between atoms: C_1  and  N_2
REMARK    2  A    between atoms: N_2  and  C_3
REMARK    3  A    between atoms: N_12  and  C_13
REMARK    4  A    between atoms: C_13  and  C_14
REMARK    5  A    between atoms: C_14  and  C_15
REMARK    6  A    between atoms: C_15  and  C_16
REMARK    7  A    between atoms: C_15  and  C_22
REMARK    8  A    between atoms: C_16  and  O_17
REMARK    9  A    between atoms: O_17  and  P_18
REMARK   10  A    between atoms: P_18  and  O_20
REMARK   11  A    between atoms: P_18  and  O_21
REMARK   12  A    between atoms: C_22  and  O_23
REMARK   13  A    between atoms: O_23  and  P_24
REMARK   14  A    between atoms: P_24  and  O_26
REMARK   15  A    between atoms: P_24  and  O_27
REMARK                            x       y       z     vdW  Elec       q    Type
REMARK                         _______ _______ _______ _____ _____    ______ ____
ROOT
ATOM      1  C   UNL     1       4.622   4.805  19.206  0.00  0.00    +0.000 C 
ENDROOT
BRANCH   1   2
ATOM      2  C   UNL     1       3.722   5.883  18.559  0.00  0.00    +0.000 C 
BRANCH   2   3
ATOM      3  C   UNL     1       2.808   6.663  19.511  0.00  0.00    +0.000 C 
BRANCH   3  13
ATOM      4  C   UNL     1       0.428  10.876  19.202  0.00  0.00    +0.000 A 
ATOM      5  N   UNL     1      -0.089  10.799  20.454  0.00  0.00    +0.000 NA
ATOM      6  C   UNL     1       0.183   9.705  21.191  0.00  0.00    +0.000 A 
ATOM      7 CL   UNL     1      -0.509   9.686  22.757  0.00  0.00    +0.000 Cl
ATOM      8  N   UNL     1       0.932   8.633  20.879  0.00  0.00    +0.000 NA
ATOM      9  C   UNL     1       1.417   8.745  19.633  0.00  0.00    +0.000 A 
ATOM     10  C   UNL     1       1.216   9.792  18.749  0.00  0.00    +0.000 A 
ATOM     11  N   UNL     1       1.887   9.566  17.565  0.00  0.00    +0.000 NA
ATOM     12  C   UNL     1       2.482   8.400  17.732  0.00  0.00    +0.000 A 
ATOM     13  N   UNL     1       2.222   7.865  18.965  0.00  0.00    +0.000 N 
BRANCH   4  15
ATOM     14  C   UNL     1      -0.844  12.880  18.891  0.00  0.00    +0.000 C 
ATOM     15  N   UNL     1       0.186  11.991  18.393  0.00  0.00    +0.000 N 
ATOM     16  H   UNL     1       1.067  12.437  18.151  0.00  0.00    +0.000 HD
ENDBRANCH   4  15
ENDBRANCH   3  13
ENDBRANCH   2   3
ENDBRANCH   1   2
BRANCH   1  17
ATOM     17  C   UNL     1       3.946   3.446  19.249  0.00  0.00    +0.000 C 
BRANCH  17  18
ATOM     18  O   UNL     1       2.643   3.544  19.843  0.00  0.00    +0.000 OA
BRANCH  18  19
ATOM     19  P   UNL     1       1.438   2.593  19.045  0.00  0.00    +0.000 P 
ATOM     20  O   UNL     1       1.232   3.581  17.897  0.00  0.00    +0.000 OA
BRANCH  19  21
ATOM     21  O   UNL     1       2.567   1.511  18.595  0.00  0.00    +0.000 OA
ATOM     22  H   UNL     1       2.693   1.498  17.631  0.00  0.00    +0.000 HD
ENDBRANCH  19  21
BRANCH  19  23
ATOM     23  O   UNL     1       0.232   1.642  18.248  0.00  0.00    +0.000 OA
ATOM     24  H   UNL     1      -0.587   2.130  18.481  0.00  0.00    +0.000 HD
ENDBRANCH  19  23
ENDBRANCH  18  19
ENDBRANCH  17  18
ENDBRANCH   1  17
BRANCH   1  25
ATOM     25  C   UNL     1       5.916   4.635  18.422  0.00  0.00    +0.000 C 
BRANCH  25  26
ATOM     26  O   UNL     1       5.903   5.454  17.270  0.00  0.00    +0.000 OA
BRANCH  26  27
ATOM     27  P   UNL     1       6.208   4.545  15.830  0.00  0.00    +0.000 P 
ATOM     28  O   UNL     1       6.084   5.771  14.927  0.00  0.00    +0.000 OA
BRANCH  27  29
ATOM     29  O   UNL     1       7.785   4.410  16.198  0.00  0.00    +0.000 OA
ATOM     30  H   UNL     1       7.976   3.692  16.825  0.00  0.00    +0.000 HD
ENDBRANCH  27  29
BRANCH  27  31
ATOM     31  O   UNL     1       6.512   3.635  14.390  0.00  0.00    +0.000 OA
ATOM     32  H   UNL     1       5.727   3.048  14.360  0.00  0.00    +0.000 HD
ENDBRANCH  27  31
ENDBRANCH  26  27
ENDBRANCH  25  26
ENDBRANCH   1  25
TORSDOF 14
ENDMDL
MODEL 5
REMARK VINA RESULT:      -7.0      0.906      4.702
REMARK  Name = 
REMARK  15 active torsions:
REMARK  status: ('A' for Active; 'I' for Inactive)
REMARK    1  A    between atoms: C_1  and  N_2
REMARK    2  A    between atoms: N_2  and  C_3
REMARK    3  A    between atoms: N_12  and  C_13
REMARK    4  A    between atoms: C_13  and  C_14
REMARK    5  A    between atoms: C_14  and  C_15
REMARK    6  A    between atoms: C_15  and  C_16
REMARK    7  A    between atoms: C_15  and  C_22
REMARK    8  A    between atoms: C_16  and  O_17
REMARK    9  A    between atoms: O_17  and  P_18
REMARK   10  A    between atoms: P_18  and  O_20
REMARK   11  A    between atoms: P_18  and  O_21
REMARK   12  A    between atoms: C_22  and  O_23
REMARK   13  A    between atoms: O_23  and  P_24
REMARK   14  A    between atoms: P_24  and  O_26
REMARK   15  A    between atoms: P_24  and  O_27
REMARK                            x       y       z     vdW  Elec       q    Type
REMARK                         _______ _______ _______ _____ _____    ______ ____
ROOT
ATOM      1  C   UNL     1       3.884   4.656  18.399  0.00  0.00    +0.000 C 
ENDROOT
BRANCH   1   2
ATOM      2  C   UNL     1       3.878   6.148  18.804  0.00  0.00    +0.000 C 
BRANCH   2   3
ATOM      3  C   UNL     1       2.596   6.663  19.471  0.00  0.00    +0.000 C 
BRANCH   3  13
ATOM      4  C   UNL     1       0.582  11.070  19.319  0.00  0.00    +0.000 A 
ATOM      5  N   UNL     1       0.113  11.018  20.591  0.00  0.00    +0.000 NA
ATOM      6  C   UNL     1       0.319   9.892  21.302  0.00  0.00    +0.000 A 
ATOM      7 CL   UNL     1      -0.306   9.908  22.895  0.00  0.00    +0.000 Cl
ATOM      8  N   UNL     1       0.958   8.765  20.943  0.00  0.00    +0.000 NA
ATOM      9  C   UNL     1       1.399   8.855  19.679  0.00  0.00    +0.000 A 
ATOM     10  C   UNL     1       1.253   9.930  18.819  0.00  0.00    +0.000 A 
ATOM     11  N   UNL     1       1.850   9.666  17.604  0.00  0.00    +0.000 NA
ATOM     12  C   UNL     1       2.349   8.451  17.730  0.00  0.00    +0.000 A 
ATOM     13  N   UNL     1       2.095   7.920  18.966  0.00  0.00    +0.000 N 
BRANCH   4  15
ATOM     14  C   UNL     1      -0.979  12.523  18.228  0.00  0.00    +0.000 C 
ATOM     15  N   UNL     1       0.404  12.215  18.536  0.00  0.00    +0.000 N 
ATOM     16  H   UNL     1       0.945  12.983  18.924  0.00  0.00    +0.000 HD
ENDBRANCH   4  15
ENDBRANCH   3  13
ENDBRANCH   2   3
ENDBRANCH   1   2
BRANCH   1  17
ATOM     17  C   UNL     1       4.466   4.443  17.012  0.00  0.00    +0.000 C 
BRANCH  17  18
ATOM     18  O   UNL     1       5.871   4.165  17.087  0.00  0.00    +0.000 OA
BRANCH  18  19
ATOM     19  P   UNL     1       6.780   4.796  15.757  0.00  0.00    +0.000 P 
ATOM     20  O   UNL     1       6.283   3.754  14.754  0.00  0.00    +0.000 OA
BRANCH  19  21
ATOM     21  O   UNL     1       5.799   6.092  15.680  0.00  0.00    +0.000 OA
ATOM     22  H   UNL     1       5.094   5.975  15.020  0.00  0.00    +0.000 HD
ENDBRANCH  19  21
BRANCH  19  23
ATOM     23  O   UNL     1       7.689   5.426  14.427  0.00  0.00    +0.000 OA
ATOM     24  H   UNL     1       8.599   5.428  14.795  0.00  0.00    +0.000 HD
ENDBRANCH  19  23
ENDBRANCH  18  19
ENDBRANCH  17  18
ENDBRANCH   1  17
BRANCH   1  25
ATOM     25  C   UNL     1       4.724   3.834  19.366  0.00  0.00    +0.000 C 
BRANCH  25  26
ATOM     26  O   UNL     1       4.036   2.655  19.733  0.00  0.00    +0.000 OA
BRANCH  26  27
ATOM     27  P   UNL     1       2.460   2.997  20.358  0.00  0.00    +0.000 P 
ATOM     28  O   UNL     1       1.819   1.819  19.625  0.00  0.00    +0.000 OA
BRANCH  27  29
ATOM     29  O   UNL     1       2.875   2.444  21.829  0.00  0.00    +0.000 OA
ATOM     30  H   UNL     1       3.735   2.778  22.139  0.00  0.00    +0.000 HD
ENDBRANCH  27  29
BRANCH  27  31
ATOM     31  O   UNL     1       0.883   3.341  20.982  0.00  0.00    +0.000 OA
ATOM     32  H   UNL     1       0.619   2.466  21.339  0.00  0.00    +0.000 HD
ENDBRANCH  27  31
ENDBRANCH  26  27
ENDBRANCH  25  26
ENDBRANCH   1  25
TORSDOF 14
ENDMDL
MODEL 6
REMARK VINA RESULT:      -7.0      1.476      1.753
REMARK  Name = 
REMARK  15 active torsions:
REMARK  status: ('A' for Active; 'I' for Inactive)
REMARK    1  A    between atoms: C_1  and  N_2
REMARK    2  A    between atoms: N_2  and  C_3
REMARK    3  A    between atoms: N_12  and  C_13
REMARK    4  A    between atoms: C_13  and  C_14
REMARK    5  A    between atoms: C_14  and  C_15
REMARK    6  A    between atoms: C_15  and  C_16
REMARK    7  A    between atoms: C_15  and  C_22
REMARK    8  A    between atoms: C_16  and  O_17
REMARK    9  A    between atoms: O_17  and  P_18
REMARK   10  A    between atoms: P_18  and  O_20
REMARK   11  A    between atoms: P_18  and  O_21
REMARK   12  A    between atoms: C_22  and  O_23
REMARK   13  A    between atoms: O_23  and  P_24
REMARK   14  A    between atoms: P_24  and  O_26
REMARK   15  A    between atoms: P_24  and  O_27
REMARK                            x       y       z     vdW  Elec       q    Type
REMARK                         _______ _______ _______ _____ _____    ______ ____
ROOT
ATOM      1  C   UNL     1       4.256   5.177  19.554  0.00  0.00    +0.000 C 
ENDROOT
BRANCH   1   2
ATOM      2  C   UNL     1       3.414   6.226  18.790  0.00  0.00    +0.000 C 
BRANCH   2   3
ATOM      3  C   UNL     1       2.401   7.018  19.625  0.00  0.00    +0.000 C 
BRANCH   3  13
ATOM      4  C   UNL     1       0.425  11.419  19.142  0.00  0.00    +0.000 A 
ATOM      5  N   UNL     1      -0.106  11.436  20.390  0.00  0.00    +0.000 NA
ATOM      6  C   UNL     1       0.057  10.349  21.168  0.00  0.00    +0.000 A 
ATOM      7 CL   UNL     1      -0.646  10.450  22.726  0.00  0.00    +0.000 Cl
ATOM      8  N   UNL     1       0.705   9.201  20.902  0.00  0.00    +0.000 NA
ATOM      9  C   UNL     1       1.209   9.223  19.658  0.00  0.00    +0.000 A 
ATOM     10  C   UNL     1       1.112  10.252  18.737  0.00  0.00    +0.000 A 
ATOM     11  N   UNL     1       1.768   9.922  17.568  0.00  0.00    +0.000 NA
ATOM     12  C   UNL     1       2.251   8.713  17.782  0.00  0.00    +0.000 A 
ATOM     13  N   UNL     1       1.933   8.249  19.030  0.00  0.00    +0.000 N 
BRANCH   4  15
ATOM     14  C   UNL     1      -0.346  13.673  18.898  0.00  0.00    +0.000 C 
ATOM     15  N   UNL     1       0.294  12.522  18.292  0.00  0.00    +0.000 N 
ATOM     16  H   UNL     1       1.181  12.709  17.832  0.00  0.00    +0.000 HD
ENDBRANCH   4  15
ENDBRANCH   3  13
ENDBRANCH   2   3
ENDBRANCH   1   2
BRANCH   1  17
ATOM     17  C   UNL     1       3.989   3.764  19.065  0.00  0.00    +0.000 C 
BRANCH  17  18
ATOM     18  O   UNL     1       2.990   3.762  18.035  0.00  0.00    +0.000 OA
BRANCH  18  19
ATOM     19  P   UNL     1       1.652   2.715  18.362  0.00  0.00    +0.000 P 
ATOM     20  O   UNL     1       2.473   1.701  19.159  0.00  0.00    +0.000 OA
BRANCH  19  21
ATOM     21  O   UNL     1       1.033   3.805  19.401  0.00  0.00    +0.000 OA
ATOM     22  H   UNL     1       0.086   3.653  19.563  0.00  0.00    +0.000 HD
ENDBRANCH  19  21
BRANCH  19  23
ATOM     23  O   UNL     1       0.314   1.668  18.689  0.00  0.00    +0.000 OA
ATOM     24  H   UNL     1      -0.304   2.277  19.147  0.00  0.00    +0.000 HD
ENDBRANCH  19  23
ENDBRANCH  18  19
ENDBRANCH  17  18
ENDBRANCH   1  17
BRANCH   1  25
ATOM     25  C   UNL     1       5.744   5.439  19.372  0.00  0.00    +0.000 C 
BRANCH  25  26
ATOM     26  O   UNL     1       6.330   4.420  18.586  0.00  0.00    +0.000 OA
BRANCH  26  27
ATOM     27  P   UNL     1       6.934   5.031  17.085  0.00  0.00    +0.000 P 
ATOM     28  O   UNL     1       7.380   6.355  17.706  0.00  0.00    +0.000 OA
BRANCH  27  29
ATOM     29  O   UNL     1       8.222   4.043  17.152  0.00  0.00    +0.000 OA
ATOM     30  H   UNL     1       8.177   3.305  16.520  0.00  0.00    +0.000 HD
ENDBRANCH  27  29
BRANCH  27  31
ATOM     31  O   UNL     1       7.538   5.644  15.584  0.00  0.00    +0.000 OA
ATOM     32  H   UNL     1       7.705   4.814  15.087  0.00  0.00    +0.000 HD
ENDBRANCH  27  31
ENDBRANCH  26  27
ENDBRANCH  25  26
ENDBRANCH   1  25
TORSDOF 14
ENDMDL
MODEL 7
REMARK VINA RESULT:      -6.9      5.908      8.632
REMARK  Name = 
REMARK  15 active torsions:
REMARK  status: ('A' for Active; 'I' for Inactive)
REMARK    1  A    between atoms: C_1  and  N_2
REMARK    2  A    between atoms: N_2  and  C_3
REMARK    3  A    between atoms: N_12  and  C_13
REMARK    4  A    between atoms: C_13  and  C_14
REMARK    5  A    between atoms: C_14  and  C_15
REMARK    6  A    between atoms: C_15  and  C_16
REMARK    7  A    between atoms: C_15  and  C_22
REMARK    8  A    between atoms: C_16  and  O_17
REMARK    9  A    between atoms: O_17  and  P_18
REMARK   10  A    between atoms: P_18  and  O_20
REMARK   11  A    between atoms: P_18  and  O_21
REMARK   12  A    between atoms: C_22  and  O_23
REMARK   13  A    between atoms: O_23  and  P_24
REMARK   14  A    between atoms: P_24  and  O_26
REMARK   15  A    between atoms: P_24  and  O_27
REMARK                            x       y       z     vdW  Elec       q    Type
REMARK                         _______ _______ _______ _____ _____    ______ ____
ROOT
ATOM      1  C   UNL     1       1.030  10.368  18.677  0.00  0.00    +0.000 C 
ENDROOT
BRANCH   1   2
ATOM      2  C   UNL     1       1.168   8.966  18.039  0.00  0.00    +0.000 C 
BRANCH   2   3
ATOM      3  C   UNL     1       2.599   8.481  17.773  0.00  0.00    +0.000 C 
BRANCH   3  13
ATOM      4  C   UNL     1       4.819   4.239  18.532  0.00  0.00    +0.000 A 
ATOM      5  N   UNL     1       5.519   4.275  17.371  0.00  0.00    +0.000 NA
ATOM      6  C   UNL     1       5.323   5.315  16.538  0.00  0.00    +0.000 A 
ATOM      7 CL   UNL     1       6.243   5.283  15.095  0.00  0.00    +0.000 Cl
ATOM      8  N   UNL     1       4.518   6.383  16.686  0.00  0.00    +0.000 NA
ATOM      9  C   UNL     1       3.840   6.305  17.841  0.00  0.00    +0.000 A 
ATOM     10  C   UNL     1       3.918   5.299  18.789  0.00  0.00    +0.000 A 
ATOM     11  N   UNL     1       3.085   5.568  19.856  0.00  0.00    +0.000 NA
ATOM     12  C   UNL     1       2.514   6.719  19.555  0.00  0.00    +0.000 A 
ATOM     13  N   UNL     1       2.937   7.198  18.344  0.00  0.00    +0.000 N 
BRANCH   4  15
ATOM     14  C   UNL     1       3.981   2.148  19.345  0.00  0.00    +0.000 C 
ATOM     15  N   UNL     1       4.987   3.187  19.438  0.00  0.00    +0.000 N 
ATOM     16  H   UNL     1       5.951   2.864  19.413  0.00  0.00    +0.000 HD
ENDBRANCH   4  15
ENDBRANCH   3  13
ENDBRANCH   2   3
ENDBRANCH   1   2
BRANCH   1  17
ATOM     17  C   UNL     1      -0.318  11.001  18.379  0.00  0.00    +0.000 C 
BRANCH  17  18
ATOM     18  O   UNL     1      -1.171  10.079  17.685  0.00  0.00    +0.000 OA
BRANCH  18  19
ATOM     19  P   UNL     1      -2.487  10.835  16.854  0.00  0.00    +0.000 P 
ATOM     20  O   UNL     1      -3.433  10.804  18.054  0.00  0.00    +0.000 OA
BRANCH  19  21
ATOM     21  O   UNL     1      -1.695  12.257  16.860  0.00  0.00    +0.000 OA
ATOM     22  H   UNL     1      -0.773  12.159  16.563  0.00  0.00    +0.000 HD
ENDBRANCH  19  21
BRANCH  19  23
ATOM     23  O   UNL     1      -3.803  11.590  16.022  0.00  0.00    +0.000 OA
ATOM     24  H   UNL     1      -4.455  10.857  15.982  0.00  0.00    +0.000 HD
ENDBRANCH  19  23
ENDBRANCH  18  19
ENDBRANCH  17  18
ENDBRANCH   1  17
BRANCH   1  25
ATOM     25  C   UNL     1       1.162  10.290  20.191  0.00  0.00    +0.000 C 
BRANCH  25  26
ATOM     26  O   UNL     1       0.241   9.355  20.717  0.00  0.00    +0.000 OA
BRANCH  26  27
ATOM     27  P   UNL     1       0.175   9.418  22.444  0.00  0.00    +0.000 P 
ATOM     28  O   UNL     1       1.692   9.299  22.592  0.00  0.00    +0.000 OA
BRANCH  27  29
ATOM     29  O   UNL     1      -0.154  11.010  22.417  0.00  0.00    +0.000 OA
ATOM     30  H   UNL     1       0.372  11.502  21.763  0.00  0.00    +0.000 HD
ENDBRANCH  27  29
BRANCH  27  31
ATOM     31  O   UNL     1       0.109   9.480  24.172  0.00  0.00    +0.000 OA
ATOM     32  H   UNL     1       0.480  10.371  24.350  0.00  0.00    +0.000 HD
ENDBRANCH  27  31
ENDBRANCH  26  27
ENDBRANCH  25  26
ENDBRANCH   1  25
TORSDOF 14
ENDMDL
MODEL 8
REMARK VINA RESULT:      -6.9      1.318      1.828
REMARK  Name = 
REMARK  15 active torsions:
REMARK  status: ('A' for Active; 'I' for Inactive)
REMARK    1  A    between atoms: C_1  and  N_2
REMARK    2  A    between atoms: N_2  and  C_3
REMARK    3  A    between atoms: N_12  and  C_13
REMARK    4  A    between atoms: C_13  and  C_14
REMARK    5  A    between atoms: C_14  and  C_15
REMARK    6  A    between atoms: C_15  and  C_16
REMARK    7  A    between atoms: C_15  and  C_22
REMARK    8  A    between atoms: C_16  and  O_17
REMARK    9  A    between atoms: O_17  and  P_18
REMARK   10  A    between atoms: P_18  and  O_20
REMARK   11  A    between atoms: P_18  and  O_21
REMARK   12  A    between atoms: C_22  and  O_23
REMARK   13  A    between atoms: O_23  and  P_24
REMARK   14  A    between atoms: P_24  and  O_26
REMARK   15  A    between atoms: P_24  and  O_27
REMARK                            x       y       z     vdW  Elec       q    Type
REMARK                         _______ _______ _______ _____ _____    ______ ____
ROOT
ATOM      1  C   UNL     1       5.127   5.171  19.334  0.00  0.00    +0.000 C 
ENDROOT
BRANCH   1   2
ATOM      2  C   UNL     1       4.147   6.103  18.584  0.00  0.00    +0.000 C 
BRANCH   2   3
ATOM      3  C   UNL     1       2.925   6.580  19.377  0.00  0.00    +0.000 C 
BRANCH   3  13
ATOM      4  C   UNL     1       0.498  10.775  19.268  0.00  0.00    +0.000 A 
ATOM      5  N   UNL     1       0.071  10.686  20.554  0.00  0.00    +0.000 NA
ATOM      6  C   UNL     1       0.403   9.589  21.262  0.00  0.00    +0.000 A 
ATOM      7 CL   UNL     1      -0.176   9.554  22.872  0.00  0.00    +0.000 Cl
ATOM      8  N   UNL     1       1.136   8.525  20.889  0.00  0.00    +0.000 NA
ATOM      9  C   UNL     1       1.531   8.650  19.613  0.00  0.00    +0.000 A 
ATOM     10  C   UNL     1       1.259   9.701  18.754  0.00  0.00    +0.000 A 
ATOM     11  N   UNL     1       1.845   9.488  17.522  0.00  0.00    +0.000 NA
ATOM     12  C   UNL     1       2.460   8.326  17.639  0.00  0.00    +0.000 A 
ATOM     13  N   UNL     1       2.292   7.781  18.883  0.00  0.00    +0.000 N 
BRANCH   4  15
ATOM     14  C   UNL     1      -0.963  12.645  18.942  0.00  0.00    +0.000 C 
ATOM     15  N   UNL     1       0.190  11.894  18.488  0.00  0.00    +0.000 N 
ATOM     16  H   UNL     1       1.032  12.442  18.328  0.00  0.00    +0.000 HD
ENDBRANCH   4  15
ENDBRANCH   3  13
ENDBRANCH   2   3
ENDBRANCH   1   2
BRANCH   1  17
ATOM     17  C   UNL     1       4.740   3.708  19.199  0.00  0.00    +0.000 C 
BRANCH  17  18
ATOM     18  O   UNL     1       3.890   3.509  18.061  0.00  0.00    +0.000 OA
BRANCH  18  19
ATOM     19  P   UNL     1       2.553   2.454  18.363  0.00  0.00    +0.000 P 
ATOM     20  O   UNL     1       3.414   1.205  18.554  0.00  0.00    +0.000 OA
BRANCH  19  21
ATOM     21  O   UNL     1       2.318   3.143  19.819  0.00  0.00    +0.000 OA
ATOM     22  H   UNL     1       1.378   3.146  20.071  0.00  0.00    +0.000 HD
ENDBRANCH  19  21
BRANCH  19  23
ATOM     23  O   UNL     1       1.215   1.399  18.665  0.00  0.00    +0.000 OA
ATOM     24  H   UNL     1       0.719   1.466  17.821  0.00  0.00    +0.000 HD
ENDBRANCH  19  23
ENDBRANCH  18  19
ENDBRANCH  17  18
ENDBRANCH   1  17
BRANCH   1  25
ATOM     25  C   UNL     1       6.539   5.312  18.783  0.00  0.00    +0.000 C 
BRANCH  25  26
ATOM     26  O   UNL     1       6.513   5.950  17.522  0.00  0.00    +0.000 OA
BRANCH  26  27
ATOM     27  P   UNL     1       6.699   4.820  16.225  0.00  0.00    +0.000 P 
ATOM     28  O   UNL     1       7.358   5.851  15.309  0.00  0.00    +0.000 OA
BRANCH  27  29
ATOM     29  O   UNL     1       7.911   4.064  17.001  0.00  0.00    +0.000 OA
ATOM     30  H   UNL     1       8.042   3.144  16.711  0.00  0.00    +0.000 HD
ENDBRANCH  27  29
BRANCH  27  31
ATOM     31  O   UNL     1       6.885   3.691  14.928  0.00  0.00    +0.000 OA
ATOM     32  H   UNL     1       7.309   2.935  15.386  0.00  0.00    +0.000 HD
ENDBRANCH  27  31
ENDBRANCH  26  27
ENDBRANCH  25  26
ENDBRANCH   1  25
TORSDOF 14
ENDMDL
MODEL 9
REMARK VINA RESULT:      -6.9      1.639      2.164
REMARK  Name = 
REMARK  15 active torsions:
REMARK  status: ('A' for Active; 'I' for Inactive)
REMARK    1  A    between atoms: C_1  and  N_2
REMARK    2  A    between atoms: N_2  and  C_3
REMARK    3  A    between atoms: N_12  and  C_13
REMARK    4  A    between atoms: C_13  and  C_14
REMARK    5  A    between atoms: C_14  and  C_15
REMARK    6  A    between atoms: C_15  and  C_16
REMARK    7  A    between atoms: C_15  and  C_22
REMARK    8  A    between atoms: C_16  and  O_17
REMARK    9  A    between atoms: O_17  and  P_18
REMARK   10  A    between atoms: P_18  and  O_20
REMARK   11  A    between atoms: P_18  and  O_21
REMARK   12  A    between atoms: C_22  and  O_23
REMARK   13  A    between atoms: O_23  and  P_24
REMARK   14  A    between atoms: P_24  and  O_26
REMARK   15  A    between atoms: P_24  and  O_27
REMARK                            x       y       z     vdW  Elec       q    Type
REMARK                         _______ _______ _______ _____ _____    ______ ____
ROOT
ATOM      1  C   UNL     1       4.598   5.228  18.438  0.00  0.00    +0.000 C 
ENDROOT
BRANCH   1   2
ATOM      2  C   UNL     1       3.359   6.111  18.165  0.00  0.00    +0.000 C 
BRANCH   2   3
ATOM      3  C   UNL     1       2.824   6.915  19.356  0.00  0.00    +0.000 C 
BRANCH   3  13
ATOM      4  C   UNL     1       0.094  10.896  19.805  0.00  0.00    +0.000 A 
ATOM      5  N   UNL     1      -0.158  10.705  21.125  0.00  0.00    +0.000 NA
ATOM      6  C   UNL     1       0.342   9.603  21.718  0.00  0.00    +0.000 A 
ATOM      7 CL   UNL     1      -0.025   9.437  23.381  0.00  0.00    +0.000 Cl
ATOM      8  N   UNL     1       1.099   8.624  21.193  0.00  0.00    +0.000 NA
ATOM      9  C   UNL     1       1.319   8.848  19.888  0.00  0.00    +0.000 A 
ATOM     10  C   UNL     1       0.863   9.916  19.135  0.00  0.00    +0.000 A 
ATOM     11  N   UNL     1       1.303   9.818  17.831  0.00  0.00    +0.000 NA
ATOM     12  C   UNL     1       2.013   8.706  17.799  0.00  0.00    +0.000 A 
ATOM     13  N   UNL     1       2.046   8.084  19.018  0.00  0.00    +0.000 N 
BRANCH   4  15
ATOM     14  C   UNL     1      -1.664  12.513  19.635  0.00  0.00    +0.000 C 
ATOM     15  N   UNL     1      -0.393  12.025  19.139  0.00  0.00    +0.000 N 
ATOM     16  H   UNL     1       0.343  12.723  19.064  0.00  0.00    +0.000 HD
ENDBRANCH   4  15
ENDBRANCH   3  13
ENDBRANCH   2   3
ENDBRANCH   1   2
BRANCH   1  17
ATOM     17  C   UNL     1       4.223   3.776  18.681  0.00  0.00    +0.000 C 
BRANCH  17  18
ATOM     18  O   UNL     1       2.814   3.647  18.917  0.00  0.00    +0.000 OA
BRANCH  18  19
ATOM     19  P   UNL     1       2.420   3.104  20.512  0.00  0.00    +0.000 P 
ATOM     20  O   UNL     1       1.406   2.059  20.045  0.00  0.00    +0.000 OA
BRANCH  19  21
ATOM     21  O   UNL     1       3.874   2.385  20.644  0.00  0.00    +0.000 OA
ATOM     22  H   UNL     1       3.793   1.426  20.783  0.00  0.00    +0.000 HD
ENDBRANCH  19  21
BRANCH  19  23
ATOM     23  O   UNL     1       2.024   2.561  22.106  0.00  0.00    +0.000 OA
ATOM     24  H   UNL     1       1.528   1.736  21.914  0.00  0.00    +0.000 HD
ENDBRANCH  19  23
ENDBRANCH  18  19
ENDBRANCH  17  18
ENDBRANCH   1  17
BRANCH   1  25
ATOM     25  C   UNL     1       5.553   5.250  17.253  0.00  0.00    +0.000 C 
BRANCH  25  26
ATOM     26  O   UNL     1       6.654   6.095  17.525  0.00  0.00    +0.000 OA
BRANCH  26  27
ATOM     27  P   UNL     1       7.398   5.714  19.039  0.00  0.00    +0.000 P 
ATOM     28  O   UNL     1       8.164   4.524  18.462  0.00  0.00    +0.000 OA
BRANCH  27  29
ATOM     29  O   UNL     1       8.393   6.994  18.921  0.00  0.00    +0.000 OA
ATOM     30  H   UNL     1       9.030   7.058  19.653  0.00  0.00    +0.000 HD
ENDBRANCH  27  29
BRANCH  27  31
ATOM     31  O   UNL     1       8.142   5.334  20.554  0.00  0.00    +0.000 OA
ATOM     32  H   UNL     1       7.358   5.191  21.127  0.00  0.00    +0.000 HD
ENDBRANCH  27  31
ENDBRANCH  26  27
ENDBRANCH  25  26
ENDBRANCH   1  25
TORSDOF 14
ENDMDL
