MODEL 1
REMARK VINA RESULT:     -10.2      0.000      0.000
REMARK  Name = 
REMARK  5 active torsions:
REMARK  status: ('A' for Active; 'I' for Inactive)
REMARK    1  A    between atoms: C_1  and  C_2
REMARK    2  A    between atoms: C_5  and  S_6
REMARK    3  A    between atoms: S_6  and  N_9
REMARK    4  A    between atoms: N_9  and  N_10
REMARK    5  A    between atoms: C_22  and  N_23
REMARK                            x       y       z     vdW  Elec       q    Type
REMARK                         _______ _______ _______ _____ _____    ______ ____
ROOT
ATOM      1  S   UNL     1       7.261   5.164  18.213  0.00  0.00    +0.000 S 
ATOM      2  O   UNL     1       8.496   4.465  18.503  0.00  0.00    +0.000 OA
ATOM      3  O   UNL     1       7.181   6.609  18.234  0.00  0.00    +0.000 OA
ENDROOT
BRANCH   1   8
ATOM      4  C   UNL     1       5.263   3.675  12.629  0.00  0.00    +0.000 C 
ATOM      5  C   UNL     1       5.803   4.031  13.988  0.00  0.00    +0.000 A 
ATOM      6  C   UNL     1       5.079   3.654  15.132  0.00  0.00    +0.000 A 
ATOM      7  C   UNL     1       5.550   3.963  16.415  0.00  0.00    +0.000 A 
ATOM      8  C   UNL     1       6.761   4.643  16.577  0.00  0.00    +0.000 A 
ATOM      9  C   UNL     1       7.500   5.041  15.460  0.00  0.00    +0.000 A 
ATOM     10  C   UNL     1       7.010   4.730  14.180  0.00  0.00    +0.000 A 
BRANCH  10  11
ATOM     11  N   UNL     1       7.806   5.160  13.037  0.00  0.00    +0.000 N 
ATOM     12  O   UNL     1       7.524   4.685  11.932  0.00  0.00    +0.000 OA
ATOM     13  O   UNL     1       8.702   5.983  13.266  0.00  0.00    +0.000 OA
ENDBRANCH  10  11
ENDBRANCH   1   8
BRANCH   1  14
ATOM     14  N   UNL     1       6.025   4.522  19.199  0.00  0.00    +0.000 N 
ATOM     15  H   UNL     1       6.307   3.861  19.919  0.00  0.00    +0.000 HD
BRANCH  14  16
ATOM     16  N   UNL     1       4.737   5.166  19.178  0.00  0.00    +0.000 NA
ATOM     17  C   UNL     1       3.664   4.480  19.426  0.00  0.00    +0.000 C 
ATOM     18  C   UNL     1       3.571   2.988  19.714  0.00  0.00    +0.000 C 
ATOM     19  C   UNL     1       2.680   2.781  20.948  0.00  0.00    +0.000 C 
ATOM     20  C   UNL     1       1.283   3.385  20.719  0.00  0.00    +0.000 C 
ATOM     21  C   UNL     1       0.639   2.743  19.477  0.00  0.00    +0.000 C 
ATOM     22  C   UNL     1       1.515   2.993  18.239  0.00  0.00    +0.000 C 
ATOM     23  C   UNL     1       2.909   2.369  18.472  0.00  0.00    +0.000 C 
ATOM     24  C   UNL     1       1.659   4.515  18.022  0.00  0.00    +0.000 C 
ATOM     25  C   UNL     1       2.305   5.166  19.257  0.00  0.00    +0.000 C 
ATOM     26  C   UNL     1       1.441   4.900  20.497  0.00  0.00    +0.000 C 
ENDBRANCH  14  16
ENDBRANCH   1  14
TORSDOF 4
ENDMDL
MODEL 2
REMARK VINA RESULT:     -10.1      0.501      1.773
REMARK  Name = 
REMARK  5 active torsions:
REMARK  status: ('A' for Active; 'I' for Inactive)
REMARK    1  A    between atoms: C_1  and  C_2
REMARK    2  A    between atoms: C_5  and  S_6
REMARK    3  A    between atoms: S_6  and  N_9
REMARK    4  A    between atoms: N_9  and  N_10
REMARK    5  A    between atoms: C_22  and  N_23
REMARK                            x       y       z     vdW  Elec       q    Type
REMARK                         _______ _______ _______ _____ _____    ______ ____
ROOT
ATOM      1  S   UNL     1       7.179   5.499  18.134  0.00  0.00    +0.000 S 
ATOM      2  O   UNL     1       8.081   4.530  18.720  0.00  0.00    +0.000 OA
ATOM      3  O   UNL     1       7.565   6.881  17.943  0.00  0.00    +0.000 OA
ENDROOT
BRANCH   1   8
ATOM      4  C   UNL     1       5.356   3.601  12.615  0.00  0.00    +0.000 C 
ATOM      5  C   UNL     1       5.853   4.059  13.960  0.00  0.00    +0.000 A 
ATOM      6  C   UNL     1       5.114   3.733  15.110  0.00  0.00    +0.000 A 
ATOM      7  C   UNL     1       5.545   4.135  16.380  0.00  0.00    +0.000 A 
ATOM      8  C   UNL     1       6.733   4.861  16.524  0.00  0.00    +0.000 A 
ATOM      9  C   UNL     1       7.485   5.211  15.400  0.00  0.00    +0.000 A 
ATOM     10  C   UNL     1       7.034   4.804  14.133  0.00  0.00    +0.000 A 
BRANCH  10  11
ATOM     11  N   UNL     1       7.844   5.186  12.982  0.00  0.00    +0.000 N 
ATOM     12  O   UNL     1       7.540   4.708  11.884  0.00  0.00    +0.000 OA
ATOM     13  O   UNL     1       8.774   5.974  13.197  0.00  0.00    +0.000 OA
ENDBRANCH  10  11
ENDBRANCH   1   8
BRANCH   1  14
ATOM     14  N   UNL     1       5.696   5.445  18.978  0.00  0.00    +0.000 N 
ATOM     15  H   UNL     1       5.113   6.277  18.938  0.00  0.00    +0.000 HD
BRANCH  14  16
ATOM     16  N   UNL     1       5.214   4.162  19.419  0.00  0.00    +0.000 NA
ATOM     17  C   UNL     1       3.949   3.882  19.344  0.00  0.00    +0.000 C 
ATOM     18  C   UNL     1       2.832   4.796  18.859  0.00  0.00    +0.000 C 
ATOM     19  C   UNL     1       1.954   4.015  17.869  0.00  0.00    +0.000 C 
ATOM     20  C   UNL     1       1.381   2.749  18.530  0.00  0.00    +0.000 C 
ATOM     21  C   UNL     1       0.568   3.140  19.777  0.00  0.00    +0.000 C 
ATOM     22  C   UNL     1       1.466   3.881  20.781  0.00  0.00    +0.000 C 
ATOM     23  C   UNL     1       2.022   5.158  20.114  0.00  0.00    +0.000 C 
ATOM     24  C   UNL     1       2.634   2.959  21.190  0.00  0.00    +0.000 C 
ATOM     25  C   UNL     1       3.455   2.566  19.950  0.00  0.00    +0.000 C 
ATOM     26  C   UNL     1       2.556   1.843  18.939  0.00  0.00    +0.000 C 
ENDBRANCH  14  16
ENDBRANCH   1  14
TORSDOF 4
ENDMDL
MODEL 3
REMARK VINA RESULT:      -9.3      0.969      1.537
REMARK  Name = 
REMARK  5 active torsions:
REMARK  status: ('A' for Active; 'I' for Inactive)
REMARK    1  A    between atoms: C_1  and  C_2
REMARK    2  A    between atoms: C_5  and  S_6
REMARK    3  A    between atoms: S_6  and  N_9
REMARK    4  A    between atoms: N_9  and  N_10
REMARK    5  A    between atoms: C_22  and  N_23
REMARK                            x       y       z     vdW  Elec       q    Type
REMARK                         _______ _______ _______ _____ _____    ______ ____
ROOT
ATOM      1  S   UNL     1       6.466   5.553  17.809  0.00  0.00    +0.000 S 
ATOM      2  O   UNL     1       7.777   6.074  18.138  0.00  0.00    +0.000 OA
ATOM      3  O   UNL     1       5.283   6.386  17.850  0.00  0.00    +0.000 OA
ENDROOT
BRANCH   1   8
ATOM      4  C   UNL     1       6.510   3.518  12.043  0.00  0.00    +0.000 C 
ATOM      5  C   UNL     1       6.550   4.026  13.459  0.00  0.00    +0.000 A 
ATOM      6  C   UNL     1       5.729   3.421  14.427  0.00  0.00    +0.000 A 
ATOM      7  C   UNL     1       5.740   3.860  15.757  0.00  0.00    +0.000 A 
ATOM      8  C   UNL     1       6.584   4.906  16.146  0.00  0.00    +0.000 A 
ATOM      9  C   UNL     1       7.405   5.535  15.208  0.00  0.00    +0.000 A 
ATOM     10  C   UNL     1       7.376   5.086  13.876  0.00  0.00    +0.000 A 
BRANCH  10  11
ATOM     11  N   UNL     1       8.246   5.766  12.923  0.00  0.00    +0.000 N 
ATOM     12  O   UNL     1       9.436   5.898  13.228  0.00  0.00    +0.000 OA
ATOM     13  O   UNL     1       7.720   6.149  11.870  0.00  0.00    +0.000 OA
ENDBRANCH  10  11
ENDBRANCH   1   8
BRANCH   1  14
ATOM     14  N   UNL     1       6.190   4.146  18.735  0.00  0.00    +0.000 N 
ATOM     15  H   UNL     1       6.911   3.428  18.709  0.00  0.00    +0.000 HD
BRANCH  14  16
ATOM     16  N   UNL     1       5.143   4.179  19.723  0.00  0.00    +0.000 NA
ATOM     17  C   UNL     1       3.985   3.655  19.460  0.00  0.00    +0.000 C 
ATOM     18  C   UNL     1       3.543   3.007  18.156  0.00  0.00    +0.000 C 
ATOM     19  C   UNL     1       2.863   1.668  18.479  0.00  0.00    +0.000 C 
ATOM     20  C   UNL     1       1.665   1.880  19.422  0.00  0.00    +0.000 C 
ATOM     21  C   UNL     1       0.661   2.850  18.773  0.00  0.00    +0.000 C 
ATOM     22  C   UNL     1       1.339   4.201  18.493  0.00  0.00    +0.000 C 
ATOM     23  C   UNL     1       2.530   3.980  17.534  0.00  0.00    +0.000 C 
ATOM     24  C   UNL     1       1.849   4.794  19.824  0.00  0.00    +0.000 C 
ATOM     25  C   UNL     1       2.856   3.833  20.479  0.00  0.00    +0.000 C 
ATOM     26  C   UNL     1       2.186   2.477  20.740  0.00  0.00    +0.000 C 
ENDBRANCH  14  16
ENDBRANCH   1  14
TORSDOF 4
ENDMDL
MODEL 4
REMARK VINA RESULT:      -8.8      1.075      1.662
REMARK  Name = 
REMARK  5 active torsions:
REMARK  status: ('A' for Active; 'I' for Inactive)
REMARK    1  A    between atoms: C_1  and  C_2
REMARK    2  A    between atoms: C_5  and  S_6
REMARK    3  A    between atoms: S_6  and  N_9
REMARK    4  A    between atoms: N_9  and  N_10
REMARK    5  A    between atoms: C_22  and  N_23
REMARK                            x       y       z     vdW  Elec       q    Type
REMARK                         _______ _______ _______ _____ _____    ______ ____
ROOT
ATOM      1  S   UNL     1       6.392   6.291  17.644  0.00  0.00    +0.000 S 
ATOM      2  O   UNL     1       7.024   5.461  18.648  0.00  0.00    +0.000 OA
ATOM      3  O   UNL     1       6.840   7.643  17.381  0.00  0.00    +0.000 OA
ENDROOT
BRANCH   1   8
ATOM      4  C   UNL     1       6.469   3.414  12.250  0.00  0.00    +0.000 C 
ATOM      5  C   UNL     1       6.501   4.126  13.575  0.00  0.00    +0.000 A 
ATOM      6  C   UNL     1       5.627   3.714  14.595  0.00  0.00    +0.000 A 
ATOM      7  C   UNL     1       5.629   4.346  15.845  0.00  0.00    +0.000 A 
ATOM      8  C   UNL     1       6.516   5.397  16.101  0.00  0.00    +0.000 A 
ATOM      9  C   UNL     1       7.391   5.838  15.105  0.00  0.00    +0.000 A 
ATOM     10  C   UNL     1       7.372   5.197  13.855  0.00  0.00    +0.000 A 
BRANCH  10  11
ATOM     11  N   UNL     1       8.298   5.683  12.840  0.00  0.00    +0.000 N 
ATOM     12  O   UNL     1       7.816   6.158  11.806  0.00  0.00    +0.000 OA
ATOM     13  O   UNL     1       9.504   5.590  13.102  0.00  0.00    +0.000 OA
ENDBRANCH  10  11
ENDBRANCH   1   8
BRANCH   1  14
ATOM     14  N   UNL     1       4.709   6.306  17.929  0.00  0.00    +0.000 N 
ATOM     15  H   UNL     1       4.111   6.556  17.145  0.00  0.00    +0.000 HD
BRANCH  14  16
ATOM     16  N   UNL     1       4.218   5.676  19.127  0.00  0.00    +0.000 NA
ATOM     17  C   UNL     1       3.479   4.613  19.046  0.00  0.00    +0.000 C 
ATOM     18  C   UNL     1       2.996   3.922  17.778  0.00  0.00    +0.000 C 
ATOM     19  C   UNL     1       3.252   2.413  17.913  0.00  0.00    +0.000 C 
ATOM     20  C   UNL     1       2.536   1.849  19.153  0.00  0.00    +0.000 C 
ATOM     21  C   UNL     1       1.027   2.132  19.053  0.00  0.00    +0.000 C 
ATOM     22  C   UNL     1       0.778   3.646  18.962  0.00  0.00    +0.000 C 
ATOM     23  C   UNL     1       1.486   4.200  17.706  0.00  0.00    +0.000 C 
ATOM     24  C   UNL     1       1.352   4.327  20.223  0.00  0.00    +0.000 C 
ATOM     25  C   UNL     1       2.862   4.053  20.331  0.00  0.00    +0.000 C 
ATOM     26  C   UNL     1       3.112   2.541  20.401  0.00  0.00    +0.000 C 
ENDBRANCH  14  16
ENDBRANCH   1  14
TORSDOF 4
ENDMDL
MODEL 5
REMARK VINA RESULT:      -8.7      0.982      1.357
REMARK  Name = 
REMARK  5 active torsions:
REMARK  status: ('A' for Active; 'I' for Inactive)
REMARK    1  A    between atoms: C_1  and  C_2
REMARK    2  A    between atoms: C_5  and  S_6
REMARK    3  A    between atoms: S_6  and  N_9
REMARK    4  A    between atoms: N_9  and  N_10
REMARK    5  A    between atoms: C_22  and  N_23
REMARK                            x       y       z     vdW  Elec       q    Type
REMARK                         _______ _______ _______ _____ _____    ______ ____
ROOT
ATOM      1  S   UNL     1       6.887   5.512  17.833  0.00  0.00    +0.000 S 
ATOM      2  O   UNL     1       7.061   4.405  18.749  0.00  0.00    +0.000 OA
ATOM      3  O   UNL     1       7.864   6.575  17.727  0.00  0.00    +0.000 OA
ENDROOT
BRANCH   1   8
ATOM      4  C   UNL     1       5.976   3.261  12.222  0.00  0.00    +0.000 C 
ATOM      5  C   UNL     1       6.250   3.818  13.593  0.00  0.00    +0.000 A 
ATOM      6  C   UNL     1       5.542   3.307  14.694  0.00  0.00    +0.000 A 
ATOM      7  C   UNL     1       5.772   3.795  15.987  0.00  0.00    +0.000 A 
ATOM      8  C   UNL     1       6.725   4.796  16.203  0.00  0.00    +0.000 A 
ATOM      9  C   UNL     1       7.438   5.333  15.129  0.00  0.00    +0.000 A 
ATOM     10  C   UNL     1       7.190   4.837  13.838  0.00  0.00    +0.000 A 
BRANCH  10  11
ATOM     11  N   UNL     1       7.953   5.420  12.740  0.00  0.00    +0.000 N 
ATOM     12  O   UNL     1       7.526   5.250  11.593  0.00  0.00    +0.000 OA
ATOM     13  O   UNL     1       8.969   6.055  13.049  0.00  0.00    +0.000 OA
ENDBRANCH  10  11
ENDBRANCH   1   8
BRANCH   1  14
ATOM     14  N   UNL     1       5.344   6.197  18.092  0.00  0.00    +0.000 N 
ATOM     15  H   UNL     1       5.317   7.148  18.450  0.00  0.00    +0.000 HD
BRANCH  14  16
ATOM     16  N   UNL     1       4.204   5.538  17.509  0.00  0.00    +0.000 NA
ATOM     17  C   UNL     1       3.455   4.769  18.238  0.00  0.00    +0.000 C 
ATOM     18  C   UNL     1       3.653   4.414  19.706  0.00  0.00    +0.000 C 
ATOM     19  C   UNL     1       2.313   4.587  20.437  0.00  0.00    +0.000 C 
ATOM     20  C   UNL     1       1.227   3.703  19.799  0.00  0.00    +0.000 C 
ATOM     21  C   UNL     1       1.673   2.230  19.834  0.00  0.00    +0.000 C 
ATOM     22  C   UNL     1       2.991   2.060  19.062  0.00  0.00    +0.000 C 
ATOM     23  C   UNL     1       4.078   2.938  19.719  0.00  0.00    +0.000 C 
ATOM     24  C   UNL     1       2.780   2.504  17.599  0.00  0.00    +0.000 C 
ATOM     25  C   UNL     1       2.337   3.977  17.554  0.00  0.00    +0.000 C 
ATOM     26  C   UNL     1       1.032   4.152  18.341  0.00  0.00    +0.000 C 
ENDBRANCH  14  16
ENDBRANCH   1  14
TORSDOF 4
ENDMDL
MODEL 6
REMARK VINA RESULT:      -8.6      1.743      2.264
REMARK  Name = 
REMARK  5 active torsions:
REMARK  status: ('A' for Active; 'I' for Inactive)
REMARK    1  A    between atoms: C_1  and  C_2
REMARK    2  A    between atoms: C_5  and  S_6
REMARK    3  A    between atoms: S_6  and  N_9
REMARK    4  A    between atoms: N_9  and  N_10
REMARK    5  A    between atoms: C_22  and  N_23
REMARK                            x       y       z     vdW  Elec       q    Type
REMARK                         _______ _______ _______ _____ _____    ______ ____
ROOT
ATOM      1  S   UNL     1       7.000   4.842  16.701  0.00  0.00    +0.000 S 
ATOM      2  O   UNL     1       8.146   4.059  17.118  0.00  0.00    +0.000 OA
ATOM      3  O   UNL     1       6.824   6.216  17.120  0.00  0.00    +0.000 OA
ENDROOT
BRANCH   1   8
ATOM      4  C   UNL     1       7.401   4.634  10.604  0.00  0.00    +0.000 C 
ATOM      5  C   UNL     1       7.252   4.681  12.100  0.00  0.00    +0.000 A 
ATOM      6  C   UNL     1       8.080   5.539  12.845  0.00  0.00    +0.000 A 
ATOM      7  C   UNL     1       7.969   5.616  14.239  0.00  0.00    +0.000 A 
ATOM      8  C   UNL     1       7.016   4.845  14.913  0.00  0.00    +0.000 A 
ATOM      9  C   UNL     1       6.184   3.975  14.205  0.00  0.00    +0.000 A 
ATOM     10  C   UNL     1       6.313   3.905  12.808  0.00  0.00    +0.000 A 
BRANCH  10  11
ATOM     11  N   UNL     1       5.429   2.987  12.100  0.00  0.00    +0.000 N 
ATOM     12  O   UNL     1       5.876   1.873  11.807  0.00  0.00    +0.000 OA
ATOM     13  O   UNL     1       4.286   3.396  11.858  0.00  0.00    +0.000 OA
ENDBRANCH  10  11
ENDBRANCH   1   8
BRANCH   1  14
ATOM     14  N   UNL     1       5.580   3.963  17.057  0.00  0.00    +0.000 N 
ATOM     15  H   UNL     1       5.686   2.966  17.225  0.00  0.00    +0.000 HD
BRANCH  14  16
ATOM     16  N   UNL     1       4.396   4.703  17.406  0.00  0.00    +0.000 NA
ATOM     17  C   UNL     1       3.549   4.210  18.257  0.00  0.00    +0.000 C 
ATOM     18  C   UNL     1       3.622   2.855  18.948  0.00  0.00    +0.000 C 
ATOM     19  C   UNL     1       3.355   3.055  20.448  0.00  0.00    +0.000 C 
ATOM     20  C   UNL     1       1.982   3.714  20.673  0.00  0.00    +0.000 C 
ATOM     21  C   UNL     1       0.881   2.844  20.042  0.00  0.00    +0.000 C 
ATOM     22  C   UNL     1       1.132   2.687  18.533  0.00  0.00    +0.000 C 
ATOM     23  C   UNL     1       2.504   2.010  18.318  0.00  0.00    +0.000 C 
ATOM     24  C   UNL     1       1.134   4.083  17.874  0.00  0.00    +0.000 C 
ATOM     25  C   UNL     1       2.235   4.959  18.497  0.00  0.00    +0.000 C 
ATOM     26  C   UNL     1       1.996   5.100  20.006  0.00  0.00    +0.000 C 
ENDBRANCH  14  16
ENDBRANCH   1  14
TORSDOF 4
ENDMDL
MODEL 7
REMARK VINA RESULT:      -8.4      1.884      2.590
REMARK  Name = 
REMARK  5 active torsions:
REMARK  status: ('A' for Active; 'I' for Inactive)
REMARK    1  A    between atoms: C_1  and  C_2
REMARK    2  A    between atoms: C_5  and  S_6
REMARK    3  A    between atoms: S_6  and  N_9
REMARK    4  A    between atoms: N_9  and  N_10
REMARK    5  A    between atoms: C_22  and  N_23
REMARK                            x       y       z     vdW  Elec       q    Type
REMARK                         _______ _______ _______ _____ _____    ______ ____
ROOT
ATOM      1  S   UNL     1       6.598   4.673  16.634  0.00  0.00    +0.000 S 
ATOM      2  O   UNL     1       7.904   4.310  17.145  0.00  0.00    +0.000 OA
ATOM      3  O   UNL     1       5.946   5.907  17.019  0.00  0.00    +0.000 OA
ENDROOT
BRANCH   1   8
ATOM      4  C   UNL     1       7.437   4.542  10.579  0.00  0.00    +0.000 C 
ATOM      5  C   UNL     1       7.180   4.571  12.062  0.00  0.00    +0.000 A 
ATOM      6  C   UNL     1       7.968   5.402  12.877  0.00  0.00    +0.000 A 
ATOM      7  C   UNL     1       7.758   5.462  14.260  0.00  0.00    +0.000 A 
ATOM      8  C   UNL     1       6.744   4.701  14.852  0.00  0.00    +0.000 A 
ATOM      9  C   UNL     1       5.950   3.857  14.073  0.00  0.00    +0.000 A 
ATOM     10  C   UNL     1       6.179   3.804  12.687  0.00  0.00    +0.000 A 
BRANCH  10  11
ATOM     11  N   UNL     1       5.332   2.913  11.904  0.00  0.00    +0.000 N 
ATOM     12  O   UNL     1       5.780   1.796  11.623  0.00  0.00    +0.000 OA
ATOM     13  O   UNL     1       4.216   3.346  11.589  0.00  0.00    +0.000 OA
ENDBRANCH  10  11
ENDBRANCH   1   8
BRANCH   1  14
ATOM     14  N   UNL     1       5.528   3.369  16.898  0.00  0.00    +0.000 N 
ATOM     15  H   UNL     1       5.920   2.527  17.310  0.00  0.00    +0.000 HD
BRANCH  14  16
ATOM     16  N   UNL     1       4.113   3.629  16.825  0.00  0.00    +0.000 NA
ATOM     17  C   UNL     1       3.433   3.831  17.911  0.00  0.00    +0.000 C 
ATOM     18  C   UNL     1       3.951   3.790  19.342  0.00  0.00    +0.000 C 
ATOM     19  C   UNL     1       3.443   5.036  20.084  0.00  0.00    +0.000 C 
ATOM     20  C   UNL     1       1.905   5.096  20.057  0.00  0.00    +0.000 C 
ATOM     21  C   UNL     1       1.326   3.819  20.692  0.00  0.00    +0.000 C 
ATOM     22  C   UNL     1       1.804   2.581  19.916  0.00  0.00    +0.000 C 
ATOM     23  C   UNL     1       3.347   2.520  19.962  0.00  0.00    +0.000 C 
ATOM     24  C   UNL     1       1.334   2.692  18.449  0.00  0.00    +0.000 C 
ATOM     25  C   UNL     1       1.911   3.964  17.805  0.00  0.00    +0.000 C 
ATOM     26  C   UNL     1       1.451   5.199  18.591  0.00  0.00    +0.000 C 
ENDBRANCH  14  16
ENDBRANCH   1  14
TORSDOF 4
ENDMDL
MODEL 8
REMARK VINA RESULT:      -8.4      6.067      8.269
REMARK  Name = 
REMARK  5 active torsions:
REMARK  status: ('A' for Active; 'I' for Inactive)
REMARK    1  A    between atoms: C_1  and  C_2
REMARK    2  A    between atoms: C_5  and  S_6
REMARK    3  A    between atoms: S_6  and  N_9
REMARK    4  A    between atoms: N_9  and  N_10
REMARK    5  A    between atoms: C_22  and  N_23
REMARK                            x       y       z     vdW  Elec       q    Type
REMARK                         _______ _______ _______ _____ _____    ______ ____
ROOT
ATOM      1  S   UNL     1       0.606   8.879  21.913  0.00  0.00    +0.000 S 
ATOM      2  O   UNL     1       1.444   9.396  22.975  0.00  0.00    +0.000 OA
ATOM      3  O   UNL     1      -0.647   8.209  22.188  0.00  0.00    +0.000 OA
ENDROOT
BRANCH   1   8
ATOM      4  C   UNL     1      -0.365  13.519  18.052  0.00  0.00    +0.000 C 
ATOM      5  C   UNL     1      -0.177  12.372  19.007  0.00  0.00    +0.000 A 
ATOM      6  C   UNL     1       0.858  12.433  19.956  0.00  0.00    +0.000 A 
ATOM      7  C   UNL     1       1.064  11.388  20.866  0.00  0.00    +0.000 A 
ATOM      8  C   UNL     1       0.228  10.267  20.851  0.00  0.00    +0.000 A 
ATOM      9  C   UNL     1      -0.803  10.169  19.914  0.00  0.00    +0.000 A 
ATOM     10  C   UNL     1      -0.992  11.224  19.004  0.00  0.00    +0.000 A 
BRANCH  10  11
ATOM     11  N   UNL     1      -2.077  11.089  18.040  0.00  0.00    +0.000 N 
ATOM     12  O   UNL     1      -3.167  11.592  18.332  0.00  0.00    +0.000 OA
ATOM     13  O   UNL     1      -1.815  10.485  16.992  0.00  0.00    +0.000 OA
ENDBRANCH  10  11
ENDBRANCH   1   8
BRANCH   1  14
ATOM     14  N   UNL     1       1.559   7.887  20.901  0.00  0.00    +0.000 N 
ATOM     15  H   UNL     1       2.354   8.325  20.443  0.00  0.00    +0.000 HD
BRANCH  14  16
ATOM     16  N   UNL     1       1.388   6.461  20.995  0.00  0.00    +0.000 NA
ATOM     17  C   UNL     1       2.100   5.671  20.252  0.00  0.00    +0.000 C 
ATOM     18  C   UNL     1       3.127   6.072  19.202  0.00  0.00    +0.000 C 
ATOM     19  C   UNL     1       4.401   5.242  19.419  0.00  0.00    +0.000 C 
ATOM     20  C   UNL     1       4.090   3.737  19.336  0.00  0.00    +0.000 C 
ATOM     21  C   UNL     1       3.463   3.412  17.969  0.00  0.00    +0.000 C 
ATOM     22  C   UNL     1       2.165   4.215  17.780  0.00  0.00    +0.000 C 
ATOM     23  C   UNL     1       2.490   5.723  17.848  0.00  0.00    +0.000 C 
ATOM     24  C   UNL     1       1.176   3.846  18.907  0.00  0.00    +0.000 C 
ATOM     25  C   UNL     1       1.793   4.170  20.278  0.00  0.00    +0.000 C 
ATOM     26  C   UNL     1       3.099   3.385  20.459  0.00  0.00    +0.000 C 
ENDBRANCH  14  16
ENDBRANCH   1  14
TORSDOF 4
ENDMDL
MODEL 9
REMARK VINA RESULT:      -8.4      4.437      7.352
REMARK  Name = 
REMARK  5 active torsions:
REMARK  status: ('A' for Active; 'I' for Inactive)
REMARK    1  A    between atoms: C_1  and  C_2
REMARK    2  A    between atoms: C_5  and  S_6
REMARK    3  A    between atoms: S_6  and  N_9
REMARK    4  A    between atoms: N_9  and  N_10
REMARK    5  A    between atoms: C_22  and  N_23
REMARK                            x       y       z     vdW  Elec       q    Type
REMARK                         _______ _______ _______ _____ _____    ______ ____
ROOT
ATOM      1  S   UNL     1       2.096   4.527  20.254  0.00  0.00    +0.000 S 
ATOM      2  O   UNL     1       2.580   4.452  21.617  0.00  0.00    +0.000 OA
ATOM      3  O   UNL     1       0.837   3.932  19.859  0.00  0.00    +0.000 OA
ENDROOT
BRANCH   1   8
ATOM      4  C   UNL     1       1.407  10.391  18.664  0.00  0.00    +0.000 C 
ATOM      5  C   UNL     1       1.593   8.963  19.101  0.00  0.00    +0.000 A 
ATOM      6  C   UNL     1       2.085   8.023  18.180  0.00  0.00    +0.000 A 
ATOM      7  C   UNL     1       2.278   6.686  18.548  0.00  0.00    +0.000 A 
ATOM      8  C   UNL     1       1.994   6.267  19.852  0.00  0.00    +0.000 A 
ATOM      9  C   UNL     1       1.494   7.172  20.790  0.00  0.00    +0.000 A 
ATOM     10  C   UNL     1       1.300   8.509  20.402  0.00  0.00    +0.000 A 
BRANCH  10  11
ATOM     11  N   UNL     1       0.777   9.428  21.406  0.00  0.00    +0.000 N 
ATOM     12  O   UNL     1       1.565   9.855  22.256  0.00  0.00    +0.000 OA
ATOM     13  O   UNL     1      -0.423   9.718  21.319  0.00  0.00    +0.000 OA
ENDBRANCH  10  11
ENDBRANCH   1   8
BRANCH   1  14
ATOM     14  N   UNL     1       3.327   3.977  19.206  0.00  0.00    +0.000 N 
ATOM     15  H   UNL     1       3.035   3.427  18.402  0.00  0.00    +0.000 HD
BRANCH  14  16
ATOM     16  N   UNL     1       4.635   4.567  19.328  0.00  0.00    +0.000 NA
ATOM     17  C   UNL     1       5.253   5.000  18.273  0.00  0.00    +0.000 C 
ATOM     18  C   UNL     1       4.772   4.930  16.831  0.00  0.00    +0.000 C 
ATOM     19  C   UNL     1       4.966   6.308  16.180  0.00  0.00    +0.000 C 
ATOM     20  C   UNL     1       6.442   6.739  16.247  0.00  0.00    +0.000 C 
ATOM     21  C   UNL     1       7.320   5.685  15.548  0.00  0.00    +0.000 C 
ATOM     22  C   UNL     1       7.153   4.319  16.233  0.00  0.00    +0.000 C 
ATOM     23  C   UNL     1       5.672   3.889  16.146  0.00  0.00    +0.000 C 
ATOM     24  C   UNL     1       7.570   4.444  17.714  0.00  0.00    +0.000 C 
ATOM     25  C   UNL     1       6.696   5.492  18.423  0.00  0.00    +0.000 C 
ATOM     26  C   UNL     1       6.847   6.851  17.728  0.00  0.00    +0.000 C 
ENDBRANCH  14  16
ENDBRANCH   1  14
TORSDOF 4
ENDMDL
