MODEL 1
REMARK VINA RESULT:      -6.5      0.000      0.000
REMARK  Name = 
REMARK  10 active torsions:
REMARK  status: ('A' for Active; 'I' for Inactive)
REMARK    1  A    between atoms: C_1  and  C_2
REMARK    2  A    between atoms: N_4  and  C_5
REMARK    3  A    between atoms: C_5  and  C_6
REMARK    4  A    between atoms: C_5  and  C_7
REMARK    5  A    between atoms: C_5  and  C_8
REMARK    6  A    between atoms: C_9  and  O_10
REMARK    7  A    between atoms: O_10  and  C_11
REMARK    8  A    between atoms: C_11  and  C_13
REMARK    9  A    between atoms: C_18  and  S_19
REMARK   10  A    between atoms: S_19  and  C_22
REMARK                            x       y       z     vdW  Elec       q    Type
REMARK                         _______ _______ _______ _____ _____    ______ ____
ROOT
ATOM      1  C   UNL     1       0.709   8.761  21.694  0.00  0.00    +0.000 C 
ATOM      2  C   UNL     1       1.366   7.890  20.683  0.00  0.00    +0.000 A 
ATOM      3  N   UNL     1       1.554   6.601  20.977  0.00  0.00    +0.000 NA
ATOM      4  N   UNL     1       2.021   6.037  19.841  0.00  0.00    +0.000 N 
ATOM      5  C   UNL     1       2.258   6.976  18.850  0.00  0.00    +0.000 A 
ATOM      6  C   UNL     1       1.813   8.187  19.375  0.00  0.00    +0.000 A 
ENDROOT
BRANCH   4   7
ATOM      7  C   UNL     1       2.206   4.569  19.801  0.00  0.00    +0.000 C 
ATOM      8  C   UNL     1       1.400   3.855  20.924  0.00  0.00    +0.000 C 
ATOM      9  C   UNL     1       1.708   3.981  18.465  0.00  0.00    +0.000 C 
ATOM     10  C   UNL     1       3.688   4.211  20.007  0.00  0.00    +0.000 C 
ENDBRANCH   4   7
BRANCH   6  11
ATOM     11  S   UNL     1       1.613   9.681  18.542  0.00  0.00    +0.000 S 
ATOM     12  O   UNL     1       2.265  10.643  19.413  0.00  0.00    +0.000 OA
ATOM     13  O   UNL     1       2.103   9.448  17.194  0.00  0.00    +0.000 OA
BRANCH  11  14
ATOM     14  C   UNL     1      -0.083  10.159  18.388  0.00  0.00    +0.000 A 
ATOM     15  C   UNL     1      -0.558  11.124  19.290  0.00  0.00    +0.000 A 
ATOM     16  C   UNL     1      -1.883  11.549  19.227  0.00  0.00    +0.000 A 
ATOM     17  C   UNL     1      -2.735  11.013  18.264  0.00  0.00    +0.000 A 
ATOM     18  C   UNL     1      -2.261  10.055  17.363  0.00  0.00    +0.000 A 
ATOM     19  C   UNL     1      -0.930   9.624  17.418  0.00  0.00    +0.000 A 
ENDBRANCH  11  14
ENDBRANCH   6  11
BRANCH   5  20
ATOM     20  O   UNL     1       2.680   6.626  17.636  0.00  0.00    +0.000 OA
BRANCH  20  21
ATOM     21  C   UNL     1       4.028   6.661  17.466  0.00  0.00    +0.000 C 
ATOM     22  O   UNL     1       4.781   7.482  17.980  0.00  0.00    +0.000 OA
BRANCH  21  23
ATOM     23  C   UNL     1       4.521   5.602  16.501  0.00  0.00    +0.000 C 
ATOM     24  C   UNL     1       5.352   6.211  15.379  0.00  0.00    +0.000 C 
ATOM     25  C   UNL     1       6.034   5.012  14.735  0.00  0.00    +0.000 C 
ATOM     26  C   UNL     1       6.165   3.964  15.840  0.00  0.00    +0.000 C 
ATOM     27  C   UNL     1       5.467   4.548  17.066  0.00  0.00    +0.000 C 
ENDBRANCH  21  23
ENDBRANCH  20  21
ENDBRANCH   5  20
TORSDOF 6
ENDMDL
MODEL 2
REMARK VINA RESULT:      -6.4      0.109      1.263
REMARK  Name = 
REMARK  10 active torsions:
REMARK  status: ('A' for Active; 'I' for Inactive)
REMARK    1  A    between atoms: C_1  and  C_2
REMARK    2  A    between atoms: N_4  and  C_5
REMARK    3  A    between atoms: C_5  and  C_6
REMARK    4  A    between atoms: C_5  and  C_7
REMARK    5  A    between atoms: C_5  and  C_8
REMARK    6  A    between atoms: C_9  and  O_10
REMARK    7  A    between atoms: O_10  and  C_11
REMARK    8  A    between atoms: C_11  and  C_13
REMARK    9  A    between atoms: C_18  and  S_19
REMARK   10  A    between atoms: S_19  and  C_22
REMARK                            x       y       z     vdW  Elec       q    Type
REMARK                         _______ _______ _______ _____ _____    ______ ____
ROOT
ATOM      1  C   UNL     1       0.711   8.756  21.667  0.00  0.00    +0.000 C 
ATOM      2  C   UNL     1       1.370   7.877  20.666  0.00  0.00    +0.000 A 
ATOM      3  N   UNL     1       1.568   6.592  20.976  0.00  0.00    +0.000 NA
ATOM      4  N   UNL     1       2.035   6.017  19.845  0.00  0.00    +0.000 N 
ATOM      5  C   UNL     1       2.262   6.945  18.841  0.00  0.00    +0.000 A 
ATOM      6  C   UNL     1       1.811   8.159  19.353  0.00  0.00    +0.000 A 
ENDROOT
BRANCH   4   7
ATOM      7  C   UNL     1       2.229   4.549  19.824  0.00  0.00    +0.000 C 
ATOM      8  C   UNL     1       3.733   4.165  19.923  0.00  0.00    +0.000 C 
ATOM      9  C   UNL     1       1.527   3.877  21.022  0.00  0.00    +0.000 C 
ATOM     10  C   UNL     1       1.694   3.959  18.508  0.00  0.00    +0.000 C 
ENDBRANCH   4   7
BRANCH   6  11
ATOM     11  S   UNL     1       1.597   9.641  18.501  0.00  0.00    +0.000 S 
ATOM     12  O   UNL     1       2.282  10.612  19.336  0.00  0.00    +0.000 OA
ATOM     13  O   UNL     1       2.047   9.382  17.143  0.00  0.00    +0.000 OA
BRANCH  11  14
ATOM     14  C   UNL     1      -0.098  10.130  18.388  0.00  0.00    +0.000 A 
ATOM     15  C   UNL     1      -0.860   9.559  17.357  0.00  0.00    +0.000 A 
ATOM     16  C   UNL     1      -2.203   9.898  17.208  0.00  0.00    +0.000 A 
ATOM     17  C   UNL     1      -2.787  10.807  18.087  0.00  0.00    +0.000 A 
ATOM     18  C   UNL     1      -2.028  11.374  19.116  0.00  0.00    +0.000 A 
ATOM     19  C   UNL     1      -0.680  11.036  19.275  0.00  0.00    +0.000 A 
ENDBRANCH  11  14
ENDBRANCH   6  11
BRANCH   5  20
ATOM     20  O   UNL     1       2.682   6.582  17.631  0.00  0.00    +0.000 OA
BRANCH  20  21
ATOM     21  C   UNL     1       4.029   6.627  17.454  0.00  0.00    +0.000 C 
ATOM     22  O   UNL     1       4.774   7.469  17.945  0.00  0.00    +0.000 OA
BRANCH  21  23
ATOM     23  C   UNL     1       4.529   5.550  16.512  0.00  0.00    +0.000 C 
ATOM     24  C   UNL     1       5.325   6.145  15.357  0.00  0.00    +0.000 C 
ATOM     25  C   UNL     1       6.023   4.942  14.736  0.00  0.00    +0.000 C 
ATOM     26  C   UNL     1       6.200   3.932  15.870  0.00  0.00    +0.000 C 
ATOM     27  C   UNL     1       5.511   4.538  17.091  0.00  0.00    +0.000 C 
ENDBRANCH  21  23
ENDBRANCH  20  21
ENDBRANCH   5  20
TORSDOF 6
ENDMDL
MODEL 3
REMARK VINA RESULT:      -6.2      3.582      7.454
REMARK  Name = 
REMARK  10 active torsions:
REMARK  status: ('A' for Active; 'I' for Inactive)
REMARK    1  A    between atoms: C_1  and  C_2
REMARK    2  A    between atoms: N_4  and  C_5
REMARK    3  A    between atoms: C_5  and  C_6
REMARK    4  A    between atoms: C_5  and  C_7
REMARK    5  A    between atoms: C_5  and  C_8
REMARK    6  A    between atoms: C_9  and  O_10
REMARK    7  A    between atoms: O_10  and  C_11
REMARK    8  A    between atoms: C_11  and  C_13
REMARK    9  A    between atoms: C_18  and  S_19
REMARK   10  A    between atoms: S_19  and  C_22
REMARK                            x       y       z     vdW  Elec       q    Type
REMARK                         _______ _______ _______ _____ _____    ______ ____
ROOT
ATOM      1  C   UNL     1       7.353   7.241  17.170  0.00  0.00    +0.000 C 
ATOM      2  C   UNL     1       6.045   6.560  17.360  0.00  0.00    +0.000 A 
ATOM      3  N   UNL     1       5.025   7.264  17.860  0.00  0.00    +0.000 NA
ATOM      4  N   UNL     1       3.951   6.447  17.780  0.00  0.00    +0.000 N 
ATOM      5  C   UNL     1       4.292   5.174  17.351  0.00  0.00    +0.000 A 
ATOM      6  C   UNL     1       5.650   5.238  17.049  0.00  0.00    +0.000 A 
ENDROOT
BRANCH   4   7
ATOM      7  C   UNL     1       2.620   6.988  18.138  0.00  0.00    +0.000 C 
ATOM      8  C   UNL     1       2.374   6.945  19.673  0.00  0.00    +0.000 C 
ATOM      9  C   UNL     1       2.488   8.466  17.716  0.00  0.00    +0.000 C 
ATOM     10  C   UNL     1       1.509   6.156  17.475  0.00  0.00    +0.000 C 
ENDBRANCH   4   7
BRANCH   6  11
ATOM     11  S   UNL     1       6.602   4.052  16.241  0.00  0.00    +0.000 S 
ATOM     12  O   UNL     1       7.879   4.115  16.932  0.00  0.00    +0.000 OA
ATOM     13  O   UNL     1       5.809   2.834  16.257  0.00  0.00    +0.000 OA
BRANCH  11  14
ATOM     14  C   UNL     1       6.891   4.445  14.541  0.00  0.00    +0.000 A 
ATOM     15  C   UNL     1       6.150   3.733  13.587  0.00  0.00    +0.000 A 
ATOM     16  C   UNL     1       6.325   3.990  12.229  0.00  0.00    +0.000 A 
ATOM     17  C   UNL     1       7.240   4.957  11.822  0.00  0.00    +0.000 A 
ATOM     18  C   UNL     1       7.977   5.670  12.774  0.00  0.00    +0.000 A 
ATOM     19  C   UNL     1       7.805   5.420  14.140  0.00  0.00    +0.000 A 
ENDBRANCH  11  14
ENDBRANCH   6  11
BRANCH   5  20
ATOM     20  O   UNL     1       3.375   4.227  17.162  0.00  0.00    +0.000 OA
BRANCH  20  21
ATOM     21  C   UNL     1       3.439   3.185  18.032  0.00  0.00    +0.000 C 
ATOM     22  O   UNL     1       3.885   2.073  17.766  0.00  0.00    +0.000 OA
BRANCH  21  23
ATOM     23  C   UNL     1       2.830   3.514  19.380  0.00  0.00    +0.000 C 
ATOM     24  C   UNL     1       1.354   3.139  19.432  0.00  0.00    +0.000 C 
ATOM     25  C   UNL     1       1.012   3.206  20.914  0.00  0.00    +0.000 C 
ATOM     26  C   UNL     1       2.314   2.903  21.656  0.00  0.00    +0.000 C 
ATOM     27  C   UNL     1       3.394   2.769  20.585  0.00  0.00    +0.000 C 
ENDBRANCH  21  23
ENDBRANCH  20  21
ENDBRANCH   5  20
TORSDOF 6
ENDMDL
MODEL 4
REMARK VINA RESULT:      -6.1      3.641      7.522
REMARK  Name = 
REMARK  10 active torsions:
REMARK  status: ('A' for Active; 'I' for Inactive)
REMARK    1  A    between atoms: C_1  and  C_2
REMARK    2  A    between atoms: N_4  and  C_5
REMARK    3  A    between atoms: C_5  and  C_6
REMARK    4  A    between atoms: C_5  and  C_7
REMARK    5  A    between atoms: C_5  and  C_8
REMARK    6  A    between atoms: C_9  and  O_10
REMARK    7  A    between atoms: O_10  and  C_11
REMARK    8  A    between atoms: C_11  and  C_13
REMARK    9  A    between atoms: C_18  and  S_19
REMARK   10  A    between atoms: S_19  and  C_22
REMARK                            x       y       z     vdW  Elec       q    Type
REMARK                         _______ _______ _______ _____ _____    ______ ____
ROOT
ATOM      1  C   UNL     1       7.060   7.464  16.423  0.00  0.00    +0.000 C 
ATOM      2  C   UNL     1       5.947   6.681  17.021  0.00  0.00    +0.000 A 
ATOM      3  N   UNL     1       4.935   7.343  17.590  0.00  0.00    +0.000 NA
ATOM      4  N   UNL     1       4.020   6.399  17.903  0.00  0.00    +0.000 N 
ATOM      5  C   UNL     1       4.484   5.117  17.657  0.00  0.00    +0.000 A 
ATOM      6  C   UNL     1       5.730   5.285  17.058  0.00  0.00    +0.000 A 
ENDROOT
BRANCH   4   7
ATOM      7  C   UNL     1       2.708   6.833  18.436  0.00  0.00    +0.000 C 
ATOM      8  C   UNL     1       1.531   6.070  17.764  0.00  0.00    +0.000 C 
ATOM      9  C   UNL     1       2.602   6.554  19.950  0.00  0.00    +0.000 C 
ATOM     10  C   UNL     1       2.491   8.332  18.168  0.00  0.00    +0.000 C 
ENDBRANCH   4   7
BRANCH   6  11
ATOM     11  S   UNL     1       6.698   4.081  16.299  0.00  0.00    +0.000 S 
ATOM     12  O   UNL     1       7.987   4.220  16.956  0.00  0.00    +0.000 OA
ATOM     13  O   UNL     1       5.942   2.844  16.403  0.00  0.00    +0.000 OA
BRANCH  11  14
ATOM     14  C   UNL     1       6.941   4.381  14.573  0.00  0.00    +0.000 A 
ATOM     15  C   UNL     1       6.141   3.653  13.680  0.00  0.00    +0.000 A 
ATOM     16  C   UNL     1       6.277   3.839  12.306  0.00  0.00    +0.000 A 
ATOM     17  C   UNL     1       7.211   4.751  11.822  0.00  0.00    +0.000 A 
ATOM     18  C   UNL     1       8.007   5.480  12.712  0.00  0.00    +0.000 A 
ATOM     19  C   UNL     1       7.874   5.302  14.094  0.00  0.00    +0.000 A 
ENDBRANCH  11  14
ENDBRANCH   6  11
BRANCH   5  20
ATOM     20  O   UNL     1       3.721   4.043  17.855  0.00  0.00    +0.000 OA
BRANCH  20  21
ATOM     21  C   UNL     1       4.018   3.327  18.972  0.00  0.00    +0.000 C 
ATOM     22  O   UNL     1       5.151   3.142  19.407  0.00  0.00    +0.000 OA
BRANCH  21  23
ATOM     23  C   UNL     1       2.792   2.707  19.610  0.00  0.00    +0.000 C 
ATOM     24  C   UNL     1       2.569   3.235  21.021  0.00  0.00    +0.000 C 
ATOM     25  C   UNL     1       1.151   2.791  21.358  0.00  0.00    +0.000 C 
ATOM     26  C   UNL     1       0.415   2.701  20.022  0.00  0.00    +0.000 C 
ATOM     27  C   UNL     1       1.453   2.997  18.942  0.00  0.00    +0.000 C 
ENDBRANCH  21  23
ENDBRANCH  20  21
ENDBRANCH   5  20
TORSDOF 6
ENDMDL
MODEL 5
REMARK VINA RESULT:      -6.1      1.033      1.581
REMARK  Name = 
REMARK  10 active torsions:
REMARK  status: ('A' for Active; 'I' for Inactive)
REMARK    1  A    between atoms: C_1  and  C_2
REMARK    2  A    between atoms: N_4  and  C_5
REMARK    3  A    between atoms: C_5  and  C_6
REMARK    4  A    between atoms: C_5  and  C_7
REMARK    5  A    between atoms: C_5  and  C_8
REMARK    6  A    between atoms: C_9  and  O_10
REMARK    7  A    between atoms: O_10  and  C_11
REMARK    8  A    between atoms: C_11  and  C_13
REMARK    9  A    between atoms: C_18  and  S_19
REMARK   10  A    between atoms: S_19  and  C_22
REMARK                            x       y       z     vdW  Elec       q    Type
REMARK                         _______ _______ _______ _____ _____    ______ ____
ROOT
ATOM      1  C   UNL     1       0.825   8.306  21.378  0.00  0.00    +0.000 C 
ATOM      2  C   UNL     1       1.608   7.500  20.403  0.00  0.00    +0.000 A 
ATOM      3  N   UNL     1       1.943   6.250  20.733  0.00  0.00    +0.000 NA
ATOM      4  N   UNL     1       2.503   5.723  19.622  0.00  0.00    +0.000 N 
ATOM      5  C   UNL     1       2.650   6.662  18.614  0.00  0.00    +0.000 A 
ATOM      6  C   UNL     1       2.049   7.821  19.099  0.00  0.00    +0.000 A 
ENDROOT
BRANCH   4   7
ATOM      7  C   UNL     1       2.865   4.287  19.622  0.00  0.00    +0.000 C 
ATOM      8  C   UNL     1       2.363   3.566  20.905  0.00  0.00    +0.000 C 
ATOM      9  C   UNL     1       2.225   3.551  18.427  0.00  0.00    +0.000 C 
ATOM     10  C   UNL     1       4.394   4.121  19.577  0.00  0.00    +0.000 C 
ENDBRANCH   4   7
BRANCH   6  11
ATOM     11  S   UNL     1       1.691   9.261  18.226  0.00  0.00    +0.000 S 
ATOM     12  O   UNL     1       2.998   9.855  18.002  0.00  0.00    +0.000 OA
ATOM     13  O   UNL     1       0.863   8.847  17.106  0.00  0.00    +0.000 OA
BRANCH  11  14
ATOM     14  C   UNL     1       0.732  10.413  19.164  0.00  0.00    +0.000 A 
ATOM     15  C   UNL     1      -0.658  10.391  18.973  0.00  0.00    +0.000 A 
ATOM     16  C   UNL     1      -1.477  11.270  19.680  0.00  0.00    +0.000 A 
ATOM     17  C   UNL     1      -0.909  12.172  20.576  0.00  0.00    +0.000 A 
ATOM     18  C   UNL     1       0.476  12.192  20.769  0.00  0.00    +0.000 A 
ATOM     19  C   UNL     1       1.305  11.310  20.066  0.00  0.00    +0.000 A 
ENDBRANCH  11  14
ENDBRANCH   6  11
BRANCH   5  20
ATOM     20  O   UNL     1       3.142   6.340  17.419  0.00  0.00    +0.000 OA
BRANCH  20  21
ATOM     21  C   UNL     1       4.474   6.566  17.267  0.00  0.00    +0.000 C 
ATOM     22  O   UNL     1       5.138   7.339  17.951  0.00  0.00    +0.000 OA
BRANCH  21  23
ATOM     23  C   UNL     1       5.065   5.802  16.099  0.00  0.00    +0.000 C 
ATOM     24  C   UNL     1       6.587   5.873  16.098  0.00  0.00    +0.000 C 
ATOM     25  C   UNL     1       7.002   4.798  15.104  0.00  0.00    +0.000 C 
ATOM     26  C   UNL     1       5.888   3.751  15.132  0.00  0.00    +0.000 C 
ATOM     27  C   UNL     1       4.813   4.299  16.067  0.00  0.00    +0.000 C 
ENDBRANCH  21  23
ENDBRANCH  20  21
ENDBRANCH   5  20
TORSDOF 6
ENDMDL
MODEL 6
REMARK VINA RESULT:      -6.1      8.966     10.506
REMARK  Name = 
REMARK  10 active torsions:
REMARK  status: ('A' for Active; 'I' for Inactive)
REMARK    1  A    between atoms: C_1  and  C_2
REMARK    2  A    between atoms: N_4  and  C_5
REMARK    3  A    between atoms: C_5  and  C_6
REMARK    4  A    between atoms: C_5  and  C_7
REMARK    5  A    between atoms: C_5  and  C_8
REMARK    6  A    between atoms: C_9  and  O_10
REMARK    7  A    between atoms: O_10  and  C_11
REMARK    8  A    between atoms: C_11  and  C_13
REMARK    9  A    between atoms: C_18  and  S_19
REMARK   10  A    between atoms: S_19  and  C_22
REMARK                            x       y       z     vdW  Elec       q    Type
REMARK                         _______ _______ _______ _____ _____    ______ ____
ROOT
ATOM      1  C   UNL     1       9.924  16.539  17.449  0.00  0.00    +0.000 C 
ATOM      2  C   UNL     1       9.627  15.334  18.266  0.00  0.00    +0.000 A 
ATOM      3  N   UNL     1      10.296  14.206  18.006  0.00  0.00    +0.000 NA
ATOM      4  N   UNL     1       9.937  13.343  18.982  0.00  0.00    +0.000 N 
ATOM      5  C   UNL     1       8.944  13.859  19.799  0.00  0.00    +0.000 A 
ATOM      6  C   UNL     1       8.748  15.166  19.360  0.00  0.00    +0.000 A 
ENDROOT
BRANCH   4   7
ATOM      7  C   UNL     1      10.616  12.029  19.052  0.00  0.00    +0.000 C 
ATOM      8  C   UNL     1       9.624  10.884  19.407  0.00  0.00    +0.000 C 
ATOM      9  C   UNL     1      11.246  11.655  17.695  0.00  0.00    +0.000 C 
ATOM     10  C   UNL     1      11.701  12.045  20.143  0.00  0.00    +0.000 C 
ENDBRANCH   4   7
BRANCH   6  11
ATOM     11  S   UNL     1       7.823  16.401  20.125  0.00  0.00    +0.000 S 
ATOM     12  O   UNL     1       8.812  17.136  20.895  0.00  0.00    +0.000 OA
ATOM     13  O   UNL     1       7.079  17.052  19.060  0.00  0.00    +0.000 OA
BRANCH  11  14
ATOM     14  C   UNL     1       6.627  15.761  21.259  0.00  0.00    +0.000 A 
ATOM     15  C   UNL     1       6.765  16.128  22.606  0.00  0.00    +0.000 A 
ATOM     16  C   UNL     1       5.858  15.662  23.556  0.00  0.00    +0.000 A 
ATOM     17  C   UNL     1       4.814  14.829  23.162  0.00  0.00    +0.000 A 
ATOM     18  C   UNL     1       4.674  14.466  21.819  0.00  0.00    +0.000 A 
ATOM     19  C   UNL     1       5.578  14.933  20.858  0.00  0.00    +0.000 A 
ENDBRANCH  11  14
ENDBRANCH   6  11
BRANCH   5  20
ATOM     20  O   UNL     1       8.477  13.186  20.850  0.00  0.00    +0.000 OA
BRANCH  20  21
ATOM     21  C   UNL     1       9.096  13.463  22.028  0.00  0.00    +0.000 C 
ATOM     22  O   UNL     1       9.983  14.297  22.177  0.00  0.00    +0.000 OA
BRANCH  21  23
ATOM     23  C   UNL     1       8.621  12.572  23.159  0.00  0.00    +0.000 C 
ATOM     24  C   UNL     1       8.507  13.344  24.467  0.00  0.00    +0.000 C 
ATOM     25  C   UNL     1       7.707  12.415  25.371  0.00  0.00    +0.000 C 
ATOM     26  C   UNL     1       6.835  11.576  24.438  0.00  0.00    +0.000 C 
ATOM     27  C   UNL     1       7.227  11.972  23.016  0.00  0.00    +0.000 C 
ENDBRANCH  21  23
ENDBRANCH  20  21
ENDBRANCH   5  20
TORSDOF 6
ENDMDL
MODEL 7
REMARK VINA RESULT:      -6.1      3.597      7.413
REMARK  Name = 
REMARK  10 active torsions:
REMARK  status: ('A' for Active; 'I' for Inactive)
REMARK    1  A    between atoms: C_1  and  C_2
REMARK    2  A    between atoms: N_4  and  C_5
REMARK    3  A    between atoms: C_5  and  C_6
REMARK    4  A    between atoms: C_5  and  C_7
REMARK    5  A    between atoms: C_5  and  C_8
REMARK    6  A    between atoms: C_9  and  O_10
REMARK    7  A    between atoms: O_10  and  C_11
REMARK    8  A    between atoms: C_11  and  C_13
REMARK    9  A    between atoms: C_18  and  S_19
REMARK   10  A    between atoms: S_19  and  C_22
REMARK                            x       y       z     vdW  Elec       q    Type
REMARK                         _______ _______ _______ _____ _____    ______ ____
ROOT
ATOM      1  C   UNL     1       7.383   7.165  17.218  0.00  0.00    +0.000 C 
ATOM      2  C   UNL     1       6.064   6.501  17.386  0.00  0.00    +0.000 A 
ATOM      3  N   UNL     1       5.049   7.213  17.886  0.00  0.00    +0.000 NA
ATOM      4  N   UNL     1       3.965   6.413  17.784  0.00  0.00    +0.000 N 
ATOM      5  C   UNL     1       4.291   5.141  17.340  0.00  0.00    +0.000 A 
ATOM      6  C   UNL     1       5.653   5.190  17.053  0.00  0.00    +0.000 A 
ENDROOT
BRANCH   4   7
ATOM      7  C   UNL     1       2.638   6.968  18.137  0.00  0.00    +0.000 C 
ATOM      8  C   UNL     1       2.504   8.458  17.711  0.00  0.00    +0.000 C 
ATOM      9  C   UNL     1       1.506   6.205  17.419  0.00  0.00    +0.000 C 
ATOM     10  C   UNL     1       2.421   6.909  19.659  0.00  0.00    +0.000 C 
ENDBRANCH   4   7
BRANCH   6  11
ATOM     11  S   UNL     1       6.595   4.001  16.238  0.00  0.00    +0.000 S 
ATOM     12  O   UNL     1       7.897   4.107  16.874  0.00  0.00    +0.000 OA
ATOM     13  O   UNL     1       5.829   2.769  16.317  0.00  0.00    +0.000 OA
BRANCH  11  14
ATOM     14  C   UNL     1       6.808   4.354  14.518  0.00  0.00    +0.000 A 
ATOM     15  C   UNL     1       7.801   5.285  14.176  0.00  0.00    +0.000 A 
ATOM     16  C   UNL     1       8.025   5.611  12.840  0.00  0.00    +0.000 A 
ATOM     17  C   UNL     1       7.258   5.010  11.845  0.00  0.00    +0.000 A 
ATOM     18  C   UNL     1       6.271   4.080  12.186  0.00  0.00    +0.000 A 
ATOM     19  C   UNL     1       6.042   3.744  13.524  0.00  0.00    +0.000 A 
ENDBRANCH  11  14
ENDBRANCH   6  11
BRANCH   5  20
ATOM     20  O   UNL     1       3.362   4.210  17.129  0.00  0.00    +0.000 OA
BRANCH  20  21
ATOM     21  C   UNL     1       3.389   3.166  17.999  0.00  0.00    +0.000 C 
ATOM     22  O   UNL     1       3.756   2.029  17.721  0.00  0.00    +0.000 OA
BRANCH  21  23
ATOM     23  C   UNL     1       2.844   3.532  19.365  0.00  0.00    +0.000 C 
ATOM     24  C   UNL     1       1.353   3.236  19.469  0.00  0.00    +0.000 C 
ATOM     25  C   UNL     1       1.065   3.327  20.962  0.00  0.00    +0.000 C 
ATOM     26  C   UNL     1       2.374   2.960  21.661  0.00  0.00    +0.000 C 
ATOM     27  C   UNL     1       3.408   2.764  20.555  0.00  0.00    +0.000 C 
ENDBRANCH  21  23
ENDBRANCH  20  21
ENDBRANCH   5  20
TORSDOF 6
ENDMDL
MODEL 8
REMARK VINA RESULT:      -6.0      0.608      1.160
REMARK  Name = 
REMARK  10 active torsions:
REMARK  status: ('A' for Active; 'I' for Inactive)
REMARK    1  A    between atoms: C_1  and  C_2
REMARK    2  A    between atoms: N_4  and  C_5
REMARK    3  A    between atoms: C_5  and  C_6
REMARK    4  A    between atoms: C_5  and  C_7
REMARK    5  A    between atoms: C_5  and  C_8
REMARK    6  A    between atoms: C_9  and  O_10
REMARK    7  A    between atoms: O_10  and  C_11
REMARK    8  A    between atoms: C_11  and  C_13
REMARK    9  A    between atoms: C_18  and  S_19
REMARK   10  A    between atoms: S_19  and  C_22
REMARK                            x       y       z     vdW  Elec       q    Type
REMARK                         _______ _______ _______ _____ _____    ______ ____
ROOT
ATOM      1  C   UNL     1       0.497   8.723  21.495  0.00  0.00    +0.000 C 
ATOM      2  C   UNL     1       1.292   7.876  20.568  0.00  0.00    +0.000 A 
ATOM      3  N   UNL     1       1.534   6.608  20.911  0.00  0.00    +0.000 NA
ATOM      4  N   UNL     1       2.133   6.052  19.834  0.00  0.00    +0.000 N 
ATOM      5  C   UNL     1       2.396   6.984  18.843  0.00  0.00    +0.000 A 
ATOM      6  C   UNL     1       1.832   8.174  19.296  0.00  0.00    +0.000 A 
ENDROOT
BRANCH   4   7
ATOM      7  C   UNL     1       2.411   4.598  19.849  0.00  0.00    +0.000 C 
ATOM      8  C   UNL     1       1.742   3.894  21.064  0.00  0.00    +0.000 C 
ATOM      9  C   UNL     1       1.855   3.911  18.585  0.00  0.00    +0.000 C 
ATOM     10  C   UNL     1       3.925   4.345  19.956  0.00  0.00    +0.000 C 
ENDBRANCH   4   7
BRANCH   6  11
ATOM     11  S   UNL     1       1.612   9.634  18.410  0.00  0.00    +0.000 S 
ATOM     12  O   UNL     1       2.362  10.612  19.180  0.00  0.00    +0.000 OA
ATOM     13  O   UNL     1       1.986   9.323  17.040  0.00  0.00    +0.000 OA
BRANCH  11  14
ATOM     14  C   UNL     1      -0.074  10.163  18.366  0.00  0.00    +0.000 A 
ATOM     15  C   UNL     1      -0.912   9.549  17.423  0.00  0.00    +0.000 A 
ATOM     16  C   UNL     1      -2.253   9.915  17.332  0.00  0.00    +0.000 A 
ATOM     17  C   UNL     1      -2.759  10.896  18.181  0.00  0.00    +0.000 A 
ATOM     18  C   UNL     1      -1.925  11.506  19.124  0.00  0.00    +0.000 A 
ATOM     19  C   UNL     1      -0.578  11.141  19.224  0.00  0.00    +0.000 A 
ENDBRANCH  11  14
ENDBRANCH   6  11
BRANCH   5  20
ATOM     20  O   UNL     1       2.943   6.636  17.679  0.00  0.00    +0.000 OA
BRANCH  20  21
ATOM     21  C   UNL     1       4.265   6.928  17.557  0.00  0.00    +0.000 C 
ATOM     22  O   UNL     1       4.739   8.060  17.570  0.00  0.00    +0.000 OA
BRANCH  21  23
ATOM     23  C   UNL     1       5.116   5.695  17.330  0.00  0.00    +0.000 C 
ATOM     24  C   UNL     1       4.543   4.818  16.224  0.00  0.00    +0.000 C 
ATOM     25  C   UNL     1       5.674   3.851  15.902  0.00  0.00    +0.000 C 
ATOM     26  C   UNL     1       6.967   4.592  16.245  0.00  0.00    +0.000 C 
ATOM     27  C   UNL     1       6.543   5.929  16.849  0.00  0.00    +0.000 C 
ENDBRANCH  21  23
ENDBRANCH  20  21
ENDBRANCH   5  20
TORSDOF 6
ENDMDL
MODEL 9
REMARK VINA RESULT:      -6.0      5.687     10.189
REMARK  Name = 
REMARK  10 active torsions:
REMARK  status: ('A' for Active; 'I' for Inactive)
REMARK    1  A    between atoms: C_1  and  C_2
REMARK    2  A    between atoms: N_4  and  C_5
REMARK    3  A    between atoms: C_5  and  C_6
REMARK    4  A    between atoms: C_5  and  C_7
REMARK    5  A    between atoms: C_5  and  C_8
REMARK    6  A    between atoms: C_9  and  O_10
REMARK    7  A    between atoms: O_10  and  C_11
REMARK    8  A    between atoms: C_11  and  C_13
REMARK    9  A    between atoms: C_18  and  S_19
REMARK   10  A    between atoms: S_19  and  C_22
REMARK                            x       y       z     vdW  Elec       q    Type
REMARK                         _______ _______ _______ _____ _____    ______ ____
ROOT
ATOM      1  C   UNL     1      -2.894  10.228  17.687  0.00  0.00    +0.000 C 
ATOM      2  C   UNL     1      -3.535  11.317  18.472  0.00  0.00    +0.000 A 
ATOM      3  N   UNL     1      -4.865  11.437  18.429  0.00  0.00    +0.000 NA
ATOM      4  N   UNL     1      -5.168  12.392  19.336  0.00  0.00    +0.000 N 
ATOM      5  C   UNL     1      -4.036  12.982  19.874  0.00  0.00    +0.000 A 
ATOM      6  C   UNL     1      -2.962  12.274  19.339  0.00  0.00    +0.000 A 
ENDROOT
BRANCH   4   7
ATOM      7  C   UNL     1      -6.594  12.668  19.625  0.00  0.00    +0.000 C 
ATOM      8  C   UNL     1      -7.108  11.841  20.838  0.00  0.00    +0.000 C 
ATOM      9  C   UNL     1      -6.812  14.152  19.984  0.00  0.00    +0.000 C 
ATOM     10  C   UNL     1      -7.467  12.291  18.416  0.00  0.00    +0.000 C 
ENDBRANCH   4   7
BRANCH   6  11
ATOM     11  S   UNL     1      -1.308  12.368  19.808  0.00  0.00    +0.000 S 
ATOM     12  O   UNL     1      -0.591  12.164  18.560  0.00  0.00    +0.000 OA
ATOM     13  O   UNL     1      -1.176  13.614  20.544  0.00  0.00    +0.000 OA
BRANCH  11  14
ATOM     14  C   UNL     1      -0.833  11.074  20.916  0.00  0.00    +0.000 A 
ATOM     15  C   UNL     1      -1.016  11.309  22.287  0.00  0.00    +0.000 A 
ATOM     16  C   UNL     1      -0.666  10.333  23.218  0.00  0.00    +0.000 A 
ATOM     17  C   UNL     1      -0.132   9.123  22.782  0.00  0.00    +0.000 A 
ATOM     18  C   UNL     1       0.047   8.888  21.415  0.00  0.00    +0.000 A 
ATOM     19  C   UNL     1      -0.305   9.860  20.473  0.00  0.00    +0.000 A 
ENDBRANCH  11  14
ENDBRANCH   6  11
BRANCH   5  20
ATOM     20  O   UNL     1      -4.112  13.917  20.820  0.00  0.00    +0.000 OA
BRANCH  20  21
ATOM     21  C   UNL     1      -3.999  13.454  22.094  0.00  0.00    +0.000 C 
ATOM     22  O   UNL     1      -4.310  12.326  22.462  0.00  0.00    +0.000 OA
BRANCH  21  23
ATOM     23  C   UNL     1      -3.502  14.514  23.056  0.00  0.00    +0.000 C 
ATOM     24  C   UNL     1      -4.658  15.275  23.694  0.00  0.00    +0.000 C 
ATOM     25  C   UNL     1      -4.009  16.023  24.851  0.00  0.00    +0.000 C 
ATOM     26  C   UNL     1      -2.803  15.182  25.266  0.00  0.00    +0.000 C 
ATOM     27  C   UNL     1      -2.729  14.023  24.274  0.00  0.00    +0.000 C 
ENDBRANCH  21  23
ENDBRANCH  20  21
ENDBRANCH   5  20
TORSDOF 6
ENDMDL
