MODEL 1
REMARK VINA RESULT:      -8.9      0.000      0.000
REMARK  Name = 
REMARK  7 active torsions:
REMARK  status: ('A' for Active; 'I' for Inactive)
REMARK    1  A    between atoms: C_1  and  O_2
REMARK    2  A    between atoms: O_2  and  C_3
REMARK    3  A    between atoms: C_3  and  C_5
REMARK    4  A    between atoms: C_9  and  C_11
REMARK    5  A    between atoms: C_14  and  N_15
REMARK    6  A    between atoms: N_15  and  C_16
REMARK    7  A    between atoms: C_16  and  C_17
REMARK                            x       y       z     vdW  Elec       q    Type
REMARK                         _______ _______ _______ _____ _____    ______ ____
ROOT
ATOM      1  N   UNL     1       8.876   8.631  19.088  0.00  0.00    +0.000 N 
ATOM      2  H   UNL     1       9.847   8.355  19.253  0.00  0.00    +0.000 HD
ENDROOT
BRANCH   1   6
ATOM      3  C   UNL     1       6.616   5.466  17.593  0.00  0.00    +0.000 A 
ATOM      4  C   UNL     1       6.558   6.701  16.960  0.00  0.00    +0.000 A 
ATOM      5  C   UNL     1       7.329   7.748  17.469  0.00  0.00    +0.000 A 
ATOM      6  C   UNL     1       8.163   7.542  18.570  0.00  0.00    +0.000 A 
ATOM      7  C   UNL     1       8.148   6.262  19.122  0.00  0.00    +0.000 A 
ATOM      8  N   UNL     1       7.433   5.222  18.644  0.00  0.00    +0.000 NA
BRANCH   3  13
ATOM      9  C   UNL     1       1.683   3.996  18.257  0.00  0.00    +0.000 C 
ATOM     10  C   UNL     1       2.342   3.261  17.083  0.00  0.00    +0.000 C 
ATOM     11  C   UNL     1       3.783   2.862  17.388  0.00  0.00    +0.000 C 
ATOM     12  N   UNL     1       4.557   4.021  17.819  0.00  0.00    +0.000 N 
ATOM     13  C   UNL     1       5.726   4.353  17.116  0.00  0.00    +0.000 C 
ATOM     14  O   UNL     1       6.048   3.783  16.073  0.00  0.00    +0.000 OA
ATOM     15  C   UNL     1       4.014   4.717  18.989  0.00  0.00    +0.000 C 
ATOM     16  C   UNL     1       2.568   5.141  18.755  0.00  0.00    +0.000 C 
BRANCH   9  17
ATOM     17  C   UNL     1       1.315   3.044  19.383  0.00  0.00    +0.000 C 
ATOM     18  O   UNL     1       1.001   1.870  19.245  0.00  0.00    +0.000 OA
BRANCH  17  20
ATOM     19  C   UNL     1       1.560   2.810  21.703  0.00  0.00    +0.000 C 
ATOM     20  O   UNL     1       1.430   3.682  20.580  0.00  0.00    +0.000 OA
ENDBRANCH  17  20
ENDBRANCH   9  17
ENDBRANCH   3  13
ENDBRANCH   1   6
BRANCH   1  21
ATOM     21  C   UNL     1       8.821   9.873  18.310  0.00  0.00    +0.000 C 
BRANCH  21  22
ATOM     22  C   UNL     1       9.305  11.042  19.127  0.00  0.00    +0.000 A 
ATOM     23  C   UNL     1       9.426  10.949  20.502  0.00  0.00    +0.000 A 
ATOM     24  N   UNL     1       9.778  12.003  21.280  0.00  0.00    +0.000 NA
ATOM     25  C   UNL     1       9.997  13.179  20.682  0.00  0.00    +0.000 A 
ATOM     26  N   UNL     1      10.314  14.215  21.454  0.00  0.00    +0.000 NA
ATOM     27  C   UNL     1      10.507  15.387  20.864  0.00  0.00    +0.000 A 
ATOM     28  N   UNL     1      10.780  16.467  21.670  0.00  0.00    +0.000 N 
ATOM     29  N   UNL     1      10.463  15.597  19.550  0.00  0.00    +0.000 NA
ATOM     30  C   UNL     1      10.143  14.541  18.788  0.00  0.00    +0.000 A 
ATOM     31  N   UNL     1       9.985  14.804  17.417  0.00  0.00    +0.000 N 
ATOM     32  C   UNL     1       9.880  13.274  19.290  0.00  0.00    +0.000 A 
ATOM     33  N   UNL     1       9.548  12.210  18.496  0.00  0.00    +0.000 NA
ATOM     34  H   UNL     1      11.139  16.177  22.569  0.00  0.00    +0.000 HD
ATOM     35  H   UNL     1      11.271  17.194  21.169  0.00  0.00    +0.000 HD
ATOM     36  H   UNL     1      10.345  15.726  17.197  0.00  0.00    +0.000 HD
ATOM     37  H   UNL     1      10.342  14.048  16.842  0.00  0.00    +0.000 HD
ENDBRANCH  21  22
ENDBRANCH   1  21
TORSDOF 6
ENDMDL
MODEL 2
REMARK VINA RESULT:      -8.5      7.108     10.044
REMARK  Name = 
REMARK  7 active torsions:
REMARK  status: ('A' for Active; 'I' for Inactive)
REMARK    1  A    between atoms: C_1  and  O_2
REMARK    2  A    between atoms: O_2  and  C_3
REMARK    3  A    between atoms: C_3  and  C_5
REMARK    4  A    between atoms: C_9  and  C_11
REMARK    5  A    between atoms: C_14  and  N_15
REMARK    6  A    between atoms: N_15  and  C_16
REMARK    7  A    between atoms: C_16  and  C_17
REMARK                            x       y       z     vdW  Elec       q    Type
REMARK                         _______ _______ _______ _____ _____    ______ ____
ROOT
ATOM      1  N   UNL     1       0.846  11.205  19.578  0.00  0.00    +0.000 N 
ATOM      2  H   UNL     1       0.504  11.637  18.717  0.00  0.00    +0.000 HD
ENDROOT
BRANCH   1   6
ATOM      3  C   UNL     1       2.273   7.409  18.617  0.00  0.00    +0.000 A 
ATOM      4  C   UNL     1       2.203   8.380  17.626  0.00  0.00    +0.000 A 
ATOM      5  C   UNL     1       1.732   9.649  17.968  0.00  0.00    +0.000 A 
ATOM      6  C   UNL     1       1.371   9.938  19.285  0.00  0.00    +0.000 A 
ATOM      7  C   UNL     1       1.487   8.892  20.199  0.00  0.00    +0.000 A 
ATOM      8  N   UNL     1       1.958   7.661  19.909  0.00  0.00    +0.000 NA
BRANCH   3  13
ATOM      9  C   UNL     1       6.610   5.031  17.047  0.00  0.00    +0.000 C 
ATOM     10  C   UNL     1       5.542   4.026  17.495  0.00  0.00    +0.000 C 
ATOM     11  C   UNL     1       4.143   4.431  17.041  0.00  0.00    +0.000 C 
ATOM     12  N   UNL     1       3.837   5.791  17.470  0.00  0.00    +0.000 N 
ATOM     13  C   UNL     1       2.691   6.013  18.251  0.00  0.00    +0.000 C 
ATOM     14  O   UNL     1       2.012   5.087  18.695  0.00  0.00    +0.000 OA
ATOM     15  C   UNL     1       4.785   6.806  17.002  0.00  0.00    +0.000 C 
ATOM     16  C   UNL     1       6.211   6.460  17.418  0.00  0.00    +0.000 C 
BRANCH   9  17
ATOM     17  C   UNL     1       6.917   4.903  15.564  0.00  0.00    +0.000 C 
ATOM     18  O   UNL     1       7.643   5.650  14.923  0.00  0.00    +0.000 OA
BRANCH  17  20
ATOM     19  C   UNL     1       6.229   3.762  13.635  0.00  0.00    +0.000 C 
ATOM     20  O   UNL     1       6.297   3.800  15.060  0.00  0.00    +0.000 OA
ENDBRANCH  17  20
ENDBRANCH   9  17
ENDBRANCH   3  13
ENDBRANCH   1   6
BRANCH   1  21
ATOM     21  C   UNL     1      -0.180  11.258  20.623  0.00  0.00    +0.000 C 
BRANCH  21  22
ATOM     22  C   UNL     1      -1.515  11.648  20.047  0.00  0.00    +0.000 A 
ATOM     23  C   UNL     1      -2.459  12.306  20.816  0.00  0.00    +0.000 A 
ATOM     24  N   UNL     1      -3.702  12.600  20.359  0.00  0.00    +0.000 NA
ATOM     25  C   UNL     1      -4.021  12.215  19.118  0.00  0.00    +0.000 A 
ATOM     26  N   UNL     1      -5.252  12.481  18.688  0.00  0.00    +0.000 NA
ATOM     27  C   UNL     1      -5.578  12.078  17.467  0.00  0.00    +0.000 A 
ATOM     28  N   UNL     1      -6.867  12.306  17.045  0.00  0.00    +0.000 N 
ATOM     29  N   UNL     1      -4.750  11.475  16.616  0.00  0.00    +0.000 NA
ATOM     30  C   UNL     1      -3.514  11.216  17.067  0.00  0.00    +0.000 A 
ATOM     31  N   UNL     1      -2.691  10.476  16.201  0.00  0.00    +0.000 N 
ATOM     32  C   UNL     1      -3.067  11.553  18.338  0.00  0.00    +0.000 A 
ATOM     33  N   UNL     1      -1.803  11.274  18.782  0.00  0.00    +0.000 NA
ATOM     34  H   UNL     1      -7.303  13.049  17.572  0.00  0.00    +0.000 HD
ATOM     35  H   UNL     1      -6.933  12.329  16.038  0.00  0.00    +0.000 HD
ATOM     36  H   UNL     1      -3.108  10.434  15.278  0.00  0.00    +0.000 HD
ATOM     37  H   UNL     1      -1.728  10.793  16.231  0.00  0.00    +0.000 HD
ENDBRANCH  21  22
ENDBRANCH   1  21
TORSDOF 6
ENDMDL
MODEL 3
REMARK VINA RESULT:      -8.4      1.630      2.116
REMARK  Name = 
REMARK  7 active torsions:
REMARK  status: ('A' for Active; 'I' for Inactive)
REMARK    1  A    between atoms: C_1  and  O_2
REMARK    2  A    between atoms: O_2  and  C_3
REMARK    3  A    between atoms: C_3  and  C_5
REMARK    4  A    between atoms: C_9  and  C_11
REMARK    5  A    between atoms: C_14  and  N_15
REMARK    6  A    between atoms: N_15  and  C_16
REMARK    7  A    between atoms: C_16  and  C_17
REMARK                            x       y       z     vdW  Elec       q    Type
REMARK                         _______ _______ _______ _____ _____    ______ ____
ROOT
ATOM      1  N   UNL     1       9.177   9.119  18.645  0.00  0.00    +0.000 N 
ATOM      2  H   UNL     1       9.778   9.298  17.838  0.00  0.00    +0.000 HD
ENDROOT
BRANCH   1   6
ATOM      3  C   UNL     1       6.656   5.940  17.693  0.00  0.00    +0.000 A 
ATOM      4  C   UNL     1       7.536   5.814  18.761  0.00  0.00    +0.000 A 
ATOM      5  C   UNL     1       8.367   6.893  19.072  0.00  0.00    +0.000 A 
ATOM      6  C   UNL     1       8.286   8.080  18.341  0.00  0.00    +0.000 A 
ATOM      7  C   UNL     1       7.365   8.099  17.296  0.00  0.00    +0.000 A 
ATOM      8  N   UNL     1       6.532   7.084  16.981  0.00  0.00    +0.000 NA
BRANCH   3  13
ATOM      9  C   UNL     1       1.710   4.443  18.170  0.00  0.00    +0.000 C 
ATOM     10  C   UNL     1       2.464   3.593  17.140  0.00  0.00    +0.000 C 
ATOM     11  C   UNL     1       3.884   3.266  17.591  0.00  0.00    +0.000 C 
ATOM     12  N   UNL     1       4.607   4.484  17.938  0.00  0.00    +0.000 N 
ATOM     13  C   UNL     1       5.821   4.760  17.287  0.00  0.00    +0.000 C 
ATOM     14  O   UNL     1       6.226   4.081  16.343  0.00  0.00    +0.000 OA
ATOM     15  C   UNL     1       3.970   5.296  18.977  0.00  0.00    +0.000 C 
ATOM     16  C   UNL     1       2.539   5.657  18.593  0.00  0.00    +0.000 C 
BRANCH   9  17
ATOM     17  C   UNL     1       1.274   3.618  19.370  0.00  0.00    +0.000 C 
ATOM     18  O   UNL     1       0.762   2.509  19.320  0.00  0.00    +0.000 OA
BRANCH  17  20
ATOM     19  C   UNL     1       1.973   3.436  21.600  0.00  0.00    +0.000 C 
ATOM     20  O   UNL     1       1.581   4.281  20.519  0.00  0.00    +0.000 OA
ENDBRANCH  17  20
ENDBRANCH   9  17
ENDBRANCH   3  13
ENDBRANCH   1   6
BRANCH   1  21
ATOM     21  C   UNL     1       8.579  10.368  19.127  0.00  0.00    +0.000 C 
BRANCH  21  22
ATOM     22  C   UNL     1       9.249  11.562  18.502  0.00  0.00    +0.000 A 
ATOM     23  C   UNL     1      10.483  11.446  17.886  0.00  0.00    +0.000 A 
ATOM     24  N   UNL     1      11.156  12.512  17.386  0.00  0.00    +0.000 NA
ATOM     25  C   UNL     1      10.601  13.722  17.516  0.00  0.00    +0.000 A 
ATOM     26  N   UNL     1      11.281  14.766  17.049  0.00  0.00    +0.000 NA
ATOM     27  C   UNL     1      10.743  15.969  17.200  0.00  0.00    +0.000 A 
ATOM     28  N   UNL     1      11.472  17.051  16.765  0.00  0.00    +0.000 N 
ATOM     29  N   UNL     1       9.547  16.209  17.735  0.00  0.00    +0.000 NA
ATOM     30  C   UNL     1       8.877  15.145  18.199  0.00  0.00    +0.000 A 
ATOM     31  N   UNL     1       7.672  15.425  18.865  0.00  0.00    +0.000 N 
ATOM     32  C   UNL     1       9.351  13.841  18.135  0.00  0.00    +0.000 A 
ATOM     33  N   UNL     1       8.655  12.768  18.621  0.00  0.00    +0.000 NA
ATOM     34  H   UNL     1      12.163  16.780  16.081  0.00  0.00    +0.000 HD
ATOM     35  H   UNL     1      10.881  17.844  16.564  0.00  0.00    +0.000 HD
ATOM     36  H   UNL     1       7.403  16.389  18.703  0.00  0.00    +0.000 HD
ATOM     37  H   UNL     1       6.958  14.734  18.664  0.00  0.00    +0.000 HD
ENDBRANCH  21  22
ENDBRANCH   1  21
TORSDOF 6
ENDMDL
MODEL 4
REMARK VINA RESULT:      -8.4      1.459      2.065
REMARK  Name = 
REMARK  7 active torsions:
REMARK  status: ('A' for Active; 'I' for Inactive)
REMARK    1  A    between atoms: C_1  and  O_2
REMARK    2  A    between atoms: O_2  and  C_3
REMARK    3  A    between atoms: C_3  and  C_5
REMARK    4  A    between atoms: C_9  and  C_11
REMARK    5  A    between atoms: C_14  and  N_15
REMARK    6  A    between atoms: N_15  and  C_16
REMARK    7  A    between atoms: C_16  and  C_17
REMARK                            x       y       z     vdW  Elec       q    Type
REMARK                         _______ _______ _______ _____ _____    ______ ____
ROOT
ATOM      1  N   UNL     1       9.075   9.722  18.266  0.00  0.00    +0.000 N 
ATOM      2  H   UNL     1       9.034  10.284  17.413  0.00  0.00    +0.000 HD
ENDROOT
BRANCH   1   6
ATOM      3  C   UNL     1       6.799   6.267  17.763  0.00  0.00    +0.000 A 
ATOM      4  C   UNL     1       7.790   6.293  18.736  0.00  0.00    +0.000 A 
ATOM      5  C   UNL     1       8.537   7.462  18.897  0.00  0.00    +0.000 A 
ATOM      6  C   UNL     1       8.266   8.588  18.116  0.00  0.00    +0.000 A 
ATOM      7  C   UNL     1       7.245   8.453  17.176  0.00  0.00    +0.000 A 
ATOM      8  N   UNL     1       6.490   7.348  17.008  0.00  0.00    +0.000 NA
BRANCH   3  13
ATOM      9  C   UNL     1       1.903   4.598  18.178  0.00  0.00    +0.000 C 
ATOM     10  C   UNL     1       2.765   3.631  17.357  0.00  0.00    +0.000 C 
ATOM     11  C   UNL     1       4.163   3.463  17.946  0.00  0.00    +0.000 C 
ATOM     12  N   UNL     1       4.805   4.761  18.124  0.00  0.00    +0.000 N 
ATOM     13  C   UNL     1       6.048   4.991  17.513  0.00  0.00    +0.000 C 
ATOM     14  O   UNL     1       6.549   4.188  16.726  0.00  0.00    +0.000 OA
ATOM     15  C   UNL     1       4.059   5.699  18.967  0.00  0.00    +0.000 C 
ATOM     16  C   UNL     1       2.645   5.910  18.439  0.00  0.00    +0.000 C 
BRANCH   9  17
ATOM     17  C   UNL     1       1.420   3.962  19.472  0.00  0.00    +0.000 C 
ATOM     18  O   UNL     1       0.592   3.067  19.556  0.00  0.00    +0.000 OA
BRANCH  17  20
ATOM     19  C   UNL     1       2.178   3.659  21.669  0.00  0.00    +0.000 C 
ATOM     20  O   UNL     1       2.082   4.510  20.528  0.00  0.00    +0.000 OA
ENDBRANCH  17  20
ENDBRANCH   9  17
ENDBRANCH   3  13
ENDBRANCH   1   6
BRANCH   1  21
ATOM     21  C   UNL     1       8.813  10.557  19.443  0.00  0.00    +0.000 C 
BRANCH  21  22
ATOM     22  C   UNL     1       9.202  11.988  19.186  0.00  0.00    +0.000 A 
ATOM     23  C   UNL     1       8.591  13.027  19.866  0.00  0.00    +0.000 A 
ATOM     24  N   UNL     1       8.855  14.331  19.603  0.00  0.00    +0.000 NA
ATOM     25  C   UNL     1       9.730  14.610  18.631  0.00  0.00    +0.000 A 
ATOM     26  N   UNL     1       9.962  15.892  18.360  0.00  0.00    +0.000 NA
ATOM     27  C   UNL     1      10.811  16.170  17.379  0.00  0.00    +0.000 A 
ATOM     28  N   UNL     1      11.007  17.494  17.064  0.00  0.00    +0.000 N 
ATOM     29  N   UNL     1      11.494  15.265  16.681  0.00  0.00    +0.000 NA
ATOM     30  C   UNL     1      11.248  13.979  16.969  0.00  0.00    +0.000 A 
ATOM     31  N   UNL     1      11.886  13.036  16.146  0.00  0.00    +0.000 N 
ATOM     32  C   UNL     1      10.352  13.561  17.945  0.00  0.00    +0.000 A 
ATOM     33  N   UNL     1      10.110  12.242  18.220  0.00  0.00    +0.000 NA
ATOM     34  H   UNL     1      10.752  18.099  17.832  0.00  0.00    +0.000 HD
ATOM     35  H   UNL     1      11.896  17.644  16.610  0.00  0.00    +0.000 HD
ATOM     36  H   UNL     1      12.600  13.490  15.588  0.00  0.00    +0.000 HD
ATOM     37  H   UNL     1      12.193  12.223  16.668  0.00  0.00    +0.000 HD
ENDBRANCH  21  22
ENDBRANCH   1  21
TORSDOF 6
ENDMDL
MODEL 5
REMARK VINA RESULT:      -8.3      7.605      9.538
REMARK  Name = 
REMARK  7 active torsions:
REMARK  status: ('A' for Active; 'I' for Inactive)
REMARK    1  A    between atoms: C_1  and  O_2
REMARK    2  A    between atoms: O_2  and  C_3
REMARK    3  A    between atoms: C_3  and  C_5
REMARK    4  A    between atoms: C_9  and  C_11
REMARK    5  A    between atoms: C_14  and  N_15
REMARK    6  A    between atoms: N_15  and  C_16
REMARK    7  A    between atoms: C_16  and  C_17
REMARK                            x       y       z     vdW  Elec       q    Type
REMARK                         _______ _______ _______ _____ _____    ______ ____
ROOT
ATOM      1  N   UNL     1       0.369  10.881  19.355  0.00  0.00    +0.000 N 
ATOM      2  H   UNL     1      -0.634  10.684  19.375  0.00  0.00    +0.000 HD
ENDROOT
BRANCH   1   6
ATOM      3  C   UNL     1       2.348   7.257  18.789  0.00  0.00    +0.000 A 
ATOM      4  C   UNL     1       2.162   8.107  17.706  0.00  0.00    +0.000 A 
ATOM      5  C   UNL     1       1.505   9.322  17.916  0.00  0.00    +0.000 A 
ATOM      6  C   UNL     1       1.076   9.682  19.195  0.00  0.00    +0.000 A 
ATOM      7  C   UNL     1       1.320   8.757  20.209  0.00  0.00    +0.000 A 
ATOM      8  N   UNL     1       1.970   7.585  20.047  0.00  0.00    +0.000 NA
BRANCH   3  13
ATOM      9  C   UNL     1       6.852   5.400  17.002  0.00  0.00    +0.000 C 
ATOM     10  C   UNL     1       6.037   4.318  17.722  0.00  0.00    +0.000 C 
ATOM     11  C   UNL     1       4.547   4.412  17.405  0.00  0.00    +0.000 C 
ATOM     12  N   UNL     1       4.048   5.755  17.679  0.00  0.00    +0.000 N 
ATOM     13  C   UNL     1       2.970   5.909  18.566  0.00  0.00    +0.000 C 
ATOM     14  O   UNL     1       2.521   4.967  19.220  0.00  0.00    +0.000 OA
ATOM     15  C   UNL     1       4.741   6.823  16.955  0.00  0.00    +0.000 C 
ATOM     16  C   UNL     1       6.242   6.785  17.222  0.00  0.00    +0.000 C 
BRANCH   9  17
ATOM     17  C   UNL     1       7.018   5.090  15.523  0.00  0.00    +0.000 C 
ATOM     18  O   UNL     1       7.775   5.669  14.758  0.00  0.00    +0.000 OA
BRANCH  17  20
ATOM     19  C   UNL     1       6.119   3.807  13.779  0.00  0.00    +0.000 C 
ATOM     20  O   UNL     1       6.226   4.036  15.184  0.00  0.00    +0.000 OA
ENDBRANCH  17  20
ENDBRANCH   9  17
ENDBRANCH   3  13
ENDBRANCH   1   6
BRANCH   1  21
ATOM     21  C   UNL     1       0.751  11.713  20.501  0.00  0.00    +0.000 C 
BRANCH  21  22
ATOM     22  C   UNL     1      -0.412  11.907  21.437  0.00  0.00    +0.000 A 
ATOM     23  C   UNL     1      -0.598  11.073  22.525  0.00  0.00    +0.000 A 
ATOM     24  N   UNL     1      -1.677  11.163  23.342  0.00  0.00    +0.000 NA
ATOM     25  C   UNL     1      -2.600  12.090  23.062  0.00  0.00    +0.000 A 
ATOM     26  N   UNL     1      -3.669  12.153  23.851  0.00  0.00    +0.000 NA
ATOM     27  C   UNL     1      -4.597  13.056  23.560  0.00  0.00    +0.000 A 
ATOM     28  N   UNL     1      -5.726  13.083  24.344  0.00  0.00    +0.000 N 
ATOM     29  N   UNL     1      -4.515  13.942  22.569  0.00  0.00    +0.000 NA
ATOM     30  C   UNL     1      -3.430  13.864  21.786  0.00  0.00    +0.000 A 
ATOM     31  N   UNL     1      -3.415  14.726  20.677  0.00  0.00    +0.000 N 
ATOM     32  C   UNL     1      -2.411  12.938  21.965  0.00  0.00    +0.000 A 
ATOM     33  N   UNL     1      -1.314  12.869  21.149  0.00  0.00    +0.000 NA
ATOM     34  H   UNL     1      -5.562  12.654  25.244  0.00  0.00    +0.000 HD
ATOM     35  H   UNL     1      -6.179  13.984  24.317  0.00  0.00    +0.000 HD
ATOM     36  H   UNL     1      -4.146  15.422  20.768  0.00  0.00    +0.000 HD
ATOM     37  H   UNL     1      -2.486  15.092  20.495  0.00  0.00    +0.000 HD
ENDBRANCH  21  22
ENDBRANCH   1  21
TORSDOF 6
ENDMDL
MODEL 6
REMARK VINA RESULT:      -8.2      7.429      9.740
REMARK  Name = 
REMARK  7 active torsions:
REMARK  status: ('A' for Active; 'I' for Inactive)
REMARK    1  A    between atoms: C_1  and  O_2
REMARK    2  A    between atoms: O_2  and  C_3
REMARK    3  A    between atoms: C_3  and  C_5
REMARK    4  A    between atoms: C_9  and  C_11
REMARK    5  A    between atoms: C_14  and  N_15
REMARK    6  A    between atoms: N_15  and  C_16
REMARK    7  A    between atoms: C_16  and  C_17
REMARK                            x       y       z     vdW  Elec       q    Type
REMARK                         _______ _______ _______ _____ _____    ______ ____
ROOT
ATOM      1  N   UNL     1       0.659  10.773  19.655  0.00  0.00    +0.000 N 
ATOM      2  H   UNL     1      -0.293  10.795  19.284  0.00  0.00    +0.000 HD
ENDROOT
BRANCH   1   6
ATOM      3  C   UNL     1       2.298   7.086  18.614  0.00  0.00    +0.000 A 
ATOM      4  C   UNL     1       2.062   8.029  17.622  0.00  0.00    +0.000 A 
ATOM      5  C   UNL     1       1.521   9.263  17.990  0.00  0.00    +0.000 A 
ATOM      6  C   UNL     1       1.257   9.547  19.331  0.00  0.00    +0.000 A 
ATOM      7  C   UNL     1       1.539   8.531  20.243  0.00  0.00    +0.000 A 
ATOM      8  N   UNL     1       2.081   7.337  19.926  0.00  0.00    +0.000 NA
BRANCH   3  13
ATOM      9  C   UNL     1       6.739   4.993  16.932  0.00  0.00    +0.000 C 
ATOM     10  C   UNL     1       5.745   3.920  17.396  0.00  0.00    +0.000 C 
ATOM     11  C   UNL     1       4.314   4.240  16.975  0.00  0.00    +0.000 C 
ATOM     12  N   UNL     1       3.934   5.576  17.421  0.00  0.00    +0.000 N 
ATOM     13  C   UNL     1       2.794   5.722  18.228  0.00  0.00    +0.000 C 
ATOM     14  O   UNL     1       2.184   4.752  18.680  0.00  0.00    +0.000 OA
ATOM     15  C   UNL     1       4.807   6.651  16.941  0.00  0.00    +0.000 C 
ATOM     16  C   UNL     1       6.260   6.392  17.322  0.00  0.00    +0.000 C 
BRANCH   9  17
ATOM     17  C   UNL     1       7.021   4.893  15.441  0.00  0.00    +0.000 C 
ATOM     18  O   UNL     1       7.709   5.672  14.796  0.00  0.00    +0.000 OA
BRANCH  17  20
ATOM     19  C   UNL     1       6.176   3.829  13.532  0.00  0.00    +0.000 C 
ATOM     20  O   UNL     1       6.427   3.778  14.935  0.00  0.00    +0.000 OA
ENDBRANCH  17  20
ENDBRANCH   9  17
ENDBRANCH   3  13
ENDBRANCH   1   6
BRANCH   1  21
ATOM     21  C   UNL     1       0.667  11.146  21.073  0.00  0.00    +0.000 C 
BRANCH  21  22
ATOM     22  C   UNL     1      -0.689  11.631  21.509  0.00  0.00    +0.000 A 
ATOM     23  C   UNL     1      -1.022  11.706  22.850  0.00  0.00    +0.000 A 
ATOM     24  N   UNL     1      -2.259  12.058  23.281  0.00  0.00    +0.000 NA
ATOM     25  C   UNL     1      -3.192  12.322  22.359  0.00  0.00    +0.000 A 
ATOM     26  N   UNL     1      -4.411  12.638  22.789  0.00  0.00    +0.000 NA
ATOM     27  C   UNL     1      -5.343  12.875  21.875  0.00  0.00    +0.000 A 
ATOM     28  N   UNL     1      -6.616  13.148  22.321  0.00  0.00    +0.000 N 
ATOM     29  N   UNL     1      -5.140  12.877  20.559  0.00  0.00    +0.000 NA
ATOM     30  C   UNL     1      -3.906  12.558  20.146  0.00  0.00    +0.000 A 
ATOM     31  N   UNL     1      -3.737  12.448  18.755  0.00  0.00    +0.000 N 
ATOM     32  C   UNL     1      -2.857  12.250  21.002  0.00  0.00    +0.000 A 
ATOM     33  N   UNL     1      -1.604  11.920  20.560  0.00  0.00    +0.000 NA
ATOM     34  H   UNL     1      -6.611  13.472  23.278  0.00  0.00    +0.000 HD
ATOM     35  H   UNL     1      -7.147  13.670  21.640  0.00  0.00    +0.000 HD
ATOM     36  H   UNL     1      -4.543  12.835  18.277  0.00  0.00    +0.000 HD
ATOM     37  H   UNL     1      -2.837  12.806  18.453  0.00  0.00    +0.000 HD
ENDBRANCH  21  22
ENDBRANCH   1  21
TORSDOF 6
ENDMDL
MODEL 7
REMARK VINA RESULT:      -8.1      1.290      1.575
REMARK  Name = 
REMARK  7 active torsions:
REMARK  status: ('A' for Active; 'I' for Inactive)
REMARK    1  A    between atoms: C_1  and  O_2
REMARK    2  A    between atoms: O_2  and  C_3
REMARK    3  A    between atoms: C_3  and  C_5
REMARK    4  A    between atoms: C_9  and  C_11
REMARK    5  A    between atoms: C_14  and  N_15
REMARK    6  A    between atoms: N_15  and  C_16
REMARK    7  A    between atoms: C_16  and  C_17
REMARK                            x       y       z     vdW  Elec       q    Type
REMARK                         _______ _______ _______ _____ _____    ______ ____
ROOT
ATOM      1  N   UNL     1       8.556   9.735  17.945  0.00  0.00    +0.000 N 
ATOM      2  H   UNL     1       7.949  10.514  17.679  0.00  0.00    +0.000 HD
ENDROOT
BRANCH   1   6
ATOM      3  C   UNL     1       6.557   6.095  17.597  0.00  0.00    +0.000 A 
ATOM      4  C   UNL     1       7.626   6.202  18.478  0.00  0.00    +0.000 A 
ATOM      5  C   UNL     1       8.278   7.432  18.589  0.00  0.00    +0.000 A 
ATOM      6  C   UNL     1       7.839   8.534  17.852  0.00  0.00    +0.000 A 
ATOM      7  C   UNL     1       6.755   8.316  17.004  0.00  0.00    +0.000 A 
ATOM      8  N   UNL     1       6.088   7.148  16.888  0.00  0.00    +0.000 NA
BRANCH   3  13
ATOM      9  C   UNL     1       1.778   4.111  17.988  0.00  0.00    +0.000 C 
ATOM     10  C   UNL     1       2.726   3.166  17.238  0.00  0.00    +0.000 C 
ATOM     11  C   UNL     1       4.116   3.127  17.866  0.00  0.00    +0.000 C 
ATOM     12  N   UNL     1       4.662   4.473  17.991  0.00  0.00    +0.000 N 
ATOM     13  C   UNL     1       5.902   4.759  17.397  0.00  0.00    +0.000 C 
ATOM     14  O   UNL     1       6.478   3.953  16.665  0.00  0.00    +0.000 OA
ATOM     15  C   UNL     1       3.832   5.398  18.767  0.00  0.00    +0.000 C 
ATOM     16  C   UNL     1       2.421   5.483  18.196  0.00  0.00    +0.000 C 
BRANCH   9  17
ATOM     17  C   UNL     1       1.306   3.509  19.302  0.00  0.00    +0.000 C 
ATOM     18  O   UNL     1       0.555   2.551  19.413  0.00  0.00    +0.000 OA
BRANCH  17  20
ATOM     19  C   UNL     1       2.057   3.381  21.518  0.00  0.00    +0.000 C 
ATOM     20  O   UNL     1       1.881   4.171  20.343  0.00  0.00    +0.000 OA
ENDBRANCH  17  20
ENDBRANCH   9  17
ENDBRANCH   3  13
ENDBRANCH   1   6
BRANCH   1  21
ATOM     21  C   UNL     1       9.204  10.007  19.232  0.00  0.00    +0.000 C 
BRANCH  21  22
ATOM     22  C   UNL     1       9.904  11.340  19.212  0.00  0.00    +0.000 A 
ATOM     23  C   UNL     1      11.281  11.424  19.318  0.00  0.00    +0.000 A 
ATOM     24  N   UNL     1      11.940  12.607  19.387  0.00  0.00    +0.000 NA
ATOM     25  C   UNL     1      11.215  13.731  19.369  0.00  0.00    +0.000 A 
ATOM     26  N   UNL     1      11.867  14.887  19.466  0.00  0.00    +0.000 NA
ATOM     27  C   UNL     1      11.147  16.001  19.474  0.00  0.00    +0.000 A 
ATOM     28  N   UNL     1      11.819  17.191  19.629  0.00  0.00    +0.000 N 
ATOM     29  N   UNL     1       9.824  16.056  19.335  0.00  0.00    +0.000 NA
ATOM     30  C   UNL     1       9.185  14.882  19.237  0.00  0.00    +0.000 A 
ATOM     31  N   UNL     1       7.782  14.951  19.211  0.00  0.00    +0.000 N 
ATOM     32  C   UNL     1       9.823  13.648  19.257  0.00  0.00    +0.000 A 
ATOM     33  N   UNL     1       9.151  12.459  19.163  0.00  0.00    +0.000 NA
ATOM     34  H   UNL     1      12.792  17.102  19.374  0.00  0.00    +0.000 HD
ATOM     35  H   UNL     1      11.294  17.969  19.257  0.00  0.00    +0.000 HD
ATOM     36  H   UNL     1       7.485  15.909  19.062  0.00  0.00    +0.000 HD
ATOM     37  H   UNL     1       7.381  14.267  18.578  0.00  0.00    +0.000 HD
ENDBRANCH  21  22
ENDBRANCH   1  21
TORSDOF 6
ENDMDL
MODEL 8
REMARK VINA RESULT:      -8.1      6.815      9.905
REMARK  Name = 
REMARK  7 active torsions:
REMARK  status: ('A' for Active; 'I' for Inactive)
REMARK    1  A    between atoms: C_1  and  O_2
REMARK    2  A    between atoms: O_2  and  C_3
REMARK    3  A    between atoms: C_3  and  C_5
REMARK    4  A    between atoms: C_9  and  C_11
REMARK    5  A    between atoms: C_14  and  N_15
REMARK    6  A    between atoms: N_15  and  C_16
REMARK    7  A    between atoms: C_16  and  C_17
REMARK                            x       y       z     vdW  Elec       q    Type
REMARK                         _______ _______ _______ _____ _____    ______ ____
ROOT
ATOM      1  N   UNL     1       0.856  10.334  20.180  0.00  0.00    +0.000 N 
ATOM      2  H   UNL     1       1.464  10.719  20.906  0.00  0.00    +0.000 HD
ENDROOT
BRANCH   1   6
ATOM      3  C   UNL     1       2.459   6.654  19.058  0.00  0.00    +0.000 A 
ATOM      4  C   UNL     1       2.000   6.828  20.357  0.00  0.00    +0.000 A 
ATOM      5  C   UNL     1       1.457   8.064  20.714  0.00  0.00    +0.000 A 
ATOM      6  C   UNL     1       1.352   9.088  19.770  0.00  0.00    +0.000 A 
ATOM      7  C   UNL     1       1.838   8.803  18.495  0.00  0.00    +0.000 A 
ATOM      8  N   UNL     1       2.348   7.615  18.111  0.00  0.00    +0.000 NA
BRANCH   3  13
ATOM      9  C   UNL     1       6.909   5.193  16.823  0.00  0.00    +0.000 C 
ATOM     10  C   UNL     1       6.201   4.014  17.503  0.00  0.00    +0.000 C 
ATOM     11  C   UNL     1       4.690   4.053  17.295  0.00  0.00    +0.000 C 
ATOM     12  N   UNL     1       4.147   5.340  17.714  0.00  0.00    +0.000 N 
ATOM     13  C   UNL     1       3.129   5.364  18.682  0.00  0.00    +0.000 C 
ATOM     14  O   UNL     1       2.774   4.349  19.282  0.00  0.00    +0.000 OA
ATOM     15  C   UNL     1       4.734   6.500  17.038  0.00  0.00    +0.000 C 
ATOM     16  C   UNL     1       6.250   6.521  17.199  0.00  0.00    +0.000 C 
BRANCH   9  17
ATOM     17  C   UNL     1       6.984   5.012  15.316  0.00  0.00    +0.000 C 
ATOM     18  O   UNL     1       7.723   5.631  14.563  0.00  0.00    +0.000 OA
BRANCH  17  20
ATOM     19  C   UNL     1       6.146   3.748  13.529  0.00  0.00    +0.000 C 
ATOM     20  O   UNL     1       6.134   4.022  14.930  0.00  0.00    +0.000 OA
ENDBRANCH  17  20
ENDBRANCH   9  17
ENDBRANCH   3  13
ENDBRANCH   1   6
BRANCH   1  21
ATOM     21  C   UNL     1       0.629  11.323  19.122  0.00  0.00    +0.000 C 
BRANCH  21  22
ATOM     22  C   UNL     1      -0.841  11.601  18.951  0.00  0.00    +0.000 A 
ATOM     23  C   UNL     1      -1.600  12.095  19.997  0.00  0.00    +0.000 A 
ATOM     24  N   UNL     1      -2.941  12.279  19.908  0.00  0.00    +0.000 NA
ATOM     25  C   UNL     1      -3.544  11.947  18.761  0.00  0.00    +0.000 A 
ATOM     26  N   UNL     1      -4.863  12.103  18.691  0.00  0.00    +0.000 NA
ATOM     27  C   UNL     1      -5.466  11.751  17.563  0.00  0.00    +0.000 A 
ATOM     28  N   UNL     1      -6.836  11.862  17.512  0.00  0.00    +0.000 N 
ATOM     29  N   UNL     1      -4.845  11.305  16.473  0.00  0.00    +0.000 NA
ATOM     30  C   UNL     1      -3.516  11.155  16.562  0.00  0.00    +0.000 A 
ATOM     31  N   UNL     1      -2.891  10.573  15.447  0.00  0.00    +0.000 N 
ATOM     32  C   UNL     1      -2.778  11.451  17.700  0.00  0.00    +0.000 A 
ATOM     33  N   UNL     1      -1.421  11.285  17.774  0.00  0.00    +0.000 NA
ATOM     34  H   UNL     1      -7.180  12.514  18.203  0.00  0.00    +0.000 HD
ATOM     35  H   UNL     1      -7.170  11.947  16.564  0.00  0.00    +0.000 HD
ATOM     36  H   UNL     1      -3.534  10.549  14.663  0.00  0.00    +0.000 HD
ATOM     37  H   UNL     1      -1.988  10.993  15.256  0.00  0.00    +0.000 HD
ENDBRANCH  21  22
ENDBRANCH   1  21
TORSDOF 6
ENDMDL
MODEL 9
REMARK VINA RESULT:      -7.9      1.012      1.166
REMARK  Name = 
REMARK  7 active torsions:
REMARK  status: ('A' for Active; 'I' for Inactive)
REMARK    1  A    between atoms: C_1  and  O_2
REMARK    2  A    between atoms: O_2  and  C_3
REMARK    3  A    between atoms: C_3  and  C_5
REMARK    4  A    between atoms: C_9  and  C_11
REMARK    5  A    between atoms: C_14  and  N_15
REMARK    6  A    between atoms: N_15  and  C_16
REMARK    7  A    between atoms: C_16  and  C_17
REMARK                            x       y       z     vdW  Elec       q    Type
REMARK                         _______ _______ _______ _____ _____    ______ ____
ROOT
ATOM      1  N   UNL     1       8.927   9.308  18.944  0.00  0.00    +0.000 N 
ATOM      2  H   UNL     1       9.866   9.066  19.268  0.00  0.00    +0.000 HD
ENDROOT
BRANCH   1   6
ATOM      3  C   UNL     1       6.810   5.919  17.760  0.00  0.00    +0.000 A 
ATOM      4  C   UNL     1       6.652   7.102  17.049  0.00  0.00    +0.000 A 
ATOM      5  C   UNL     1       7.376   8.226  17.455  0.00  0.00    +0.000 A 
ATOM      6  C   UNL     1       8.263   8.145  18.531  0.00  0.00    +0.000 A 
ATOM      7  C   UNL     1       8.348   6.908  19.167  0.00  0.00    +0.000 A 
ATOM      8  N   UNL     1       7.681   5.797  18.789  0.00  0.00    +0.000 NA
BRANCH   3  13
ATOM      9  C   UNL     1       1.800   4.585  17.978  0.00  0.00    +0.000 C 
ATOM     10  C   UNL     1       2.605   3.627  17.090  0.00  0.00    +0.000 C 
ATOM     11  C   UNL     1       3.976   3.310  17.680  0.00  0.00    +0.000 C 
ATOM     12  N   UNL     1       4.706   4.538  17.972  0.00  0.00    +0.000 N 
ATOM     13  C   UNL     1       5.973   4.726  17.396  0.00  0.00    +0.000 C 
ATOM     14  O   UNL     1       6.430   3.954  16.552  0.00  0.00    +0.000 OA
ATOM     15  C   UNL     1       4.015   5.457  18.881  0.00  0.00    +0.000 C 
ATOM     16  C   UNL     1       2.630   5.814  18.354  0.00  0.00    +0.000 C 
BRANCH   9  17
ATOM     17  C   UNL     1       1.249   3.883  19.209  0.00  0.00    +0.000 C 
ATOM     18  O   UNL     1       1.026   4.415  20.287  0.00  0.00    +0.000 OA
BRANCH  17  20
ATOM     19  C   UNL     1       1.674   1.645  19.760  0.00  0.00    +0.000 C 
ATOM     20  O   UNL     1       0.996   2.578  18.919  0.00  0.00    +0.000 OA
ENDBRANCH  17  20
ENDBRANCH   9  17
ENDBRANCH   3  13
ENDBRANCH   1   6
BRANCH   1  21
ATOM     21  C   UNL     1       8.985  10.404  17.972  0.00  0.00    +0.000 C 
BRANCH  21  22
ATOM     22  C   UNL     1       9.687  11.602  18.553  0.00  0.00    +0.000 A 
ATOM     23  C   UNL     1      10.617  11.461  19.568  0.00  0.00    +0.000 A 
ATOM     24  N   UNL     1      11.209  12.520  20.174  0.00  0.00    +0.000 NA
ATOM     25  C   UNL     1      10.856  13.748  19.776  0.00  0.00    +0.000 A 
ATOM     26  N   UNL     1      11.419  14.782  20.395  0.00  0.00    +0.000 NA
ATOM     27  C   UNL     1      11.050  16.000  20.018  0.00  0.00    +0.000 A 
ATOM     28  N   UNL     1      11.593  17.066  20.696  0.00  0.00    +0.000 N 
ATOM     29  N   UNL     1      10.200  16.269  19.029  0.00  0.00    +0.000 NA
ATOM     30  C   UNL     1       9.644  15.213  18.416  0.00  0.00    +0.000 A 
ATOM     31  N   UNL     1       8.663  15.512  17.457  0.00  0.00    +0.000 N 
ATOM     32  C   UNL     1       9.918  13.893  18.747  0.00  0.00    +0.000 A 
ATOM     33  N   UNL     1       9.335  12.829  18.114  0.00  0.00    +0.000 NA
ATOM     34  H   UNL     1      12.454  16.812  21.158  0.00  0.00    +0.000 HD
ATOM     35  H   UNL     1      11.577  17.910  20.141  0.00  0.00    +0.000 HD
ATOM     36  H   UNL     1       8.683  16.502  17.236  0.00  0.00    +0.000 HD
ATOM     37  H   UNL     1       8.710  14.887  16.659  0.00  0.00    +0.000 HD
ENDBRANCH  21  22
ENDBRANCH   1  21
TORSDOF 6
ENDMDL
