MODEL 1
REMARK VINA RESULT:      -8.6      0.000      0.000
REMARK  Name = 
REMARK  4 active torsions:
REMARK  status: ('A' for Active; 'I' for Inactive)
REMARK    1  A    between atoms: O_1  and  C_2
REMARK    2  A    between atoms: C_2  and  C_3
REMARK    3  A    between atoms: C_3  and  N_4
REMARK    4  A    between atoms: C_15  and  C_16
REMARK                            x       y       z     vdW  Elec       q    Type
REMARK                         _______ _______ _______ _____ _____    ______ ____
ROOT
ATOM      1  C   UNL     1       5.591   4.472  18.377  0.00  0.00    +0.000 C 
ATOM      2  C   UNL     1       7.066   4.867  18.470  0.00  0.00    +0.000 C 
ATOM      3  C   UNL     1       7.453   5.206  17.042  0.00  0.00    +0.000 C 
ATOM      4  N   UNL     1       6.657   4.282  16.240  0.00  0.00    +0.000 N 
ATOM      5  C   UNL     1       6.738   4.389  14.873  0.00  0.00    +0.000 A 
ATOM      6  C   UNL     1       5.908   3.682  14.009  0.00  0.00    +0.000 A 
ATOM      7  C   UNL     1       6.038   3.830  12.617  0.00  0.00    +0.000 A 
ATOM      8  C   UNL     1       7.021   4.686  12.123  0.00  0.00    +0.000 A 
ATOM      9  C   UNL     1       7.812   5.346  13.031  0.00  0.00    +0.000 A 
ATOM     10  N   UNL     1       7.686   5.211  14.368  0.00  0.00    +0.000 NA
ATOM     11  C   UNL     1       5.486   3.810  16.980  0.00  0.00    +0.000 C 
ENDROOT
BRANCH   7  12
ATOM     12  C   UNL     1       5.144   3.096  11.658  0.00  0.00    +0.000 C 
ATOM     13  F   UNL     1       3.895   2.855  12.144  0.00  0.00    +0.000 F 
ATOM     14  F   UNL     1       4.964   3.779  10.493  0.00  0.00    +0.000 F 
ATOM     15  F   UNL     1       5.647   1.882  11.301  0.00  0.00    +0.000 F 
ENDBRANCH   7  12
BRANCH   1  16
ATOM     16  O   UNL     1       5.340   3.464  19.384  0.00  0.00    +0.000 OA
ATOM     17  H   UNL     1       5.314   3.913  20.248  0.00  0.00    +0.000 HD
ENDBRANCH   1  16
BRANCH   1  18
ATOM     18  C   UNL     1       4.601   5.642  18.669  0.00  0.00    +0.000 C 
BRANCH  18  19
ATOM     19  N   UNL     1       3.132   5.457  18.815  0.00  0.00    +0.000 NA
ATOM     20  C   UNL     1       2.639   4.395  17.917  0.00  0.00    +0.000 C 
ATOM     21  C   UNL     1       1.236   3.860  18.211  0.00  0.00    +0.000 C 
ATOM     22  C   UNL     1       1.076   3.485  19.672  0.00  0.00    +0.000 C 
ATOM     23  C   UNL     1       1.424   4.695  20.521  0.00  0.00    +0.000 C 
ATOM     24  C   UNL     1       2.857   5.142  20.238  0.00  0.00    +0.000 C 
ENDBRANCH  18  19
ENDBRANCH   1  18
TORSDOF 4
ENDMDL
MODEL 2
REMARK VINA RESULT:      -8.5      3.250      6.746
REMARK  Name = 
REMARK  4 active torsions:
REMARK  status: ('A' for Active; 'I' for Inactive)
REMARK    1  A    between atoms: O_1  and  C_2
REMARK    2  A    between atoms: C_2  and  C_3
REMARK    3  A    between atoms: C_3  and  N_4
REMARK    4  A    between atoms: C_15  and  C_16
REMARK                            x       y       z     vdW  Elec       q    Type
REMARK                         _______ _______ _______ _____ _____    ______ ____
ROOT
ATOM      1  C   UNL     1       6.930   6.095  17.022  0.00  0.00    +0.000 C 
ATOM      2  C   UNL     1       7.719   5.911  18.321  0.00  0.00    +0.000 C 
ATOM      3  C   UNL     1       6.982   4.803  19.052  0.00  0.00    +0.000 C 
ATOM      4  N   UNL     1       5.585   5.017  18.687  0.00  0.00    +0.000 N 
ATOM      5  C   UNL     1       4.658   4.116  19.149  0.00  0.00    +0.000 A 
ATOM      6  C   UNL     1       3.330   4.119  18.737  0.00  0.00    +0.000 A 
ATOM      7  C   UNL     1       2.425   3.171  19.245  0.00  0.00    +0.000 A 
ATOM      8  C   UNL     1       2.881   2.242  20.179  0.00  0.00    +0.000 A 
ATOM      9  C   UNL     1       4.202   2.301  20.550  0.00  0.00    +0.000 A 
ATOM     10  N   UNL     1       5.075   3.205  20.059  0.00  0.00    +0.000 NA
ATOM     11  C   UNL     1       5.472   5.778  17.443  0.00  0.00    +0.000 C 
ENDROOT
BRANCH   7  12
ATOM     12  C   UNL     1       0.988   3.135  18.805  0.00  0.00    +0.000 C 
ATOM     13  F   UNL     1       0.538   1.887  18.497  0.00  0.00    +0.000 F 
ATOM     14  F   UNL     1       0.143   3.610  19.762  0.00  0.00    +0.000 F 
ATOM     15  F   UNL     1       0.763   3.898  17.699  0.00  0.00    +0.000 F 
ENDBRANCH   7  12
BRANCH   1  16
ATOM     16  O   UNL     1       7.010   7.491  16.652  0.00  0.00    +0.000 OA
ATOM     17  H   UNL     1       7.149   8.003  17.467  0.00  0.00    +0.000 HD
ENDBRANCH   1  16
BRANCH   1  18
ATOM     18  C   UNL     1       7.497   5.286  15.815  0.00  0.00    +0.000 C 
BRANCH  18  19
ATOM     19  N   UNL     1       6.828   5.212  14.489  0.00  0.00    +0.000 NA
ATOM     20  C   UNL     1       7.816   5.235  13.394  0.00  0.00    +0.000 C 
ATOM     21  C   UNL     1       7.305   4.814  12.015  0.00  0.00    +0.000 C 
ATOM     22  C   UNL     1       6.556   3.496  12.075  0.00  0.00    +0.000 C 
ATOM     23  C   UNL     1       5.437   3.623  13.093  0.00  0.00    +0.000 C 
ATOM     24  C   UNL     1       6.011   3.975  14.464  0.00  0.00    +0.000 C 
ENDBRANCH  18  19
ENDBRANCH   1  18
TORSDOF 4
ENDMDL
MODEL 3
REMARK VINA RESULT:      -8.3      0.747      1.158
REMARK  Name = 
REMARK  4 active torsions:
REMARK  status: ('A' for Active; 'I' for Inactive)
REMARK    1  A    between atoms: O_1  and  C_2
REMARK    2  A    between atoms: C_2  and  C_3
REMARK    3  A    between atoms: C_3  and  N_4
REMARK    4  A    between atoms: C_15  and  C_16
REMARK                            x       y       z     vdW  Elec       q    Type
REMARK                         _______ _______ _______ _____ _____    ______ ____
ROOT
ATOM      1  C   UNL     1       5.084   4.847  17.963  0.00  0.00    +0.000 C 
ATOM      2  C   UNL     1       6.414   5.578  18.160  0.00  0.00    +0.000 C 
ATOM      3  C   UNL     1       6.934   5.793  16.750  0.00  0.00    +0.000 C 
ATOM      4  N   UNL     1       6.477   4.609  16.028  0.00  0.00    +0.000 N 
ATOM      5  C   UNL     1       6.740   4.540  14.682  0.00  0.00    +0.000 A 
ATOM      6  C   UNL     1       6.216   3.548  13.860  0.00  0.00    +0.000 A 
ATOM      7  C   UNL     1       6.521   3.527  12.487  0.00  0.00    +0.000 A 
ATOM      8  C   UNL     1       7.369   4.507  11.974  0.00  0.00    +0.000 A 
ATOM      9  C   UNL     1       7.859   5.451  12.843  0.00  0.00    +0.000 A 
ATOM     10  N   UNL     1       7.563   5.478  14.160  0.00  0.00    +0.000 NA
ATOM     11  C   UNL     1       5.332   3.990  16.696  0.00  0.00    +0.000 C 
ENDROOT
BRANCH   7  12
ATOM     12  C   UNL     1       5.955   2.481  11.569  0.00  0.00    +0.000 C 
ATOM     13  F   UNL     1       6.846   2.014  10.651  0.00  0.00    +0.000 F 
ATOM     14  F   UNL     1       5.510   1.385  12.246  0.00  0.00    +0.000 F 
ATOM     15  F   UNL     1       4.887   2.935  10.856  0.00  0.00    +0.000 F 
ENDBRANCH   7  12
BRANCH   1  16
ATOM     16  O   UNL     1       4.898   3.959  19.090  0.00  0.00    +0.000 OA
ATOM     17  H   UNL     1       3.940   3.852  19.224  0.00  0.00    +0.000 HD
ENDBRANCH   1  16
BRANCH   1  18
ATOM     18  C   UNL     1       3.841   5.787  17.934  0.00  0.00    +0.000 C 
BRANCH  18  19
ATOM     19  N   UNL     1       2.498   5.389  18.436  0.00  0.00    +0.000 NA
ATOM     20  C   UNL     1       2.116   4.058  17.928  0.00  0.00    +0.000 C 
ATOM     21  C   UNL     1       0.940   3.378  18.633  0.00  0.00    +0.000 C 
ATOM     22  C   UNL     1       1.117   3.380  20.140  0.00  0.00    +0.000 C 
ATOM     23  C   UNL     1       1.318   4.813  20.600  0.00  0.00    +0.000 C 
ATOM     24  C   UNL     1       2.544   5.417  19.918  0.00  0.00    +0.000 C 
ENDBRANCH  18  19
ENDBRANCH   1  18
TORSDOF 4
ENDMDL
MODEL 4
REMARK VINA RESULT:      -8.1      1.925      2.660
REMARK  Name = 
REMARK  4 active torsions:
REMARK  status: ('A' for Active; 'I' for Inactive)
REMARK    1  A    between atoms: O_1  and  C_2
REMARK    2  A    between atoms: C_2  and  C_3
REMARK    3  A    between atoms: C_3  and  N_4
REMARK    4  A    between atoms: C_15  and  C_16
REMARK                            x       y       z     vdW  Elec       q    Type
REMARK                         _______ _______ _______ _____ _____    ______ ____
ROOT
ATOM      1  C   UNL     1       3.086   3.408  18.913  0.00  0.00    +0.000 C 
ATOM      2  C   UNL     1       4.361   3.612  19.734  0.00  0.00    +0.000 C 
ATOM      3  C   UNL     1       5.351   4.202  18.746  0.00  0.00    +0.000 C 
ATOM      4  N   UNL     1       5.002   3.562  17.482  0.00  0.00    +0.000 N 
ATOM      5  C   UNL     1       5.691   3.947  16.358  0.00  0.00    +0.000 A 
ATOM      6  C   UNL     1       5.340   3.533  15.077  0.00  0.00    +0.000 A 
ATOM      7  C   UNL     1       6.084   3.959  13.963  0.00  0.00    +0.000 A 
ATOM      8  C   UNL     1       7.185   4.789  14.170  0.00  0.00    +0.000 A 
ATOM      9  C   UNL     1       7.482   5.151  15.461  0.00  0.00    +0.000 A 
ATOM     10  N   UNL     1       6.766   4.749  16.532  0.00  0.00    +0.000 NA
ATOM     11  C   UNL     1       3.623   3.072  17.498  0.00  0.00    +0.000 C 
ENDROOT
BRANCH   7  12
ATOM     12  C   UNL     1       5.719   3.545  12.565  0.00  0.00    +0.000 C 
ATOM     13  F   UNL     1       5.874   2.214  12.327  0.00  0.00    +0.000 F 
ATOM     14  F   UNL     1       4.420   3.828  12.266  0.00  0.00    +0.000 F 
ATOM     15  F   UNL     1       6.464   4.184  11.621  0.00  0.00    +0.000 F 
ENDBRANCH   7  12
BRANCH   1  16
ATOM     16  O   UNL     1       2.407   2.242  19.436  0.00  0.00    +0.000 OA
ATOM     17  H   UNL     1       1.711   2.555  20.039  0.00  0.00    +0.000 HD
ENDBRANCH   1  16
BRANCH   1  18
ATOM     18  C   UNL     1       2.072   4.589  19.010  0.00  0.00    +0.000 C 
BRANCH  18  19
ATOM     19  N   UNL     1       2.474   5.998  19.265  0.00  0.00    +0.000 NA
ATOM     20  C   UNL     1       2.389   6.805  18.034  0.00  0.00    +0.000 C 
ATOM     21  C   UNL     1       2.429   8.324  18.217  0.00  0.00    +0.000 C 
ATOM     22  C   UNL     1       1.435   8.785  19.267  0.00  0.00    +0.000 C 
ATOM     23  C   UNL     1       1.717   8.038  20.558  0.00  0.00    +0.000 C 
ATOM     24  C   UNL     1       1.595   6.532  20.332  0.00  0.00    +0.000 C 
ENDBRANCH  18  19
ENDBRANCH   1  18
TORSDOF 4
ENDMDL
MODEL 5
REMARK VINA RESULT:      -7.8      2.015      2.360
REMARK  Name = 
REMARK  4 active torsions:
REMARK  status: ('A' for Active; 'I' for Inactive)
REMARK    1  A    between atoms: O_1  and  C_2
REMARK    2  A    between atoms: C_2  and  C_3
REMARK    3  A    between atoms: C_3  and  N_4
REMARK    4  A    between atoms: C_15  and  C_16
REMARK                            x       y       z     vdW  Elec       q    Type
REMARK                         _______ _______ _______ _____ _____    ______ ____
ROOT
ATOM      1  C   UNL     1       4.009   4.757  18.184  0.00  0.00    +0.000 C 
ATOM      2  C   UNL     1       5.311   5.364  18.710  0.00  0.00    +0.000 C 
ATOM      3  C   UNL     1       6.119   5.657  17.459  0.00  0.00    +0.000 C 
ATOM      4  N   UNL     1       5.751   4.578  16.548  0.00  0.00    +0.000 N 
ATOM      5  C   UNL     1       6.277   4.603  15.280  0.00  0.00    +0.000 A 
ATOM      6  C   UNL     1       5.875   3.728  14.277  0.00  0.00    +0.000 A 
ATOM      7  C   UNL     1       6.451   3.800  12.996  0.00  0.00    +0.000 A 
ATOM      8  C   UNL     1       7.441   4.753  12.760  0.00  0.00    +0.000 A 
ATOM      9  C   UNL     1       7.798   5.578  13.798  0.00  0.00    +0.000 A 
ATOM     10  N   UNL     1       7.243   5.516  15.026  0.00  0.00    +0.000 NA
ATOM     11  C   UNL     1       4.459   3.994  16.912  0.00  0.00    +0.000 C 
ENDROOT
BRANCH   7  12
ATOM     12  C   UNL     1       6.023   2.883  11.885  0.00  0.00    +0.000 C 
ATOM     13  F   UNL     1       5.596   1.663  12.313  0.00  0.00    +0.000 F 
ATOM     14  F   UNL     1       4.997   3.401  11.154  0.00  0.00    +0.000 F 
ATOM     15  F   UNL     1       7.026   2.638  10.996  0.00  0.00    +0.000 F 
ENDBRANCH   7  12
BRANCH   1  16
ATOM     16  O   UNL     1       3.546   3.793  19.159  0.00  0.00    +0.000 OA
ATOM     17  H   UNL     1       4.317   3.272  19.445  0.00  0.00    +0.000 HD
ENDBRANCH   1  16
BRANCH   1  18
ATOM     18  C   UNL     1       2.854   5.790  18.004  0.00  0.00    +0.000 C 
BRANCH  18  19
ATOM     19  N   UNL     1       2.827   7.116  18.677  0.00  0.00    +0.000 NA
ATOM     20  C   UNL     1       2.308   8.159  17.772  0.00  0.00    +0.000 C 
ATOM     21  C   UNL     1       1.895   9.478  18.428  0.00  0.00    +0.000 C 
ATOM     22  C   UNL     1       0.977   9.249  19.613  0.00  0.00    +0.000 C 
ATOM     23  C   UNL     1       1.670   8.310  20.585  0.00  0.00    +0.000 C 
ATOM     24  C   UNL     1       1.994   6.986  19.897  0.00  0.00    +0.000 C 
ENDBRANCH  18  19
ENDBRANCH   1  18
TORSDOF 4
ENDMDL
MODEL 6
REMARK VINA RESULT:      -7.8      2.364      3.723
REMARK  Name = 
REMARK  4 active torsions:
REMARK  status: ('A' for Active; 'I' for Inactive)
REMARK    1  A    between atoms: O_1  and  C_2
REMARK    2  A    between atoms: C_2  and  C_3
REMARK    3  A    between atoms: C_3  and  N_4
REMARK    4  A    between atoms: C_15  and  C_16
REMARK                            x       y       z     vdW  Elec       q    Type
REMARK                         _______ _______ _______ _____ _____    ______ ____
ROOT
ATOM      1  C   UNL     1       2.134   3.251  19.603  0.00  0.00    +0.000 C 
ATOM      2  C   UNL     1       3.188   2.903  20.655  0.00  0.00    +0.000 C 
ATOM      3  C   UNL     1       4.482   3.456  20.084  0.00  0.00    +0.000 C 
ATOM      4  N   UNL     1       4.330   3.276  18.644  0.00  0.00    +0.000 N 
ATOM      5  C   UNL     1       5.329   3.750  17.831  0.00  0.00    +0.000 A 
ATOM      6  C   UNL     1       5.223   3.787  16.444  0.00  0.00    +0.000 A 
ATOM      7  C   UNL     1       6.281   4.282  15.662  0.00  0.00    +0.000 A 
ATOM      8  C   UNL     1       7.439   4.721  16.302  0.00  0.00    +0.000 A 
ATOM      9  C   UNL     1       7.482   4.648  17.673  0.00  0.00    +0.000 A 
ATOM     10  N   UNL     1       6.466   4.179  18.427  0.00  0.00    +0.000 NA
ATOM     11  C   UNL     1       2.919   3.168  18.269  0.00  0.00    +0.000 C 
ENDROOT
BRANCH   7  12
ATOM     12  C   UNL     1       6.190   4.353  14.164  0.00  0.00    +0.000 C 
ATOM     13  F   UNL     1       6.377   3.156  13.544  0.00  0.00    +0.000 F 
ATOM     14  F   UNL     1       4.975   4.805  13.742  0.00  0.00    +0.000 F 
ATOM     15  F   UNL     1       7.108   5.202  13.625  0.00  0.00    +0.000 F 
ENDBRANCH   7  12
BRANCH   1  16
ATOM     16  O   UNL     1       1.136   2.203  19.615  0.00  0.00    +0.000 OA
ATOM     17  H   UNL     1       1.563   1.388  19.296  0.00  0.00    +0.000 HD
ENDBRANCH   1  16
BRANCH   1  18
ATOM     18  C   UNL     1       1.374   4.584  19.881  0.00  0.00    +0.000 C 
BRANCH  18  19
ATOM     19  N   UNL     1       2.031   5.919  19.877  0.00  0.00    +0.000 NA
ATOM     20  C   UNL     1       2.162   6.440  18.503  0.00  0.00    +0.000 C 
ATOM     21  C   UNL     1       2.488   7.930  18.374  0.00  0.00    +0.000 C 
ATOM     22  C   UNL     1       1.555   8.780  19.215  0.00  0.00    +0.000 C 
ATOM     23  C   UNL     1       1.624   8.294  20.652  0.00  0.00    +0.000 C 
ATOM     24  C   UNL     1       1.222   6.823  20.730  0.00  0.00    +0.000 C 
ENDBRANCH  18  19
ENDBRANCH   1  18
TORSDOF 4
ENDMDL
MODEL 7
REMARK VINA RESULT:      -7.7      6.160      8.206
REMARK  Name = 
REMARK  4 active torsions:
REMARK  status: ('A' for Active; 'I' for Inactive)
REMARK    1  A    between atoms: O_1  and  C_2
REMARK    2  A    between atoms: C_2  and  C_3
REMARK    3  A    between atoms: C_3  and  N_4
REMARK    4  A    between atoms: C_15  and  C_16
REMARK                            x       y       z     vdW  Elec       q    Type
REMARK                         _______ _______ _______ _____ _____    ______ ____
ROOT
ATOM      1  C   UNL     1       0.767   9.943  19.818  0.00  0.00    +0.000 C 
ATOM      2  C   UNL     1       1.626  10.143  18.568  0.00  0.00    +0.000 C 
ATOM      3  C   UNL     1       1.902   8.735  18.075  0.00  0.00    +0.000 C 
ATOM      4  N   UNL     1       1.993   7.950  19.302  0.00  0.00    +0.000 N 
ATOM      5  C   UNL     1       2.176   6.594  19.183  0.00  0.00    +0.000 A 
ATOM      6  C   UNL     1       2.113   5.724  20.267  0.00  0.00    +0.000 A 
ATOM      7  C   UNL     1       2.309   4.344  20.084  0.00  0.00    +0.000 A 
ATOM      8  C   UNL     1       2.582   3.870  18.802  0.00  0.00    +0.000 A 
ATOM      9  C   UNL     1       2.640   4.785  17.779  0.00  0.00    +0.000 A 
ATOM     10  N   UNL     1       2.446   6.109  17.949  0.00  0.00    +0.000 NA
ATOM     11  C   UNL     1       1.301   8.612  20.408  0.00  0.00    +0.000 C 
ENDROOT
BRANCH   7  12
ATOM     12  C   UNL     1       2.228   3.376  21.231  0.00  0.00    +0.000 C 
ATOM     13  F   UNL     1       1.027   2.743  21.332  0.00  0.00    +0.000 F 
ATOM     14  F   UNL     1       3.163   2.389  21.141  0.00  0.00    +0.000 F 
ATOM     15  F   UNL     1       2.438   3.976  22.435  0.00  0.00    +0.000 F 
ENDBRANCH   7  12
BRANCH   1  16
ATOM     16  O   UNL     1       1.077  11.013  20.742  0.00  0.00    +0.000 OA
ATOM     17  H   UNL     1       1.982  10.866  21.067  0.00  0.00    +0.000 HD
ENDBRANCH   1  16
BRANCH   1  18
ATOM     18  C   UNL     1      -0.768  10.020  19.554  0.00  0.00    +0.000 C 
BRANCH  18  19
ATOM     19  N   UNL     1      -1.363  10.687  18.365  0.00  0.00    +0.000 NA
ATOM     20  C   UNL     1      -1.558   9.727  17.261  0.00  0.00    +0.000 C 
ATOM     21  C   UNL     1      -2.473  10.184  16.123  0.00  0.00    +0.000 C 
ATOM     22  C   UNL     1      -3.792  10.719  16.647  0.00  0.00    +0.000 C 
ATOM     23  C   UNL     1      -3.500  11.832  17.638  0.00  0.00    +0.000 C 
ATOM     24  C   UNL     1      -2.644  11.303  18.787  0.00  0.00    +0.000 C 
ENDBRANCH  18  19
ENDBRANCH   1  18
TORSDOF 4
ENDMDL
MODEL 8
REMARK VINA RESULT:      -7.6      0.978      1.257
REMARK  Name = 
REMARK  4 active torsions:
REMARK  status: ('A' for Active; 'I' for Inactive)
REMARK    1  A    between atoms: O_1  and  C_2
REMARK    2  A    between atoms: C_2  and  C_3
REMARK    3  A    between atoms: C_3  and  N_4
REMARK    4  A    between atoms: C_15  and  C_16
REMARK                            x       y       z     vdW  Elec       q    Type
REMARK                         _______ _______ _______ _____ _____    ______ ____
ROOT
ATOM      1  C   UNL     1       5.801   4.578  18.087  0.00  0.00    +0.000 C 
ATOM      2  C   UNL     1       7.105   5.378  18.120  0.00  0.00    +0.000 C 
ATOM      3  C   UNL     1       7.399   5.675  16.661  0.00  0.00    +0.000 C 
ATOM      4  N   UNL     1       6.904   4.494  15.961  0.00  0.00    +0.000 N 
ATOM      5  C   UNL     1       6.968   4.489  14.589  0.00  0.00    +0.000 A 
ATOM      6  C   UNL     1       6.381   3.499  13.808  0.00  0.00    +0.000 A 
ATOM      7  C   UNL     1       6.481   3.546  12.407  0.00  0.00    +0.000 A 
ATOM      8  C   UNL     1       7.190   4.592  11.820  0.00  0.00    +0.000 A 
ATOM      9  C   UNL     1       7.753   5.530  12.650  0.00  0.00    +0.000 A 
ATOM     10  N   UNL     1       7.654   5.492  13.995  0.00  0.00    +0.000 NA
ATOM     11  C   UNL     1       5.904   3.784  16.760  0.00  0.00    +0.000 C 
ENDROOT
BRANCH   7  12
ATOM     12  C   UNL     1       5.841   2.502  11.534  0.00  0.00    +0.000 C 
ATOM     13  F   UNL     1       5.487   1.369  12.201  0.00  0.00    +0.000 F 
ATOM     14  F   UNL     1       4.702   2.955  10.939  0.00  0.00    +0.000 F 
ATOM     15  F   UNL     1       6.655   2.101  10.519  0.00  0.00    +0.000 F 
ENDBRANCH   7  12
BRANCH   1  16
ATOM     16  O   UNL     1       5.830   3.641  19.188  0.00  0.00    +0.000 OA
ATOM     17  H   UNL     1       4.914   3.362  19.360  0.00  0.00    +0.000 HD
ENDBRANCH   1  16
BRANCH   1  18
ATOM     18  C   UNL     1       4.519   5.445  18.281  0.00  0.00    +0.000 C 
BRANCH  18  19
ATOM     19  N   UNL     1       3.702   5.435  19.524  0.00  0.00    +0.000 NA
ATOM     20  C   UNL     1       2.676   6.495  19.493  0.00  0.00    +0.000 C 
ATOM     21  C   UNL     1       1.553   6.379  20.526  0.00  0.00    +0.000 C 
ATOM     22  C   UNL     1       0.935   4.993  20.525  0.00  0.00    +0.000 C 
ATOM     23  C   UNL     1       2.038   3.974  20.751  0.00  0.00    +0.000 C 
ATOM     24  C   UNL     1       3.094   4.089  19.653  0.00  0.00    +0.000 C 
ENDBRANCH  18  19
ENDBRANCH   1  18
TORSDOF 4
ENDMDL
MODEL 9
REMARK VINA RESULT:      -7.6      1.627      2.054
REMARK  Name = 
REMARK  4 active torsions:
REMARK  status: ('A' for Active; 'I' for Inactive)
REMARK    1  A    between atoms: O_1  and  C_2
REMARK    2  A    between atoms: C_2  and  C_3
REMARK    3  A    between atoms: C_3  and  N_4
REMARK    4  A    between atoms: C_15  and  C_16
REMARK                            x       y       z     vdW  Elec       q    Type
REMARK                         _______ _______ _______ _____ _____    ______ ____
ROOT
ATOM      1  C   UNL     1       4.929   4.356  17.915  0.00  0.00    +0.000 C 
ATOM      2  C   UNL     1       6.179   5.207  18.146  0.00  0.00    +0.000 C 
ATOM      3  C   UNL     1       6.683   5.519  16.749  0.00  0.00    +0.000 C 
ATOM      4  N   UNL     1       6.349   4.321  15.985  0.00  0.00    +0.000 N 
ATOM      5  C   UNL     1       6.624   4.322  14.640  0.00  0.00    +0.000 A 
ATOM      6  C   UNL     1       6.204   3.312  13.781  0.00  0.00    +0.000 A 
ATOM      7  C   UNL     1       6.517   3.366  12.411  0.00  0.00    +0.000 A 
ATOM      8  C   UNL     1       7.267   4.442  11.937  0.00  0.00    +0.000 A 
ATOM      9  C   UNL     1       7.657   5.399  12.841  0.00  0.00    +0.000 A 
ATOM     10  N   UNL     1       7.353   5.354  14.155  0.00  0.00    +0.000 NA
ATOM     11  C   UNL     1       5.267   3.570  16.622  0.00  0.00    +0.000 C 
ENDROOT
BRANCH   7  12
ATOM     12  C   UNL     1       6.061   2.300  11.454  0.00  0.00    +0.000 C 
ATOM     13  F   UNL     1       4.967   2.649  10.724  0.00  0.00    +0.000 F 
ATOM     14  F   UNL     1       7.025   1.974  10.548  0.00  0.00    +0.000 F 
ATOM     15  F   UNL     1       5.737   1.138  12.085  0.00  0.00    +0.000 F 
ENDBRANCH   7  12
BRANCH   1  16
ATOM     16  O   UNL     1       4.826   3.417  19.011  0.00  0.00    +0.000 OA
ATOM     17  H   UNL     1       4.367   3.869  19.741  0.00  0.00    +0.000 HD
ENDBRANCH   1  16
BRANCH   1  18
ATOM     18  C   UNL     1       3.599   5.171  17.906  0.00  0.00    +0.000 C 
BRANCH  18  19
ATOM     19  N   UNL     1       3.452   6.509  18.538  0.00  0.00    +0.000 NA
ATOM     20  C   UNL     1       3.100   7.533  17.536  0.00  0.00    +0.000 C 
ATOM     21  C   UNL     1       2.577   8.863  18.083  0.00  0.00    +0.000 C 
ATOM     22  C   UNL     1       1.464   8.652  19.092  0.00  0.00    +0.000 C 
ATOM     23  C   UNL     1       1.975   7.734  20.189  0.00  0.00    +0.000 C 
ATOM     24  C   UNL     1       2.418   6.399  19.594  0.00  0.00    +0.000 C 
ENDBRANCH  18  19
ENDBRANCH   1  18
TORSDOF 4
ENDMDL
