MODEL 1
REMARK VINA RESULT:      -7.5      0.000      0.000
REMARK  Name = 
REMARK  15 active torsions:
REMARK  status: ('A' for Active; 'I' for Inactive)
REMARK    1  A    between atoms: C_1  and  O_2
REMARK    2  A    between atoms: O_2  and  C_3
REMARK    3  A    between atoms: C_5  and  C_6
REMARK    4  A    between atoms: C_8  and  C_9
REMARK    5  A    between atoms: C_9  and  N_10
REMARK    6  A    between atoms: N_10  and  C_11
REMARK    7  A    between atoms: C_11  and  C_12
REMARK    8  A    between atoms: C_12  and  C_13
REMARK    9  A    between atoms: C_13  and  N_14
REMARK   10  A    between atoms: N_14  and  C_15
REMARK   11  A    between atoms: N_14  and  C_16
REMARK   12  A    between atoms: C_28  and  O_29
REMARK   13  A    between atoms: O_29  and  C_30
REMARK   14  A    between atoms: C_31  and  O_32
REMARK   15  A    between atoms: O_32  and  C_33
REMARK                            x       y       z     vdW  Elec       q    Type
REMARK                         _______ _______ _______ _____ _____    ______ ____
ROOT
ATOM      1  C   UNL     1       1.772   8.010  19.392  0.00  0.00    +0.000 A 
ATOM      2  N   UNL     1       2.011   8.628  18.190  0.00  0.00    +0.000 NA
ATOM      3  C   UNL     1       1.532   9.847  17.951  0.00  0.00    +0.000 A 
ATOM      4  C   UNL     1       0.278  10.150  18.366  0.00  0.00    +0.000 A 
ATOM      5  C   UNL     1       0.280   9.921  19.744  0.00  0.00    +0.000 A 
ATOM      6  C   UNL     1       0.995   8.823  20.292  0.00  0.00    +0.000 A 
ATOM      7  N   UNL     1       0.685   8.889  21.650  0.00  0.00    +0.000 N 
ATOM      8  C   UNL     1      -0.157   9.977  21.941  0.00  0.00    +0.000 A 
ATOM      9  C   UNL     1      -0.741  10.468  23.126  0.00  0.00    +0.000 A 
ATOM     10  C   UNL     1      -1.560  11.624  23.049  0.00  0.00    +0.000 A 
ATOM     11  C   UNL     1      -1.775  12.299  21.850  0.00  0.00    +0.000 A 
ATOM     12  C   UNL     1      -1.191  11.804  20.692  0.00  0.00    +0.000 A 
ATOM     13  C   UNL     1      -0.406  10.633  20.745  0.00  0.00    +0.000 A 
ATOM     14  H   UNL     1       1.075   8.290  22.363  0.00  0.00    +0.000 HD
ENDROOT
BRANCH   1  17
ATOM     15  C   UNL     1       3.897   5.113  18.011  0.00  0.00    +0.000 A 
ATOM     16  C   UNL     1       3.312   6.363  18.279  0.00  0.00    +0.000 A 
ATOM     17  C   UNL     1       2.450   6.673  19.390  0.00  0.00    +0.000 A 
ATOM     18  C   UNL     1       2.306   5.640  20.302  0.00  0.00    +0.000 A 
ATOM     19  C   UNL     1       2.922   4.367  20.088  0.00  0.00    +0.000 A 
ATOM     20  C   UNL     1       3.695   4.079  18.927  0.00  0.00    +0.000 A 
BRANCH  15  22
ATOM     21  C   UNL     1       6.054   5.049  16.919  0.00  0.00    +0.000 C 
ATOM     22  O   UNL     1       4.645   4.863  16.894  0.00  0.00    +0.000 OA
ENDBRANCH  15  22
BRANCH  19  23
ATOM     23  O   UNL     1       2.618   3.486  21.108  0.00  0.00    +0.000 OA
ATOM     24  C   UNL     1       1.350   2.840  21.091  0.00  0.00    +0.000 C 
ENDBRANCH  19  23
BRANCH  20  25
ATOM     25  O   UNL     1       4.163   2.797  18.811  0.00  0.00    +0.000 OA
ATOM     26  C   UNL     1       3.496   1.743  18.132  0.00  0.00    +0.000 C 
ENDBRANCH  20  25
ENDBRANCH   1  17
BRANCH   3  27
ATOM     27  C   UNL     1       2.606  10.915  17.942  0.00  0.00    +0.000 C 
BRANCH  27  28
ATOM     28  N   UNL     1       2.028  12.243  17.681  0.00  0.00    +0.000 NA
ATOM     29  H   UNL     1       1.097  12.217  18.108  0.00  0.00    +0.000 HD
BRANCH  28  30
ATOM     30  C   UNL     1       2.800  13.291  18.364  0.00  0.00    +0.000 C 
BRANCH  30  31
ATOM     31  C   UNL     1       2.142  13.698  19.678  0.00  0.00    +0.000 C 
BRANCH  31  32
ATOM     32  C   UNL     1       3.182  14.091  20.717  0.00  0.00    +0.000 C 
BRANCH  32  33
ATOM     33  N   UNL     1       2.558  14.490  21.989  0.00  0.00    +0.000 NA
ATOM     34  C   UNL     1       3.118  15.741  22.506  0.00  0.00    +0.000 C 
ATOM     35  C   UNL     1       1.115  14.622  21.800  0.00  0.00    +0.000 C 
ENDBRANCH  32  33
ENDBRANCH  31  32
ENDBRANCH  30  31
ENDBRANCH  28  30
ENDBRANCH  27  28
ENDBRANCH   3  27
TORSDOF 10
ENDMDL
MODEL 2
REMARK VINA RESULT:      -7.3      1.056      1.331
REMARK  Name = 
REMARK  15 active torsions:
REMARK  status: ('A' for Active; 'I' for Inactive)
REMARK    1  A    between atoms: C_1  and  O_2
REMARK    2  A    between atoms: O_2  and  C_3
REMARK    3  A    between atoms: C_5  and  C_6
REMARK    4  A    between atoms: C_8  and  C_9
REMARK    5  A    between atoms: C_9  and  N_10
REMARK    6  A    between atoms: N_10  and  C_11
REMARK    7  A    between atoms: C_11  and  C_12
REMARK    8  A    between atoms: C_12  and  C_13
REMARK    9  A    between atoms: C_13  and  N_14
REMARK   10  A    between atoms: N_14  and  C_15
REMARK   11  A    between atoms: N_14  and  C_16
REMARK   12  A    between atoms: C_28  and  O_29
REMARK   13  A    between atoms: O_29  and  C_30
REMARK   14  A    between atoms: C_31  and  O_32
REMARK   15  A    between atoms: O_32  and  C_33
REMARK                            x       y       z     vdW  Elec       q    Type
REMARK                         _______ _______ _______ _____ _____    ______ ____
ROOT
ATOM      1  C   UNL     1       1.743   7.944  19.615  0.00  0.00    +0.000 A 
ATOM      2  N   UNL     1       1.964   8.483  18.372  0.00  0.00    +0.000 NA
ATOM      3  C   UNL     1       1.452   9.668  18.049  0.00  0.00    +0.000 A 
ATOM      4  C   UNL     1       0.192   9.968  18.446  0.00  0.00    +0.000 A 
ATOM      5  C   UNL     1       0.201   9.836  19.836  0.00  0.00    +0.000 A 
ATOM      6  C   UNL     1       0.946   8.798  20.457  0.00  0.00    +0.000 A 
ATOM      7  N   UNL     1       0.637   8.951  21.808  0.00  0.00    +0.000 N 
ATOM      8  C   UNL     1      -0.234  10.035  22.025  0.00  0.00    +0.000 A 
ATOM      9  C   UNL     1      -0.829  10.592  23.174  0.00  0.00    +0.000 A 
ATOM     10  C   UNL     1      -1.677  11.719  23.019  0.00  0.00    +0.000 A 
ATOM     11  C   UNL     1      -1.912  12.302  21.776  0.00  0.00    +0.000 A 
ATOM     12  C   UNL     1      -1.317  11.742  20.654  0.00  0.00    +0.000 A 
ATOM     13  C   UNL     1      -0.501  10.598  20.787  0.00  0.00    +0.000 A 
ATOM     14  H   UNL     1       1.043   8.414  22.560  0.00  0.00    +0.000 HD
ENDROOT
BRANCH   1  17
ATOM     15  C   UNL     1       4.204   5.166  18.593  0.00  0.00    +0.000 A 
ATOM     16  C   UNL     1       3.533   6.388  18.780  0.00  0.00    +0.000 A 
ATOM     17  C   UNL     1       2.455   6.629  19.704  0.00  0.00    +0.000 A 
ATOM     18  C   UNL     1       2.169   5.556  20.534  0.00  0.00    +0.000 A 
ATOM     19  C   UNL     1       2.861   4.311  20.406  0.00  0.00    +0.000 A 
ATOM     20  C   UNL     1       3.861   4.092  19.415  0.00  0.00    +0.000 A 
BRANCH  15  22
ATOM     21  C   UNL     1       4.805   4.737  16.290  0.00  0.00    +0.000 C 
ATOM     22  O   UNL     1       5.169   4.983  17.642  0.00  0.00    +0.000 OA
ENDBRANCH  15  22
BRANCH  19  23
ATOM     23  O   UNL     1       2.391   3.382  21.313  0.00  0.00    +0.000 OA
ATOM     24  C   UNL     1       1.100   2.820  21.103  0.00  0.00    +0.000 C 
ENDBRANCH  19  23
BRANCH  20  25
ATOM     25  O   UNL     1       4.388   2.829  19.352  0.00  0.00    +0.000 OA
ATOM     26  C   UNL     1       3.788   1.725  18.690  0.00  0.00    +0.000 C 
ENDBRANCH  20  25
ENDBRANCH   1  17
BRANCH   3  27
ATOM     27  C   UNL     1       2.499  10.761  17.961  0.00  0.00    +0.000 C 
BRANCH  27  28
ATOM     28  N   UNL     1       1.870  12.089  17.882  0.00  0.00    +0.000 NA
ATOM     29  H   UNL     1       1.002  12.005  18.419  0.00  0.00    +0.000 HD
BRANCH  28  30
ATOM     30  C   UNL     1       2.705  13.102  18.543  0.00  0.00    +0.000 C 
BRANCH  30  31
ATOM     31  C   UNL     1       2.310  13.277  20.006  0.00  0.00    +0.000 C 
BRANCH  31  32
ATOM     32  C   UNL     1       1.641  14.624  20.238  0.00  0.00    +0.000 C 
BRANCH  32  33
ATOM     33  N   UNL     1       1.015  15.140  19.009  0.00  0.00    +0.000 NA
ATOM     34  C   UNL     1      -0.442  14.987  19.029  0.00  0.00    +0.000 C 
ATOM     35  C   UNL     1       1.374  16.546  18.837  0.00  0.00    +0.000 C 
ENDBRANCH  32  33
ENDBRANCH  31  32
ENDBRANCH  30  31
ENDBRANCH  28  30
ENDBRANCH  27  28
ENDBRANCH   3  27
TORSDOF 10
ENDMDL
MODEL 3
REMARK VINA RESULT:      -7.3      1.813      2.306
REMARK  Name = 
REMARK  15 active torsions:
REMARK  status: ('A' for Active; 'I' for Inactive)
REMARK    1  A    between atoms: C_1  and  O_2
REMARK    2  A    between atoms: O_2  and  C_3
REMARK    3  A    between atoms: C_5  and  C_6
REMARK    4  A    between atoms: C_8  and  C_9
REMARK    5  A    between atoms: C_9  and  N_10
REMARK    6  A    between atoms: N_10  and  C_11
REMARK    7  A    between atoms: C_11  and  C_12
REMARK    8  A    between atoms: C_12  and  C_13
REMARK    9  A    between atoms: C_13  and  N_14
REMARK   10  A    between atoms: N_14  and  C_15
REMARK   11  A    between atoms: N_14  and  C_16
REMARK   12  A    between atoms: C_28  and  O_29
REMARK   13  A    between atoms: O_29  and  C_30
REMARK   14  A    between atoms: C_31  and  O_32
REMARK   15  A    between atoms: O_32  and  C_33
REMARK                            x       y       z     vdW  Elec       q    Type
REMARK                         _______ _______ _______ _____ _____    ______ ____
ROOT
ATOM      1  C   UNL     1       2.246   8.120  18.558  0.00  0.00    +0.000 A 
ATOM      2  N   UNL     1       2.212   9.034  17.535  0.00  0.00    +0.000 NA
ATOM      3  C   UNL     1       1.579  10.195  17.688  0.00  0.00    +0.000 A 
ATOM      4  C   UNL     1       0.391  10.213  18.340  0.00  0.00    +0.000 A 
ATOM      5  C   UNL     1       0.653   9.664  19.598  0.00  0.00    +0.000 A 
ATOM      6  C   UNL     1       1.557   8.578  19.737  0.00  0.00    +0.000 A 
ATOM      7  N   UNL     1       1.480   8.274  21.096  0.00  0.00    +0.000 N 
ATOM      8  C   UNL     1       0.596   9.133  21.773  0.00  0.00    +0.000 A 
ATOM      9  C   UNL     1       0.178   9.240  23.115  0.00  0.00    +0.000 A 
ATOM     10  C   UNL     1      -0.753  10.256  23.455  0.00  0.00    +0.000 A 
ATOM     11  C   UNL     1      -1.237  11.161  22.513  0.00  0.00    +0.000 A 
ATOM     12  C   UNL     1      -0.814  11.043  21.196  0.00  0.00    +0.000 A 
ATOM     13  C   UNL     1       0.082  10.014  20.834  0.00  0.00    +0.000 A 
ATOM     14  H   UNL     1       2.044   7.583  21.568  0.00  0.00    +0.000 HD
ENDROOT
BRANCH   1  17
ATOM     15  C   UNL     1       5.219   6.211  17.030  0.00  0.00    +0.000 A 
ATOM     16  C   UNL     1       4.382   7.162  17.640  0.00  0.00    +0.000 A 
ATOM     17  C   UNL     1       3.043   6.930  18.115  0.00  0.00    +0.000 A 
ATOM     18  C   UNL     1       2.634   5.608  18.038  0.00  0.00    +0.000 A 
ATOM     19  C   UNL     1       3.474   4.602  17.465  0.00  0.00    +0.000 A 
ATOM     20  C   UNL     1       4.759   4.897  16.925  0.00  0.00    +0.000 A 
BRANCH  15  22
ATOM     21  C   UNL     1       7.512   6.880  17.405  0.00  0.00    +0.000 C 
ATOM     22  O   UNL     1       6.454   6.516  16.529  0.00  0.00    +0.000 OA
ENDBRANCH  15  22
BRANCH  19  23
ATOM     23  O   UNL     1       2.850   3.370  17.466  0.00  0.00    +0.000 OA
ATOM     24  C   UNL     1       1.724   3.179  18.314  0.00  0.00    +0.000 C 
ENDBRANCH  19  23
BRANCH  20  25
ATOM     25  O   UNL     1       5.425   3.855  16.337  0.00  0.00    +0.000 OA
ATOM     26  C   UNL     1       5.847   3.817  14.981  0.00  0.00    +0.000 C 
ENDBRANCH  20  25
ENDBRANCH   1  17
BRANCH   3  27
ATOM     27  C   UNL     1       2.525  11.374  17.802  0.00  0.00    +0.000 C 
BRANCH  27  28
ATOM     28  N   UNL     1       1.780  12.640  17.901  0.00  0.00    +0.000 NA
ATOM     29  H   UNL     1       0.874  12.385  18.306  0.00  0.00    +0.000 HD
BRANCH  28  30
ATOM     30  C   UNL     1       2.440  13.562  18.837  0.00  0.00    +0.000 C 
BRANCH  30  31
ATOM     31  C   UNL     1       3.375  14.519  18.105  0.00  0.00    +0.000 C 
BRANCH  31  32
ATOM     32  C   UNL     1       3.849  15.636  19.023  0.00  0.00    +0.000 C 
BRANCH  32  33
ATOM     33  N   UNL     1       3.337  16.948  18.593  0.00  0.00    +0.000 NA
ATOM     34  C   UNL     1       2.909  16.937  17.191  0.00  0.00    +0.000 C 
ATOM     35  C   UNL     1       2.227  17.342  19.458  0.00  0.00    +0.000 C 
ENDBRANCH  32  33
ENDBRANCH  31  32
ENDBRANCH  30  31
ENDBRANCH  28  30
ENDBRANCH  27  28
ENDBRANCH   3  27
TORSDOF 10
ENDMDL
MODEL 4
REMARK VINA RESULT:      -7.2      1.409      1.759
REMARK  Name = 
REMARK  15 active torsions:
REMARK  status: ('A' for Active; 'I' for Inactive)
REMARK    1  A    between atoms: C_1  and  O_2
REMARK    2  A    between atoms: O_2  and  C_3
REMARK    3  A    between atoms: C_5  and  C_6
REMARK    4  A    between atoms: C_8  and  C_9
REMARK    5  A    between atoms: C_9  and  N_10
REMARK    6  A    between atoms: N_10  and  C_11
REMARK    7  A    between atoms: C_11  and  C_12
REMARK    8  A    between atoms: C_12  and  C_13
REMARK    9  A    between atoms: C_13  and  N_14
REMARK   10  A    between atoms: N_14  and  C_15
REMARK   11  A    between atoms: N_14  and  C_16
REMARK   12  A    between atoms: C_28  and  O_29
REMARK   13  A    between atoms: O_29  and  C_30
REMARK   14  A    between atoms: C_31  and  O_32
REMARK   15  A    between atoms: O_32  and  C_33
REMARK                            x       y       z     vdW  Elec       q    Type
REMARK                         _______ _______ _______ _____ _____    ______ ____
ROOT
ATOM      1  C   UNL     1       1.734   8.035  19.447  0.00  0.00    +0.000 A 
ATOM      2  N   UNL     1       2.005   8.678  18.264  0.00  0.00    +0.000 NA
ATOM      3  C   UNL     1       1.528   9.899  18.036  0.00  0.00    +0.000 A 
ATOM      4  C   UNL     1       0.262  10.191  18.420  0.00  0.00    +0.000 A 
ATOM      5  C   UNL     1       0.225   9.935  19.793  0.00  0.00    +0.000 A 
ATOM      6  C   UNL     1       0.929   8.829  20.339  0.00  0.00    +0.000 A 
ATOM      7  N   UNL     1       0.581   8.867  21.689  0.00  0.00    +0.000 N 
ATOM      8  C   UNL     1      -0.274   9.947  21.977  0.00  0.00    +0.000 A 
ATOM      9  C   UNL     1      -0.893  10.412  23.154  0.00  0.00    +0.000 A 
ATOM     10  C   UNL     1      -1.713  11.567  23.077  0.00  0.00    +0.000 A 
ATOM     11  C   UNL     1      -1.897  12.265  21.885  0.00  0.00    +0.000 A 
ATOM     12  C   UNL     1      -1.279  11.795  20.735  0.00  0.00    +0.000 A 
ATOM     13  C   UNL     1      -0.491  10.624  20.788  0.00  0.00    +0.000 A 
ATOM     14  H   UNL     1       0.952   8.256  22.401  0.00  0.00    +0.000 HD
ENDROOT
BRANCH   1  17
ATOM     15  C   UNL     1       3.849   5.142  18.041  0.00  0.00    +0.000 A 
ATOM     16  C   UNL     1       3.264   6.391  18.315  0.00  0.00    +0.000 A 
ATOM     17  C   UNL     1       2.416   6.701  19.437  0.00  0.00    +0.000 A 
ATOM     18  C   UNL     1       2.290   5.670  20.355  0.00  0.00    +0.000 A 
ATOM     19  C   UNL     1       2.907   4.399  20.135  0.00  0.00    +0.000 A 
ATOM     20  C   UNL     1       3.664   4.110  18.963  0.00  0.00    +0.000 A 
BRANCH  15  22
ATOM     21  C   UNL     1       5.144   5.966  16.173  0.00  0.00    +0.000 C 
ATOM     22  O   UNL     1       4.581   4.892  16.914  0.00  0.00    +0.000 OA
ENDBRANCH  15  22
BRANCH  19  23
ATOM     23  O   UNL     1       2.621   3.519  21.161  0.00  0.00    +0.000 OA
ATOM     24  C   UNL     1       1.359   2.862  21.159  0.00  0.00    +0.000 C 
ENDBRANCH  19  23
BRANCH  20  25
ATOM     25  O   UNL     1       4.134   2.829  18.843  0.00  0.00    +0.000 OA
ATOM     26  C   UNL     1       3.456   1.768  18.187  0.00  0.00    +0.000 C 
ENDBRANCH  20  25
ENDBRANCH   1  17
BRANCH   3  27
ATOM     27  C   UNL     1       2.599  10.971  18.077  0.00  0.00    +0.000 C 
BRANCH  27  28
ATOM     28  N   UNL     1       2.062  12.270  17.643  0.00  0.00    +0.000 NA
ATOM     29  H   UNL     1       1.065  12.104  17.475  0.00  0.00    +0.000 HD
BRANCH  28  30
ATOM     30  C   UNL     1       2.171  13.265  18.720  0.00  0.00    +0.000 C 
BRANCH  30  31
ATOM     31  C   UNL     1       2.978  14.480  18.274  0.00  0.00    +0.000 C 
BRANCH  31  32
ATOM     32  C   UNL     1       4.459  14.296  18.570  0.00  0.00    +0.000 C 
BRANCH  32  33
ATOM     33  N   UNL     1       5.271  15.370  17.975  0.00  0.00    +0.000 NA
ATOM     34  C   UNL     1       5.150  16.626  18.719  0.00  0.00    +0.000 C 
ATOM     35  C   UNL     1       6.669  14.947  17.919  0.00  0.00    +0.000 C 
ENDBRANCH  32  33
ENDBRANCH  31  32
ENDBRANCH  30  31
ENDBRANCH  28  30
ENDBRANCH  27  28
ENDBRANCH   3  27
TORSDOF 10
ENDMDL
MODEL 5
REMARK VINA RESULT:      -7.2      1.486      1.948
REMARK  Name = 
REMARK  15 active torsions:
REMARK  status: ('A' for Active; 'I' for Inactive)
REMARK    1  A    between atoms: C_1  and  O_2
REMARK    2  A    between atoms: O_2  and  C_3
REMARK    3  A    between atoms: C_5  and  C_6
REMARK    4  A    between atoms: C_8  and  C_9
REMARK    5  A    between atoms: C_9  and  N_10
REMARK    6  A    between atoms: N_10  and  C_11
REMARK    7  A    between atoms: C_11  and  C_12
REMARK    8  A    between atoms: C_12  and  C_13
REMARK    9  A    between atoms: C_13  and  N_14
REMARK   10  A    between atoms: N_14  and  C_15
REMARK   11  A    between atoms: N_14  and  C_16
REMARK   12  A    between atoms: C_28  and  O_29
REMARK   13  A    between atoms: O_29  and  C_30
REMARK   14  A    between atoms: C_31  and  O_32
REMARK   15  A    between atoms: O_32  and  C_33
REMARK                            x       y       z     vdW  Elec       q    Type
REMARK                         _______ _______ _______ _____ _____    ______ ____
ROOT
ATOM      1  C   UNL     1       2.330   8.020  18.550  0.00  0.00    +0.000 A 
ATOM      2  N   UNL     1       2.294   8.933  17.526  0.00  0.00    +0.000 NA
ATOM      3  C   UNL     1       1.659  10.093  17.677  0.00  0.00    +0.000 A 
ATOM      4  C   UNL     1       0.471  10.109  18.329  0.00  0.00    +0.000 A 
ATOM      5  C   UNL     1       0.734   9.563  19.588  0.00  0.00    +0.000 A 
ATOM      6  C   UNL     1       1.640   8.479  19.729  0.00  0.00    +0.000 A 
ATOM      7  N   UNL     1       1.565   8.177  21.088  0.00  0.00    +0.000 N 
ATOM      8  C   UNL     1       0.679   9.036  21.764  0.00  0.00    +0.000 A 
ATOM      9  C   UNL     1       0.261   9.144  23.106  0.00  0.00    +0.000 A 
ATOM     10  C   UNL     1      -0.672  10.158  23.444  0.00  0.00    +0.000 A 
ATOM     11  C   UNL     1      -1.158  11.060  22.501  0.00  0.00    +0.000 A 
ATOM     12  C   UNL     1      -0.735  10.941  21.185  0.00  0.00    +0.000 A 
ATOM     13  C   UNL     1       0.163   9.913  20.824  0.00  0.00    +0.000 A 
ATOM     14  H   UNL     1       2.130   7.488  21.561  0.00  0.00    +0.000 HD
ENDROOT
BRANCH   1  17
ATOM     15  C   UNL     1       5.397   6.093  17.249  0.00  0.00    +0.000 A 
ATOM     16  C   UNL     1       4.527   7.033  17.830  0.00  0.00    +0.000 A 
ATOM     17  C   UNL     1       3.129   6.832  18.109  0.00  0.00    +0.000 A 
ATOM     18  C   UNL     1       2.681   5.543  17.865  0.00  0.00    +0.000 A 
ATOM     19  C   UNL     1       3.547   4.546  17.317  0.00  0.00    +0.000 A 
ATOM     20  C   UNL     1       4.903   4.817  16.972  0.00  0.00    +0.000 A 
BRANCH  15  22
ATOM     21  C   UNL     1       7.319   7.548  17.444  0.00  0.00    +0.000 C 
ATOM     22  O   UNL     1       6.698   6.374  16.937  0.00  0.00    +0.000 OA
ENDBRANCH  15  22
BRANCH  19  23
ATOM     23  O   UNL     1       2.880   3.351  17.130  0.00  0.00    +0.000 OA
ATOM     24  C   UNL     1       2.940   2.371  18.161  0.00  0.00    +0.000 C 
ENDBRANCH  19  23
BRANCH  20  25
ATOM     25  O   UNL     1       5.597   3.794  16.384  0.00  0.00    +0.000 OA
ATOM     26  C   UNL     1       6.003   3.759  15.023  0.00  0.00    +0.000 C 
ENDBRANCH  20  25
ENDBRANCH   1  17
BRANCH   3  27
ATOM     27  C   UNL     1       2.602  11.274  17.789  0.00  0.00    +0.000 C 
BRANCH  27  28
ATOM     28  N   UNL     1       1.855  12.539  17.869  0.00  0.00    +0.000 NA
ATOM     29  H   UNL     1       1.209  12.418  18.655  0.00  0.00    +0.000 HD
BRANCH  28  30
ATOM     30  C   UNL     1       2.753  13.655  18.201  0.00  0.00    +0.000 C 
BRANCH  30  31
ATOM     31  C   UNL     1       2.145  14.558  19.269  0.00  0.00    +0.000 C 
BRANCH  31  32
ATOM     32  C   UNL     1       1.177  13.789  20.155  0.00  0.00    +0.000 C 
BRANCH  32  33
ATOM     33  N   UNL     1       1.446  14.019  21.584  0.00  0.00    +0.000 NA
ATOM     34  C   UNL     1       2.581  14.924  21.789  0.00  0.00    +0.000 C 
ATOM     35  C   UNL     1       0.247  14.559  22.222  0.00  0.00    +0.000 C 
ENDBRANCH  32  33
ENDBRANCH  31  32
ENDBRANCH  30  31
ENDBRANCH  28  30
ENDBRANCH  27  28
ENDBRANCH   3  27
TORSDOF 10
ENDMDL
MODEL 6
REMARK VINA RESULT:      -7.2      1.831      2.368
REMARK  Name = 
REMARK  15 active torsions:
REMARK  status: ('A' for Active; 'I' for Inactive)
REMARK    1  A    between atoms: C_1  and  O_2
REMARK    2  A    between atoms: O_2  and  C_3
REMARK    3  A    between atoms: C_5  and  C_6
REMARK    4  A    between atoms: C_8  and  C_9
REMARK    5  A    between atoms: C_9  and  N_10
REMARK    6  A    between atoms: N_10  and  C_11
REMARK    7  A    between atoms: C_11  and  C_12
REMARK    8  A    between atoms: C_12  and  C_13
REMARK    9  A    between atoms: C_13  and  N_14
REMARK   10  A    between atoms: N_14  and  C_15
REMARK   11  A    between atoms: N_14  and  C_16
REMARK   12  A    between atoms: C_28  and  O_29
REMARK   13  A    between atoms: O_29  and  C_30
REMARK   14  A    between atoms: C_31  and  O_32
REMARK   15  A    between atoms: O_32  and  C_33
REMARK                            x       y       z     vdW  Elec       q    Type
REMARK                         _______ _______ _______ _____ _____    ______ ____
ROOT
ATOM      1  C   UNL     1       2.181   8.266  18.560  0.00  0.00    +0.000 A 
ATOM      2  N   UNL     1       2.244   9.218  17.573  0.00  0.00    +0.000 NA
ATOM      3  C   UNL     1       1.657  10.401  17.738  0.00  0.00    +0.000 A 
ATOM      4  C   UNL     1       0.437  10.451  18.327  0.00  0.00    +0.000 A 
ATOM      5  C   UNL     1       0.605   9.845  19.574  0.00  0.00    +0.000 A 
ATOM      6  C   UNL     1       1.451   8.714  19.719  0.00  0.00    +0.000 A 
ATOM      7  N   UNL     1       1.288   8.364  21.058  0.00  0.00    +0.000 N 
ATOM      8  C   UNL     1       0.408   9.239  21.722  0.00  0.00    +0.000 A 
ATOM      9  C   UNL     1      -0.076   9.316  23.043  0.00  0.00    +0.000 A 
ATOM     10  C   UNL     1      -0.977  10.362  23.373  0.00  0.00    +0.000 A 
ATOM     11  C   UNL     1      -1.369  11.322  22.444  0.00  0.00    +0.000 A 
ATOM     12  C   UNL     1      -0.881  11.232  21.147  0.00  0.00    +0.000 A 
ATOM     13  C   UNL     1      -0.015  10.176  20.792  0.00  0.00    +0.000 A 
ATOM     14  H   UNL     1       1.794   7.631  21.532  0.00  0.00    +0.000 HD
ENDROOT
BRANCH   1  17
ATOM     15  C   UNL     1       5.098   6.285  17.017  0.00  0.00    +0.000 A 
ATOM     16  C   UNL     1       4.288   7.257  17.631  0.00  0.00    +0.000 A 
ATOM     17  C   UNL     1       2.946   7.058  18.113  0.00  0.00    +0.000 A 
ATOM     18  C   UNL     1       2.504   5.746  18.038  0.00  0.00    +0.000 A 
ATOM     19  C   UNL     1       3.316   4.720  17.461  0.00  0.00    +0.000 A 
ATOM     20  C   UNL     1       4.605   4.983  16.915  0.00  0.00    +0.000 A 
BRANCH  15  22
ATOM     21  C   UNL     1       7.457   6.674  17.378  0.00  0.00    +0.000 C 
ATOM     22  O   UNL     1       6.338   6.559  16.510  0.00  0.00    +0.000 OA
ENDBRANCH  15  22
BRANCH  19  23
ATOM     23  O   UNL     1       2.662   3.503  17.465  0.00  0.00    +0.000 OA
ATOM     24  C   UNL     1       1.620   3.295  18.411  0.00  0.00    +0.000 C 
ENDBRANCH  19  23
BRANCH  20  25
ATOM     25  O   UNL     1       5.242   3.925  16.323  0.00  0.00    +0.000 OA
ATOM     26  C   UNL     1       5.678   3.885  14.972  0.00  0.00    +0.000 C 
ENDBRANCH  20  25
ENDBRANCH   1  17
BRANCH   3  27
ATOM     27  C   UNL     1       2.647  11.530  17.947  0.00  0.00    +0.000 C 
BRANCH  27  28
ATOM     28  N   UNL     1       2.119  12.798  17.420  0.00  0.00    +0.000 NA
ATOM     29  H   UNL     1       1.119  12.631  17.274  0.00  0.00    +0.000 HD
BRANCH  28  30
ATOM     30  C   UNL     1       2.249  13.871  18.418  0.00  0.00    +0.000 C 
BRANCH  30  31
ATOM     31  C   UNL     1       3.463  14.749  18.134  0.00  0.00    +0.000 C 
BRANCH  31  32
ATOM     32  C   UNL     1       4.309  14.941  19.383  0.00  0.00    +0.000 C 
BRANCH  32  33
ATOM     33  N   UNL     1       5.681  15.359  19.053  0.00  0.00    +0.000 NA
ATOM     34  C   UNL     1       6.618  15.080  20.145  0.00  0.00    +0.000 C 
ATOM     35  C   UNL     1       6.113  14.683  17.831  0.00  0.00    +0.000 C 
ENDBRANCH  32  33
ENDBRANCH  31  32
ENDBRANCH  30  31
ENDBRANCH  28  30
ENDBRANCH  27  28
ENDBRANCH   3  27
TORSDOF 10
ENDMDL
MODEL 7
REMARK VINA RESULT:      -7.2      1.285      2.651
REMARK  Name = 
REMARK  15 active torsions:
REMARK  status: ('A' for Active; 'I' for Inactive)
REMARK    1  A    between atoms: C_1  and  O_2
REMARK    2  A    between atoms: O_2  and  C_3
REMARK    3  A    between atoms: C_5  and  C_6
REMARK    4  A    between atoms: C_8  and  C_9
REMARK    5  A    between atoms: C_9  and  N_10
REMARK    6  A    between atoms: N_10  and  C_11
REMARK    7  A    between atoms: C_11  and  C_12
REMARK    8  A    between atoms: C_12  and  C_13
REMARK    9  A    between atoms: C_13  and  N_14
REMARK   10  A    between atoms: N_14  and  C_15
REMARK   11  A    between atoms: N_14  and  C_16
REMARK   12  A    between atoms: C_28  and  O_29
REMARK   13  A    between atoms: O_29  and  C_30
REMARK   14  A    between atoms: C_31  and  O_32
REMARK   15  A    between atoms: O_32  and  C_33
REMARK                            x       y       z     vdW  Elec       q    Type
REMARK                         _______ _______ _______ _____ _____    ______ ____
ROOT
ATOM      1  C   UNL     1       1.776   8.095  19.249  0.00  0.00    +0.000 A 
ATOM      2  N   UNL     1       2.013   8.787  18.088  0.00  0.00    +0.000 NA
ATOM      3  C   UNL     1       1.538  10.021  17.928  0.00  0.00    +0.000 A 
ATOM      4  C   UNL     1       0.287  10.302  18.367  0.00  0.00    +0.000 A 
ATOM      5  C   UNL     1       0.293   9.986  19.727  0.00  0.00    +0.000 A 
ATOM      6  C   UNL     1       1.005   8.853  20.201  0.00  0.00    +0.000 A 
ATOM      7  N   UNL     1       0.702   8.833  21.562  0.00  0.00    +0.000 N 
ATOM      8  C   UNL     1      -0.135   9.905  21.925  0.00  0.00    +0.000 A 
ATOM      9  C   UNL     1      -0.712  10.322  23.141  0.00  0.00    +0.000 A 
ATOM     10  C   UNL     1      -1.526  11.484  23.141  0.00  0.00    +0.000 A 
ATOM     11  C   UNL     1      -1.743  12.235  21.988  0.00  0.00    +0.000 A 
ATOM     12  C   UNL     1      -1.166  11.812  20.799  0.00  0.00    +0.000 A 
ATOM     13  C   UNL     1      -0.385  10.636  20.774  0.00  0.00    +0.000 A 
ATOM     14  H   UNL     1       1.092   8.189  22.234  0.00  0.00    +0.000 HD
ENDROOT
BRANCH   1  17
ATOM     15  C   UNL     1       2.769   4.543  20.350  0.00  0.00    +0.000 A 
ATOM     16  C   UNL     1       2.126   5.780  20.165  0.00  0.00    +0.000 A 
ATOM     17  C   UNL     1       2.447   6.758  19.159  0.00  0.00    +0.000 A 
ATOM     18  C   UNL     1       3.410   6.345  18.252  0.00  0.00    +0.000 A 
ATOM     19  C   UNL     1       4.056   5.075  18.380  0.00  0.00    +0.000 A 
ATOM     20  C   UNL     1       3.768   4.176  19.446  0.00  0.00    +0.000 A 
BRANCH  15  22
ATOM     21  C   UNL     1       1.315   2.861  21.302  0.00  0.00    +0.000 C 
ATOM     22  O   UNL     1       2.467   3.691  21.375  0.00  0.00    +0.000 OA
ENDBRANCH  15  22
BRANCH  19  23
ATOM     23  O   UNL     1       4.998   4.891  17.387  0.00  0.00    +0.000 OA
ATOM     24  C   UNL     1       5.144   5.899  16.393  0.00  0.00    +0.000 C 
ENDBRANCH  19  23
BRANCH  20  25
ATOM     25  O   UNL     1       4.514   3.028  19.493  0.00  0.00    +0.000 OA
ATOM     26  C   UNL     1       4.079   1.752  19.046  0.00  0.00    +0.000 C 
ENDBRANCH  20  25
ENDBRANCH   1  17
BRANCH   3  27
ATOM     27  C   UNL     1       2.617  11.083  17.982  0.00  0.00    +0.000 C 
BRANCH  27  28
ATOM     28  N   UNL     1       2.078  12.402  17.617  0.00  0.00    +0.000 NA
ATOM     29  H   UNL     1       1.064  12.268  17.555  0.00  0.00    +0.000 HD
BRANCH  28  30
ATOM     30  C   UNL     1       2.331  13.382  18.683  0.00  0.00    +0.000 C 
BRANCH  30  31
ATOM     31  C   UNL     1       1.180  14.376  18.808  0.00  0.00    +0.000 C 
BRANCH  31  32
ATOM     32  C   UNL     1       1.671  15.808  18.662  0.00  0.00    +0.000 C 
BRANCH  32  33
ATOM     33  N   UNL     1       0.673  16.777  19.146  0.00  0.00    +0.000 NA
ATOM     34  C   UNL     1      -0.527  16.793  18.306  0.00  0.00    +0.000 C 
ATOM     35  C   UNL     1       0.320  16.460  20.528  0.00  0.00    +0.000 C 
ENDBRANCH  32  33
ENDBRANCH  31  32
ENDBRANCH  30  31
ENDBRANCH  28  30
ENDBRANCH  27  28
ENDBRANCH   3  27
TORSDOF 10
ENDMDL
MODEL 8
REMARK VINA RESULT:      -7.2      1.799      2.252
REMARK  Name = 
REMARK  15 active torsions:
REMARK  status: ('A' for Active; 'I' for Inactive)
REMARK    1  A    between atoms: C_1  and  O_2
REMARK    2  A    between atoms: O_2  and  C_3
REMARK    3  A    between atoms: C_5  and  C_6
REMARK    4  A    between atoms: C_8  and  C_9
REMARK    5  A    between atoms: C_9  and  N_10
REMARK    6  A    between atoms: N_10  and  C_11
REMARK    7  A    between atoms: C_11  and  C_12
REMARK    8  A    between atoms: C_12  and  C_13
REMARK    9  A    between atoms: C_13  and  N_14
REMARK   10  A    between atoms: N_14  and  C_15
REMARK   11  A    between atoms: N_14  and  C_16
REMARK   12  A    between atoms: C_28  and  O_29
REMARK   13  A    between atoms: O_29  and  C_30
REMARK   14  A    between atoms: C_31  and  O_32
REMARK   15  A    between atoms: O_32  and  C_33
REMARK                            x       y       z     vdW  Elec       q    Type
REMARK                         _______ _______ _______ _____ _____    ______ ____
ROOT
ATOM      1  C   UNL     1       2.310   8.079  18.530  0.00  0.00    +0.000 A 
ATOM      2  N   UNL     1       2.308   9.009  17.520  0.00  0.00    +0.000 NA
ATOM      3  C   UNL     1       1.697  10.181  17.683  0.00  0.00    +0.000 A 
ATOM      4  C   UNL     1       0.502  10.214  18.320  0.00  0.00    +0.000 A 
ATOM      5  C   UNL     1       0.736   9.641  19.573  0.00  0.00    +0.000 A 
ATOM      6  C   UNL     1       1.616   8.535  19.707  0.00  0.00    +0.000 A 
ATOM      7  N   UNL     1       1.516   8.213  21.060  0.00  0.00    +0.000 N 
ATOM      8  C   UNL     1       0.641   9.080  21.739  0.00  0.00    +0.000 A 
ATOM      9  C   UNL     1       0.208   9.176  23.077  0.00  0.00    +0.000 A 
ATOM     10  C   UNL     1      -0.705  10.206  23.421  0.00  0.00    +0.000 A 
ATOM     11  C   UNL     1      -1.159  11.134  22.487  0.00  0.00    +0.000 A 
ATOM     12  C   UNL     1      -0.722  11.027  21.174  0.00  0.00    +0.000 A 
ATOM     13  C   UNL     1       0.157   9.985  20.807  0.00  0.00    +0.000 A 
ATOM     14  H   UNL     1       2.059   7.503  21.529  0.00  0.00    +0.000 HD
ENDROOT
BRANCH   1  17
ATOM     15  C   UNL     1       5.273   6.129  17.037  0.00  0.00    +0.000 A 
ATOM     16  C   UNL     1       4.445   7.087  17.648  0.00  0.00    +0.000 A 
ATOM     17  C   UNL     1       3.087   6.880  18.079  0.00  0.00    +0.000 A 
ATOM     18  C   UNL     1       2.646   5.572  17.957  0.00  0.00    +0.000 A 
ATOM     19  C   UNL     1       3.475   4.558  17.382  0.00  0.00    +0.000 A 
ATOM     20  C   UNL     1       4.782   4.831  16.886  0.00  0.00    +0.000 A 
BRANCH  15  22
ATOM     21  C   UNL     1       7.504   6.964  17.455  0.00  0.00    +0.000 C 
ATOM     22  O   UNL     1       6.530   6.412  16.579  0.00  0.00    +0.000 OA
ENDBRANCH  15  22
BRANCH  19  23
ATOM     23  O   UNL     1       2.819   3.343  17.333  0.00  0.00    +0.000 OA
ATOM     24  C   UNL     1       2.251   2.830  18.533  0.00  0.00    +0.000 C 
ENDBRANCH  19  23
BRANCH  20  25
ATOM     25  O   UNL     1       5.437   3.786  16.290  0.00  0.00    +0.000 OA
ATOM     26  C   UNL     1       5.878   3.762  14.940  0.00  0.00    +0.000 C 
ENDBRANCH  20  25
ENDBRANCH   1  17
BRANCH   3  27
ATOM     27  C   UNL     1       2.665  11.338  17.826  0.00  0.00    +0.000 C 
BRANCH  27  28
ATOM     28  N   UNL     1       1.988  12.624  17.595  0.00  0.00    +0.000 NA
ATOM     29  H   UNL     1       1.078  12.533  18.057  0.00  0.00    +0.000 HD
BRANCH  28  30
ATOM     30  C   UNL     1       2.712  13.720  18.254  0.00  0.00    +0.000 C 
BRANCH  30  31
ATOM     31  C   UNL     1       1.761  14.827  18.695  0.00  0.00    +0.000 C 
BRANCH  31  32
ATOM     32  C   UNL     1       0.429  14.257  19.160  0.00  0.00    +0.000 C 
BRANCH  32  33
ATOM     33  N   UNL     1      -0.348  15.244  19.928  0.00  0.00    +0.000 NA
ATOM     34  C   UNL     1      -0.741  16.392  19.106  0.00  0.00    +0.000 C 
ATOM     35  C   UNL     1      -1.531  14.596  20.492  0.00  0.00    +0.000 C 
ENDBRANCH  32  33
ENDBRANCH  31  32
ENDBRANCH  30  31
ENDBRANCH  28  30
ENDBRANCH  27  28
ENDBRANCH   3  27
TORSDOF 10
ENDMDL
MODEL 9
REMARK VINA RESULT:      -7.1      1.722      2.517
REMARK  Name = 
REMARK  15 active torsions:
REMARK  status: ('A' for Active; 'I' for Inactive)
REMARK    1  A    between atoms: C_1  and  O_2
REMARK    2  A    between atoms: O_2  and  C_3
REMARK    3  A    between atoms: C_5  and  C_6
REMARK    4  A    between atoms: C_8  and  C_9
REMARK    5  A    between atoms: C_9  and  N_10
REMARK    6  A    between atoms: N_10  and  C_11
REMARK    7  A    between atoms: C_11  and  C_12
REMARK    8  A    between atoms: C_12  and  C_13
REMARK    9  A    between atoms: C_13  and  N_14
REMARK   10  A    between atoms: N_14  and  C_15
REMARK   11  A    between atoms: N_14  and  C_16
REMARK   12  A    between atoms: C_28  and  O_29
REMARK   13  A    between atoms: O_29  and  C_30
REMARK   14  A    between atoms: C_31  and  O_32
REMARK   15  A    between atoms: O_32  and  C_33
REMARK                            x       y       z     vdW  Elec       q    Type
REMARK                         _______ _______ _______ _____ _____    ______ ____
ROOT
ATOM      1  C   UNL     1       2.071   7.913  19.005  0.00  0.00    +0.000 A 
ATOM      2  N   UNL     1       2.236   8.681  17.880  0.00  0.00    +0.000 NA
ATOM      3  C   UNL     1       1.714   9.904  17.815  0.00  0.00    +0.000 A 
ATOM      4  C   UNL     1       0.474  10.115  18.319  0.00  0.00    +0.000 A 
ATOM      5  C   UNL     1       0.548   9.719  19.657  0.00  0.00    +0.000 A 
ATOM      6  C   UNL     1       1.317   8.586  20.032  0.00  0.00    +0.000 A 
ATOM      7  N   UNL     1       1.072   8.475  21.400  0.00  0.00    +0.000 N 
ATOM      8  C   UNL     1       0.216   9.493  21.861  0.00  0.00    +0.000 A 
ATOM      9  C   UNL     1      -0.323   9.816  23.122  0.00  0.00    +0.000 A 
ATOM     10  C   UNL     1      -1.173  10.947  23.226  0.00  0.00    +0.000 A 
ATOM     11  C   UNL     1      -1.464  11.756  22.130  0.00  0.00    +0.000 A 
ATOM     12  C   UNL     1      -0.923  11.425  20.895  0.00  0.00    +0.000 A 
ATOM     13  C   UNL     1      -0.106  10.281  20.768  0.00  0.00    +0.000 A 
ATOM     14  H   UNL     1       1.510   7.806  22.016  0.00  0.00    +0.000 HD
ENDROOT
BRANCH   1  17
ATOM     15  C   UNL     1       2.452   4.166  18.211  0.00  0.00    +0.000 A 
ATOM     16  C   UNL     1       2.014   5.500  18.303  0.00  0.00    +0.000 A 
ATOM     17  C   UNL     1       2.781   6.609  18.807  0.00  0.00    +0.000 A 
ATOM     18  C   UNL     1       4.097   6.298  19.111  0.00  0.00    +0.000 A 
ATOM     19  C   UNL     1       4.593   4.962  18.988  0.00  0.00    +0.000 A 
ATOM     20  C   UNL     1       3.770   3.877  18.569  0.00  0.00    +0.000 A 
BRANCH  15  22
ATOM     21  C   UNL     1       0.869   2.416  18.737  0.00  0.00    +0.000 C 
ATOM     22  O   UNL     1       1.646   3.144  17.795  0.00  0.00    +0.000 OA
ENDBRANCH  15  22
BRANCH  19  23
ATOM     23  O   UNL     1       5.917   4.882  19.374  0.00  0.00    +0.000 OA
ATOM     24  C   UNL     1       6.925   5.129  18.400  0.00  0.00    +0.000 C 
ENDBRANCH  19  23
BRANCH  20  25
ATOM     25  O   UNL     1       4.351   2.637  18.569  0.00  0.00    +0.000 OA
ATOM     26  C   UNL     1       4.412   1.764  19.687  0.00  0.00    +0.000 C 
ENDBRANCH  20  25
ENDBRANCH   1  17
BRANCH   3  27
ATOM     27  C   UNL     1       2.759  10.999  17.889  0.00  0.00    +0.000 C 
BRANCH  27  28
ATOM     28  N   UNL     1       2.153  12.323  17.675  0.00  0.00    +0.000 NA
ATOM     29  H   UNL     1       1.242  12.277  18.141  0.00  0.00    +0.000 HD
BRANCH  28  30
ATOM     30  C   UNL     1       2.940  13.371  18.340  0.00  0.00    +0.000 C 
BRANCH  30  31
ATOM     31  C   UNL     1       2.245  14.726  18.254  0.00  0.00    +0.000 C 
BRANCH  31  32
ATOM     32  C   UNL     1       3.204  15.808  17.782  0.00  0.00    +0.000 C 
BRANCH  32  33
ATOM     33  N   UNL     1       2.824  17.134  18.295  0.00  0.00    +0.000 NA
ATOM     34  C   UNL     1       1.556  17.600  17.726  0.00  0.00    +0.000 C 
ATOM     35  C   UNL     1       2.735  17.082  19.753  0.00  0.00    +0.000 C 
ENDBRANCH  32  33
ENDBRANCH  31  32
ENDBRANCH  30  31
ENDBRANCH  28  30
ENDBRANCH  27  28
ENDBRANCH   3  27
TORSDOF 10
ENDMDL
