MODEL 1
REMARK VINA RESULT:      -6.8      0.000      0.000
REMARK  Name = 
REMARK  2 active torsions:
REMARK  status: ('A' for Active; 'I' for Inactive)
REMARK    1  A    between atoms: N_2  and  C_4
REMARK    2  A    between atoms: C_13  and  N_14
REMARK                            x       y       z     vdW  Elec       q    Type
REMARK                         _______ _______ _______ _____ _____    ______ ____
ROOT
ATOM      1  C   UNL     1       5.379   4.465  16.589  0.00  0.00    +0.000 A 
ATOM      2  C   UNL     1       4.065   4.007  16.474  0.00  0.00    +0.000 A 
ATOM      3  C   UNL     1       3.386   3.556  17.595  0.00  0.00    +0.000 A 
ATOM      4  N   UNL     1       2.123   3.124  17.460  0.00  0.00    +0.000 NA
ATOM      5  C   UNL     1       1.516   2.675  18.581  0.00  0.00    +0.000 A 
ATOM      6  C   UNL     1       2.154   2.655  19.804  0.00  0.00    +0.000 A 
ATOM      7  N   UNL     1       3.422   3.099  19.963  0.00  0.00    +0.000 NA
ATOM      8  C   UNL     1       4.038   3.556  18.862  0.00  0.00    +0.000 A 
ATOM      9  C   UNL     1       5.337   4.033  18.964  0.00  0.00    +0.000 A 
ATOM     10  C   UNL     1       6.006   4.495  17.828  0.00  0.00    +0.000 A 
ENDROOT
BRANCH   1  12
ATOM     11  O   UNL     1       6.666   4.094  14.736  0.00  0.00    +0.000 OA
ATOM     12  N   UNL     1       6.043   4.933  15.394  0.00  0.00    +0.000 N 
ATOM     13  O   UNL     1       5.887   6.126  15.109  0.00  0.00    +0.000 OA
ENDBRANCH   1  12
BRANCH  10  14
ATOM     14  N   UNL     1       7.366   4.963  17.978  0.00  0.00    +0.000 N 
ATOM     15  O   UNL     1       7.517   6.153  18.277  0.00  0.00    +0.000 OA
ATOM     16  O   UNL     1       8.267   4.149  17.748  0.00  0.00    +0.000 OA
ENDBRANCH  10  14
TORSDOF 2
ENDMDL
MODEL 2
REMARK VINA RESULT:      -6.7      0.024      1.103
REMARK  Name = 
REMARK  2 active torsions:
REMARK  status: ('A' for Active; 'I' for Inactive)
REMARK    1  A    between atoms: N_2  and  C_4
REMARK    2  A    between atoms: C_13  and  N_14
REMARK                            x       y       z     vdW  Elec       q    Type
REMARK                         _______ _______ _______ _____ _____    ______ ____
ROOT
ATOM      1  C   UNL     1       5.365   4.468  16.578  0.00  0.00    +0.000 A 
ATOM      2  C   UNL     1       4.052   4.005  16.472  0.00  0.00    +0.000 A 
ATOM      3  C   UNL     1       3.385   3.545  17.596  0.00  0.00    +0.000 A 
ATOM      4  N   UNL     1       2.122   3.108  17.471  0.00  0.00    +0.000 NA
ATOM      5  C   UNL     1       1.528   2.651  18.594  0.00  0.00    +0.000 A 
ATOM      6  C   UNL     1       2.176   2.628  19.812  0.00  0.00    +0.000 A 
ATOM      7  N   UNL     1       3.444   3.076  19.962  0.00  0.00    +0.000 NA
ATOM      8  C   UNL     1       4.049   3.542  18.857  0.00  0.00    +0.000 A 
ATOM      9  C   UNL     1       5.346   4.024  18.950  0.00  0.00    +0.000 A 
ATOM     10  C   UNL     1       6.003   4.495  17.811  0.00  0.00    +0.000 A 
ENDROOT
BRANCH   1  12
ATOM     11  O   UNL     1       5.889   6.145  15.114  0.00  0.00    +0.000 OA
ATOM     12  N   UNL     1       6.017   4.945  15.379  0.00  0.00    +0.000 N 
ATOM     13  O   UNL     1       6.686   4.119  14.750  0.00  0.00    +0.000 OA
ENDBRANCH   1  12
BRANCH  10  14
ATOM     14  N   UNL     1       7.362   4.969  17.951  0.00  0.00    +0.000 N 
ATOM     15  O   UNL     1       8.263   4.147  17.752  0.00  0.00    +0.000 OA
ATOM     16  O   UNL     1       7.511   6.143  18.305  0.00  0.00    +0.000 OA
ENDBRANCH  10  14
TORSDOF 2
ENDMDL
MODEL 3
REMARK VINA RESULT:      -6.7      0.172      2.718
REMARK  Name = 
REMARK  2 active torsions:
REMARK  status: ('A' for Active; 'I' for Inactive)
REMARK    1  A    between atoms: N_2  and  C_4
REMARK    2  A    between atoms: C_13  and  N_14
REMARK                            x       y       z     vdW  Elec       q    Type
REMARK                         _______ _______ _______ _____ _____    ______ ____
ROOT
ATOM      1  C   UNL     1       5.898   4.551  17.925  0.00  0.00    +0.000 A 
ATOM      2  C   UNL     1       5.238   4.049  19.049  0.00  0.00    +0.000 A 
ATOM      3  C   UNL     1       3.969   3.507  18.925  0.00  0.00    +0.000 A 
ATOM      4  N   UNL     1       3.357   3.029  20.020  0.00  0.00    +0.000 NA
ATOM      5  C   UNL     1       2.113   2.531  19.846  0.00  0.00    +0.000 A 
ATOM      6  C   UNL     1       1.494   2.514  18.612  0.00  0.00    +0.000 A 
ATOM      7  N   UNL     1       2.100   2.979  17.496  0.00  0.00    +0.000 NA
ATOM      8  C   UNL     1       3.340   3.470  17.648  0.00  0.00    +0.000 A 
ATOM      9  C   UNL     1       4.015   3.953  16.537  0.00  0.00    +0.000 A 
ATOM     10  C   UNL     1       5.299   4.487  16.673  0.00  0.00    +0.000 A 
ENDROOT
BRANCH   1  12
ATOM     11  O   UNL     1       8.173   4.326  17.941  0.00  0.00    +0.000 OA
ATOM     12  N   UNL     1       7.223   5.099  18.102  0.00  0.00    +0.000 N 
ATOM     13  O   UNL     1       7.290   6.307  18.351  0.00  0.00    +0.000 OA
ENDBRANCH   1  12
BRANCH  10  14
ATOM     14  N   UNL     1       5.957   4.998  15.491  0.00  0.00    +0.000 N 
ATOM     15  O   UNL     1       6.706   4.220  14.890  0.00  0.00    +0.000 OA
ATOM     16  O   UNL     1       5.754   6.183  15.206  0.00  0.00    +0.000 OA
ENDBRANCH  10  14
TORSDOF 2
ENDMDL
MODEL 4
REMARK VINA RESULT:      -6.7      0.244      2.736
REMARK  Name = 
REMARK  2 active torsions:
REMARK  status: ('A' for Active; 'I' for Inactive)
REMARK    1  A    between atoms: N_2  and  C_4
REMARK    2  A    between atoms: C_13  and  N_14
REMARK                            x       y       z     vdW  Elec       q    Type
REMARK                         _______ _______ _______ _____ _____    ______ ____
ROOT
ATOM      1  C   UNL     1       5.855   4.568  17.992  0.00  0.00    +0.000 A 
ATOM      2  C   UNL     1       5.179   4.075  19.110  0.00  0.00    +0.000 A 
ATOM      3  C   UNL     1       3.919   3.516  18.967  0.00  0.00    +0.000 A 
ATOM      4  N   UNL     1       3.289   3.046  20.056  0.00  0.00    +0.000 NA
ATOM      5  C   UNL     1       2.055   2.531  19.863  0.00  0.00    +0.000 A 
ATOM      6  C   UNL     1       1.462   2.488  18.618  0.00  0.00    +0.000 A 
ATOM      7  N   UNL     1       2.086   2.945  17.507  0.00  0.00    +0.000 NA
ATOM      8  C   UNL     1       3.316   3.453  17.678  0.00  0.00    +0.000 A 
ATOM      9  C   UNL     1       4.010   3.928  16.574  0.00  0.00    +0.000 A 
ATOM     10  C   UNL     1       5.284   4.479  16.729  0.00  0.00    +0.000 A 
ENDROOT
BRANCH   1  12
ATOM     11  O   UNL     1       7.228   6.347  18.416  0.00  0.00    +0.000 OA
ATOM     12  N   UNL     1       7.171   5.134  18.188  0.00  0.00    +0.000 N 
ATOM     13  O   UNL     1       8.120   4.344  18.160  0.00  0.00    +0.000 OA
ENDBRANCH   1  12
BRANCH  10  14
ATOM     14  N   UNL     1       5.961   4.981  15.554  0.00  0.00    +0.000 N 
ATOM     15  O   UNL     1       5.707   6.142  15.216  0.00  0.00    +0.000 OA
ATOM     16  O   UNL     1       6.701   4.192  14.955  0.00  0.00    +0.000 OA
ENDBRANCH  10  14
TORSDOF 2
ENDMDL
MODEL 5
REMARK VINA RESULT:      -6.5      1.101      2.805
REMARK  Name = 
REMARK  2 active torsions:
REMARK  status: ('A' for Active; 'I' for Inactive)
REMARK    1  A    between atoms: N_2  and  C_4
REMARK    2  A    between atoms: C_13  and  N_14
REMARK                            x       y       z     vdW  Elec       q    Type
REMARK                         _______ _______ _______ _____ _____    ______ ____
ROOT
ATOM      1  C   UNL     1       6.001   5.311  18.301  0.00  0.00    +0.000 A 
ATOM      2  C   UNL     1       5.011   5.178  19.277  0.00  0.00    +0.000 A 
ATOM      3  C   UNL     1       3.791   4.605  18.953  0.00  0.00    +0.000 A 
ATOM      4  N   UNL     1       2.855   4.485  19.909  0.00  0.00    +0.000 NA
ATOM      5  C   UNL     1       1.678   3.939  19.534  0.00  0.00    +0.000 A 
ATOM      6  C   UNL     1       1.438   3.526  18.239  0.00  0.00    +0.000 A 
ATOM      7  N   UNL     1       2.372   3.627  17.266  0.00  0.00    +0.000 NA
ATOM      8  C   UNL     1       3.552   4.160  17.622  0.00  0.00    +0.000 A 
ATOM      9  C   UNL     1       4.553   4.280  16.669  0.00  0.00    +0.000 A 
ATOM     10  C   UNL     1       5.782   4.849  17.010  0.00  0.00    +0.000 A 
ENDROOT
BRANCH   1  12
ATOM     11  O   UNL     1       7.994   5.236  19.420  0.00  0.00    +0.000 OA
ATOM     12  N   UNL     1       7.260   5.907  18.687  0.00  0.00    +0.000 N 
ATOM     13  O   UNL     1       7.513   7.018  18.209  0.00  0.00    +0.000 OA
ENDBRANCH   1  12
BRANCH  10  14
ATOM     14  N   UNL     1       6.789   4.973  15.979  0.00  0.00    +0.000 N 
ATOM     15  O   UNL     1       7.838   4.342  16.145  0.00  0.00    +0.000 OA
ATOM     16  O   UNL     1       6.537   5.737  15.041  0.00  0.00    +0.000 OA
ENDBRANCH  10  14
TORSDOF 2
ENDMDL
MODEL 6
REMARK VINA RESULT:      -6.5      1.198      2.634
REMARK  Name = 
REMARK  2 active torsions:
REMARK  status: ('A' for Active; 'I' for Inactive)
REMARK    1  A    between atoms: N_2  and  C_4
REMARK    2  A    between atoms: C_13  and  N_14
REMARK                            x       y       z     vdW  Elec       q    Type
REMARK                         _______ _______ _______ _____ _____    ______ ____
ROOT
ATOM      1  C   UNL     1       6.027   4.710  18.149  0.00  0.00    +0.000 A 
ATOM      2  C   UNL     1       5.376   3.813  18.999  0.00  0.00    +0.000 A 
ATOM      3  C   UNL     1       3.991   3.772  19.035  0.00  0.00    +0.000 A 
ATOM      4  N   UNL     1       3.388   2.900  19.858  0.00  0.00    +0.000 NA
ATOM      5  C   UNL     1       2.037   2.916  19.868  0.00  0.00    +0.000 A 
ATOM      6  C   UNL     1       1.306   3.782  19.081  0.00  0.00    +0.000 A 
ATOM      7  N   UNL     1       1.895   4.659  18.236  0.00  0.00    +0.000 NA
ATOM      8  C   UNL     1       3.237   4.652  18.206  0.00  0.00    +0.000 A 
ATOM      9  C   UNL     1       3.898   5.523  17.351  0.00  0.00    +0.000 A 
ATOM     10  C   UNL     1       5.294   5.547  17.317  0.00  0.00    +0.000 A 
ENDROOT
BRANCH   1  12
ATOM     11  O   UNL     1       8.024   4.229  17.146  0.00  0.00    +0.000 OA
ATOM     12  N   UNL     1       7.472   4.712  18.140  0.00  0.00    +0.000 N 
ATOM     13  O   UNL     1       8.028   5.241  19.109  0.00  0.00    +0.000 OA
ENDBRANCH   1  12
BRANCH  10  14
ATOM     14  N   UNL     1       5.941   6.486  16.426  0.00  0.00    +0.000 N 
ATOM     15  O   UNL     1       6.531   7.436  16.950  0.00  0.00    +0.000 OA
ATOM     16  O   UNL     1       5.809   6.287  15.214  0.00  0.00    +0.000 OA
ENDBRANCH  10  14
TORSDOF 2
ENDMDL
MODEL 7
REMARK VINA RESULT:      -6.5      1.245      1.498
REMARK  Name = 
REMARK  2 active torsions:
REMARK  status: ('A' for Active; 'I' for Inactive)
REMARK    1  A    between atoms: N_2  and  C_4
REMARK    2  A    between atoms: C_13  and  N_14
REMARK                            x       y       z     vdW  Elec       q    Type
REMARK                         _______ _______ _______ _____ _____    ______ ____
ROOT
ATOM      1  C   UNL     1       5.219   5.591  17.357  0.00  0.00    +0.000 A 
ATOM      2  C   UNL     1       3.825   5.547  17.421  0.00  0.00    +0.000 A 
ATOM      3  C   UNL     1       3.197   4.660  18.280  0.00  0.00    +0.000 A 
ATOM      4  N   UNL     1       1.856   4.638  18.327  0.00  0.00    +0.000 NA
ATOM      5  C   UNL     1       1.296   3.740  19.166  0.00  0.00    +0.000 A 
ATOM      6  C   UNL     1       2.054   2.883  19.938  0.00  0.00    +0.000 A 
ATOM      7  N   UNL     1       3.406   2.898  19.915  0.00  0.00    +0.000 NA
ATOM      8  C   UNL     1       3.981   3.790  19.093  0.00  0.00    +0.000 A 
ATOM      9  C   UNL     1       5.365   3.860  19.033  0.00  0.00    +0.000 A 
ATOM     10  C   UNL     1       5.986   4.766  18.170  0.00  0.00    +0.000 A 
ENDROOT
BRANCH   1  12
ATOM     11  O   UNL     1       5.629   6.364  15.245  0.00  0.00    +0.000 OA
ATOM     12  N   UNL     1       5.829   6.538  16.451  0.00  0.00    +0.000 N 
ATOM     13  O   UNL     1       6.457   7.468  16.968  0.00  0.00    +0.000 OA
ENDBRANCH   1  12
BRANCH  10  14
ATOM     14  N   UNL     1       7.431   4.789  18.126  0.00  0.00    +0.000 N 
ATOM     15  O   UNL     1       7.966   4.329  17.111  0.00  0.00    +0.000 OA
ATOM     16  O   UNL     1       8.014   5.222  19.126  0.00  0.00    +0.000 OA
ENDBRANCH  10  14
TORSDOF 2
ENDMDL
MODEL 8
REMARK VINA RESULT:      -6.5      1.250      2.768
REMARK  Name = 
REMARK  2 active torsions:
REMARK  status: ('A' for Active; 'I' for Inactive)
REMARK    1  A    between atoms: N_2  and  C_4
REMARK    2  A    between atoms: C_13  and  N_14
REMARK                            x       y       z     vdW  Elec       q    Type
REMARK                         _______ _______ _______ _____ _____    ______ ____
ROOT
ATOM      1  C   UNL     1       5.991   4.772  18.153  0.00  0.00    +0.000 A 
ATOM      2  C   UNL     1       5.369   3.861  19.010  0.00  0.00    +0.000 A 
ATOM      3  C   UNL     1       3.986   3.805  19.078  0.00  0.00    +0.000 A 
ATOM      4  N   UNL     1       3.411   2.919  19.906  0.00  0.00    +0.000 NA
ATOM      5  C   UNL     1       2.060   2.921  19.948  0.00  0.00    +0.000 A 
ATOM      6  C   UNL     1       1.303   3.786  19.185  0.00  0.00    +0.000 A 
ATOM      7  N   UNL     1       1.863   4.676  18.334  0.00  0.00    +0.000 NA
ATOM      8  C   UNL     1       3.204   4.684  18.273  0.00  0.00    +0.000 A 
ATOM      9  C   UNL     1       3.836   5.568  17.412  0.00  0.00    +0.000 A 
ATOM     10  C   UNL     1       5.231   5.608  17.346  0.00  0.00    +0.000 A 
ENDROOT
BRANCH   1  12
ATOM     11  O   UNL     1       8.018   5.214  19.115  0.00  0.00    +0.000 OA
ATOM     12  N   UNL     1       7.435   4.789  18.112  0.00  0.00    +0.000 N 
ATOM     13  O   UNL     1       7.962   4.330  17.093  0.00  0.00    +0.000 OA
ENDBRANCH   1  12
BRANCH  10  14
ATOM     14  N   UNL     1       5.847   6.561  16.449  0.00  0.00    +0.000 N 
ATOM     15  O   UNL     1       5.717   6.352  15.238  0.00  0.00    +0.000 OA
ATOM     16  O   UNL     1       6.493   7.479  16.966  0.00  0.00    +0.000 OA
ENDBRANCH  10  14
TORSDOF 2
ENDMDL
MODEL 9
REMARK VINA RESULT:      -6.5      1.242      1.478
REMARK  Name = 
REMARK  2 active torsions:
REMARK  status: ('A' for Active; 'I' for Inactive)
REMARK    1  A    between atoms: N_2  and  C_4
REMARK    2  A    between atoms: C_13  and  N_14
REMARK                            x       y       z     vdW  Elec       q    Type
REMARK                         _______ _______ _______ _____ _____    ______ ____
ROOT
ATOM      1  C   UNL     1       5.220   5.592  17.367  0.00  0.00    +0.000 A 
ATOM      2  C   UNL     1       3.825   5.560  17.433  0.00  0.00    +0.000 A 
ATOM      3  C   UNL     1       3.192   4.674  18.290  0.00  0.00    +0.000 A 
ATOM      4  N   UNL     1       1.850   4.663  18.339  0.00  0.00    +0.000 NA
ATOM      5  C   UNL     1       1.284   3.766  19.175  0.00  0.00    +0.000 A 
ATOM      6  C   UNL     1       2.037   2.899  19.942  0.00  0.00    +0.000 A 
ATOM      7  N   UNL     1       3.389   2.904  19.917  0.00  0.00    +0.000 NA
ATOM      8  C   UNL     1       3.970   3.795  19.097  0.00  0.00    +0.000 A 
ATOM      9  C   UNL     1       5.354   3.853  19.036  0.00  0.00    +0.000 A 
ATOM     10  C   UNL     1       5.981   4.758  18.175  0.00  0.00    +0.000 A 
ENDROOT
BRANCH   1  12
ATOM     11  O   UNL     1       6.480   7.460  16.976  0.00  0.00    +0.000 OA
ATOM     12  N   UNL     1       5.836   6.538  16.464  0.00  0.00    +0.000 N 
ATOM     13  O   UNL     1       5.705   6.312  15.257  0.00  0.00    +0.000 OA
ENDBRANCH   1  12
BRANCH  10  14
ATOM     14  N   UNL     1       7.427   4.769  18.129  0.00  0.00    +0.000 N 
ATOM     15  O   UNL     1       8.012   5.257  19.101  0.00  0.00    +0.000 OA
ATOM     16  O   UNL     1       7.956   4.334  17.101  0.00  0.00    +0.000 OA
ENDBRANCH  10  14
TORSDOF 2
ENDMDL
