MODEL 1
REMARK VINA RESULT:      -7.0      0.000      0.000
REMARK  Name = 
REMARK  4 active torsions:
REMARK  status: ('A' for Active; 'I' for Inactive)
REMARK    1  A    between atoms: C_2  and  C_3
REMARK    2  A    between atoms: C_3  and  C_21
REMARK    3  A    between atoms: C_4  and  C_5
REMARK    4  A    between atoms: C_4  and  C_15
REMARK                            x       y       z     vdW  Elec       q    Type
REMARK                         _______ _______ _______ _____ _____    ______ ____
ROOT
ATOM      1  C   UNL     1      -1.248  14.279  22.134  0.00  0.00    +0.000 C 
ATOM      2  C   UNL     1      -1.992  13.147  21.915  0.00  0.00    +0.000 C 
ENDROOT
BRANCH   2   3
ATOM      3  C   UNL     1      -1.655  12.060  20.970  0.00  0.00    +0.000 C 
ATOM      4  C   UNL     1      -0.966  10.953  21.322  0.00  0.00    +0.000 C 
ATOM      5  C   UNL     1      -0.286  10.153  20.280  0.00  0.00    +0.000 A 
ATOM      6  C   UNL     1       0.817   9.356  20.617  0.00  0.00    +0.000 A 
ATOM      7  C   UNL     1       1.642   8.827  19.616  0.00  0.00    +0.000 A 
ATOM      8  C   UNL     1       1.358   9.064  18.272  0.00  0.00    +0.000 A 
ATOM      9  C   UNL     1       0.233   9.807  17.924  0.00  0.00    +0.000 A 
ATOM     10  C   UNL     1      -0.583  10.361  18.920  0.00  0.00    +0.000 A 
ATOM     11  C   UNL     1      -1.775  11.192  18.544  0.00  0.00    +0.000 C 
ATOM     12  C   UNL     1      -2.034  12.341  19.519  0.00  0.00    +0.000 C 
ENDBRANCH   2   3
BRANCH   1  14
ATOM     13  O   UNL     1       1.114  14.203  22.170  0.00  0.00    +0.000 OA
ATOM     14  C   UNL     1       0.129  14.661  21.569  0.00  0.00    +0.000 C 
ATOM     15  N   UNL     1       0.369  15.493  20.492  0.00  0.00    +0.000 N 
ATOM     16  C   UNL     1       1.757  15.691  20.078  0.00  0.00    +0.000 C 
ATOM     17  C   UNL     1       1.738  16.760  18.990  0.00  0.00    +0.000 C 
ATOM     18  C   UNL     1       0.329  16.675  18.452  0.00  0.00    +0.000 C 
ATOM     19  C   UNL     1      -0.488  16.349  19.695  0.00  0.00    +0.000 C 
ENDBRANCH   1  14
BRANCH   2  20
ATOM     20  C   UNL     1      -3.300  12.995  22.635  0.00  0.00    +0.000 A 
ATOM     21  C   UNL     1      -3.342  12.390  23.902  0.00  0.00    +0.000 A 
ATOM     22  C   UNL     1      -4.542  12.299  24.606  0.00  0.00    +0.000 A 
ATOM     23  C   UNL     1      -5.716  12.791  24.041  0.00  0.00    +0.000 A 
ATOM     24  C   UNL     1      -5.690  13.381  22.778  0.00  0.00    +0.000 A 
ATOM     25  C   UNL     1      -4.485  13.493  22.079  0.00  0.00    +0.000 A 
ENDBRANCH   2  20
BRANCH   1  26
ATOM     26  C   UNL     1      -1.696  15.201  23.254  0.00  0.00    +0.000 A 
ATOM     27  C   UNL     1      -1.282  14.946  24.577  0.00  0.00    +0.000 A 
ATOM     28  C   UNL     1      -1.708  15.744  25.643  0.00  0.00    +0.000 A 
ATOM     29  C   UNL     1      -2.578  16.811  25.394  0.00  0.00    +0.000 A 
ATOM     30  C   UNL     1      -2.974  17.092  24.090  0.00  0.00    +0.000 A 
ATOM     31  C   UNL     1      -2.540  16.297  23.020  0.00  0.00    +0.000 A 
ENDBRANCH   1  26
TORSDOF 4
ENDMDL
MODEL 2
REMARK VINA RESULT:      -6.9      0.195      1.242
REMARK  Name = 
REMARK  4 active torsions:
REMARK  status: ('A' for Active; 'I' for Inactive)
REMARK    1  A    between atoms: C_2  and  C_3
REMARK    2  A    between atoms: C_3  and  C_21
REMARK    3  A    between atoms: C_4  and  C_5
REMARK    4  A    between atoms: C_4  and  C_15
REMARK                            x       y       z     vdW  Elec       q    Type
REMARK                         _______ _______ _______ _____ _____    ______ ____
ROOT
ATOM      1  C   UNL     1      -1.251  14.400  22.242  0.00  0.00    +0.000 C 
ATOM      2  C   UNL     1      -2.025  13.290  22.020  0.00  0.00    +0.000 C 
ENDROOT
BRANCH   2   3
ATOM      3  C   UNL     1      -1.725  12.204  21.060  0.00  0.00    +0.000 C 
ATOM      4  C   UNL     1      -1.007  11.106  21.376  0.00  0.00    +0.000 C 
ATOM      5  C   UNL     1      -0.373  10.312  20.301  0.00  0.00    +0.000 A 
ATOM      6  C   UNL     1       0.755   9.527  20.580  0.00  0.00    +0.000 A 
ATOM      7  C   UNL     1       1.532   9.007  19.537  0.00  0.00    +0.000 A 
ATOM      8  C   UNL     1       1.175   9.238  18.210  0.00  0.00    +0.000 A 
ATOM      9  C   UNL     1       0.025   9.968  17.921  0.00  0.00    +0.000 A 
ATOM     10  C   UNL     1      -0.744  10.514  18.958  0.00  0.00    +0.000 A 
ATOM     11  C   UNL     1      -1.963  11.332  18.644  0.00  0.00    +0.000 C 
ATOM     12  C   UNL     1      -2.183  12.479  19.630  0.00  0.00    +0.000 C 
ENDBRANCH   2   3
BRANCH   1  14
ATOM     13  O   UNL     1       1.111  14.330  22.292  0.00  0.00    +0.000 OA
ATOM     14  C   UNL     1       0.128  14.754  21.663  0.00  0.00    +0.000 C 
ATOM     15  N   UNL     1       0.373  15.531  20.547  0.00  0.00    +0.000 N 
ATOM     16  C   UNL     1       1.762  15.710  20.129  0.00  0.00    +0.000 C 
ATOM     17  C   UNL     1       1.747  16.722  18.988  0.00  0.00    +0.000 C 
ATOM     18  C   UNL     1       0.340  16.607  18.449  0.00  0.00    +0.000 C 
ATOM     19  C   UNL     1      -0.481  16.344  19.703  0.00  0.00    +0.000 C 
ENDBRANCH   1  14
BRANCH   2  20
ATOM     20  C   UNL     1      -3.327  13.162  22.754  0.00  0.00    +0.000 A 
ATOM     21  C   UNL     1      -4.506  13.682  22.197  0.00  0.00    +0.000 A 
ATOM     22  C   UNL     1      -5.731  13.514  22.842  0.00  0.00    +0.000 A 
ATOM     23  C   UNL     1      -5.786  12.845  24.062  0.00  0.00    +0.000 A 
ATOM     24  C   UNL     1      -4.620  12.337  24.633  0.00  0.00    +0.000 A 
ATOM     25  C   UNL     1      -3.394  12.484  23.978  0.00  0.00    +0.000 A 
ENDBRANCH   2  20
BRANCH   1  26
ATOM     26  C   UNL     1      -1.663  15.321  23.377  0.00  0.00    +0.000 A 
ATOM     27  C   UNL     1      -2.453  16.455  23.104  0.00  0.00    +0.000 A 
ATOM     28  C   UNL     1      -2.816  17.352  24.113  0.00  0.00    +0.000 A 
ATOM     29  C   UNL     1      -2.373  17.128  25.421  0.00  0.00    +0.000 A 
ATOM     30  C   UNL     1      -1.615  15.998  25.711  0.00  0.00    +0.000 A 
ATOM     31  C   UNL     1      -1.257  15.094  24.700  0.00  0.00    +0.000 A 
ENDBRANCH   1  26
TORSDOF 4
ENDMDL
MODEL 3
REMARK VINA RESULT:      -6.6      2.434      5.253
REMARK  Name = 
REMARK  4 active torsions:
REMARK  status: ('A' for Active; 'I' for Inactive)
REMARK    1  A    between atoms: C_2  and  C_3
REMARK    2  A    between atoms: C_3  and  C_21
REMARK    3  A    between atoms: C_4  and  C_5
REMARK    4  A    between atoms: C_4  and  C_15
REMARK                            x       y       z     vdW  Elec       q    Type
REMARK                         _______ _______ _______ _____ _____    ______ ____
ROOT
ATOM      1  C   UNL     1      -2.997  13.869  22.610  0.00  0.00    +0.000 C 
ATOM      2  C   UNL     1      -2.611  13.792  21.296  0.00  0.00    +0.000 C 
ENDROOT
BRANCH   2   3
ATOM      3  C   UNL     1      -3.150  12.851  20.290  0.00  0.00    +0.000 C 
ATOM      4  C   UNL     1      -2.395  11.939  19.641  0.00  0.00    +0.000 C 
ATOM      5  C   UNL     1      -2.878  11.364  18.367  0.00  0.00    +0.000 A 
ATOM      6  C   UNL     1      -1.962  10.855  17.435  0.00  0.00    +0.000 A 
ATOM      7  C   UNL     1      -2.364  10.578  16.123  0.00  0.00    +0.000 A 
ATOM      8  C   UNL     1      -3.688  10.776  15.736  0.00  0.00    +0.000 A 
ATOM      9  C   UNL     1      -4.620  11.227  16.667  0.00  0.00    +0.000 A 
ATOM     10  C   UNL     1      -4.220  11.532  17.976  0.00  0.00    +0.000 A 
ATOM     11  C   UNL     1      -5.217  12.052  18.970  0.00  0.00    +0.000 C 
ATOM     12  C   UNL     1      -4.619  13.072  19.939  0.00  0.00    +0.000 C 
ENDBRANCH   2   3
BRANCH   1  14
ATOM     13  O   UNL     1      -3.818  11.995  23.793  0.00  0.00    +0.000 OA
ATOM     14  C   UNL     1      -4.118  13.111  23.339  0.00  0.00    +0.000 C 
ATOM     15  N   UNL     1      -5.424  13.532  23.495  0.00  0.00    +0.000 N 
ATOM     16  C   UNL     1      -6.328  12.684  24.269  0.00  0.00    +0.000 C 
ATOM     17  C   UNL     1      -7.718  13.302  24.146  0.00  0.00    +0.000 C 
ATOM     18  C   UNL     1      -7.421  14.746  23.815  0.00  0.00    +0.000 C 
ATOM     19  C   UNL     1      -6.176  14.644  22.945  0.00  0.00    +0.000 C 
ENDBRANCH   1  14
BRANCH   2  20
ATOM     20  C   UNL     1      -1.505  14.686  20.817  0.00  0.00    +0.000 A 
ATOM     21  C   UNL     1      -0.164  14.321  21.021  0.00  0.00    +0.000 A 
ATOM     22  C   UNL     1       0.871  15.114  20.525  0.00  0.00    +0.000 A 
ATOM     23  C   UNL     1       0.576  16.292  19.843  0.00  0.00    +0.000 A 
ATOM     24  C   UNL     1      -0.751  16.673  19.648  0.00  0.00    +0.000 A 
ATOM     25  C   UNL     1      -1.790  15.869  20.124  0.00  0.00    +0.000 A 
ENDBRANCH   2  20
BRANCH   1  26
ATOM     26  C   UNL     1      -2.425  15.005  23.439  0.00  0.00    +0.000 A 
ATOM     27  C   UNL     1      -1.379  14.748  24.348  0.00  0.00    +0.000 A 
ATOM     28  C   UNL     1      -0.855  15.757  25.162  0.00  0.00    +0.000 A 
ATOM     29  C   UNL     1      -1.389  17.047  25.084  0.00  0.00    +0.000 A 
ATOM     30  C   UNL     1      -2.402  17.323  24.171  0.00  0.00    +0.000 A 
ATOM     31  C   UNL     1      -2.923  16.314  23.349  0.00  0.00    +0.000 A 
ENDBRANCH   1  26
TORSDOF 4
ENDMDL
MODEL 4
REMARK VINA RESULT:      -6.5      2.453      5.380
REMARK  Name = 
REMARK  4 active torsions:
REMARK  status: ('A' for Active; 'I' for Inactive)
REMARK    1  A    between atoms: C_2  and  C_3
REMARK    2  A    between atoms: C_3  and  C_21
REMARK    3  A    between atoms: C_4  and  C_5
REMARK    4  A    between atoms: C_4  and  C_15
REMARK                            x       y       z     vdW  Elec       q    Type
REMARK                         _______ _______ _______ _____ _____    ______ ____
ROOT
ATOM      1  C   UNL     1      -3.024  13.874  22.662  0.00  0.00    +0.000 C 
ATOM      2  C   UNL     1      -2.623  13.792  21.352  0.00  0.00    +0.000 C 
ENDROOT
BRANCH   2   3
ATOM      3  C   UNL     1      -3.167  12.862  20.339  0.00  0.00    +0.000 C 
ATOM      4  C   UNL     1      -2.419  11.943  19.692  0.00  0.00    +0.000 C 
ATOM      5  C   UNL     1      -2.899  11.379  18.412  0.00  0.00    +0.000 A 
ATOM      6  C   UNL     1      -1.981  10.860  17.487  0.00  0.00    +0.000 A 
ATOM      7  C   UNL     1      -2.377  10.593  16.169  0.00  0.00    +0.000 A 
ATOM      8  C   UNL     1      -3.695  10.812  15.773  0.00  0.00    +0.000 A 
ATOM      9  C   UNL     1      -4.628  11.273  16.697  0.00  0.00    +0.000 A 
ATOM     10  C   UNL     1      -4.234  11.567  18.011  0.00  0.00    +0.000 A 
ATOM     11  C   UNL     1      -5.233  12.098  18.998  0.00  0.00    +0.000 C 
ATOM     12  C   UNL     1      -4.629  13.106  19.976  0.00  0.00    +0.000 C 
ENDBRANCH   2   3
BRANCH   1  14
ATOM     13  O   UNL     1      -3.886  12.021  23.849  0.00  0.00    +0.000 OA
ATOM     14  C   UNL     1      -4.166  13.135  23.376  0.00  0.00    +0.000 C 
ATOM     15  N   UNL     1      -5.471  13.570  23.500  0.00  0.00    +0.000 N 
ATOM     16  C   UNL     1      -6.400  12.739  24.264  0.00  0.00    +0.000 C 
ATOM     17  C   UNL     1      -7.780  13.368  24.104  0.00  0.00    +0.000 C 
ATOM     18  C   UNL     1      -7.463  14.805  23.763  0.00  0.00    +0.000 C 
ATOM     19  C   UNL     1      -6.201  14.681  22.920  0.00  0.00    +0.000 C 
ENDBRANCH   1  14
BRANCH   2  20
ATOM     20  C   UNL     1      -1.495  14.667  20.889  0.00  0.00    +0.000 A 
ATOM     21  C   UNL     1      -1.766  15.869  20.215  0.00  0.00    +0.000 A 
ATOM     22  C   UNL     1      -0.727  16.719  19.835  0.00  0.00    +0.000 A 
ATOM     23  C   UNL     1       0.593  16.364  20.103  0.00  0.00    +0.000 A 
ATOM     24  C   UNL     1       0.875  15.166  20.758  0.00  0.00    +0.000 A 
ATOM     25  C   UNL     1      -0.165  14.323  21.160  0.00  0.00    +0.000 A 
ENDBRANCH   2  20
BRANCH   1  26
ATOM     26  C   UNL     1      -2.441  14.999  23.500  0.00  0.00    +0.000 A 
ATOM     27  C   UNL     1      -2.960  16.303  23.376  0.00  0.00    +0.000 A 
ATOM     28  C   UNL     1      -2.422  17.374  24.096  0.00  0.00    +0.000 A 
ATOM     29  C   UNL     1      -1.334  17.151  24.946  0.00  0.00    +0.000 A 
ATOM     30  C   UNL     1      -0.828  15.864  25.100  0.00  0.00    +0.000 A 
ATOM     31  C   UNL     1      -1.373  14.787  24.384  0.00  0.00    +0.000 A 
ENDBRANCH   1  26
TORSDOF 4
ENDMDL
MODEL 5
REMARK VINA RESULT:      -6.4      2.370      6.507
REMARK  Name = 
REMARK  4 active torsions:
REMARK  status: ('A' for Active; 'I' for Inactive)
REMARK    1  A    between atoms: C_2  and  C_3
REMARK    2  A    between atoms: C_3  and  C_21
REMARK    3  A    between atoms: C_4  and  C_5
REMARK    4  A    between atoms: C_4  and  C_15
REMARK                            x       y       z     vdW  Elec       q    Type
REMARK                         _______ _______ _______ _____ _____    ______ ____
ROOT
ATOM      1  C   UNL     1       0.810  12.745  20.228  0.00  0.00    +0.000 C 
ATOM      2  C   UNL     1      -0.305  13.523  20.407  0.00  0.00    +0.000 C 
ENDROOT
BRANCH   2   3
ATOM      3  C   UNL     1      -1.629  13.045  20.863  0.00  0.00    +0.000 C 
ATOM      4  C   UNL     1      -2.620  12.677  20.024  0.00  0.00    +0.000 C 
ATOM      5  C   UNL     1      -4.017  12.650  20.509  0.00  0.00    +0.000 A 
ATOM      6  C   UNL     1      -5.077  12.790  19.602  0.00  0.00    +0.000 A 
ATOM      7  C   UNL     1      -6.373  13.055  20.061  0.00  0.00    +0.000 A 
ATOM      8  C   UNL     1      -6.629  13.153  21.428  0.00  0.00    +0.000 A 
ATOM      9  C   UNL     1      -5.595  12.959  22.340  0.00  0.00    +0.000 A 
ATOM     10  C   UNL     1      -4.290  12.719  21.887  0.00  0.00    +0.000 A 
ATOM     11  C   UNL     1      -3.169  12.545  22.871  0.00  0.00    +0.000 C 
ATOM     12  C   UNL     1      -1.843  13.120  22.373  0.00  0.00    +0.000 C 
ENDBRANCH   2   3
BRANCH   1  14
ATOM     13  O   UNL     1       0.925  10.927  21.733  0.00  0.00    +0.000 OA
ATOM     14  C   UNL     1       1.015  11.254  20.539  0.00  0.00    +0.000 C 
ATOM     15  N   UNL     1       1.331  10.264  19.629  0.00  0.00    +0.000 N 
ATOM     16  C   UNL     1       1.434   8.891  20.120  0.00  0.00    +0.000 C 
ATOM     17  C   UNL     1       1.941   8.048  18.954  0.00  0.00    +0.000 C 
ATOM     18  C   UNL     1       1.537   8.859  17.746  0.00  0.00    +0.000 C 
ATOM     19  C   UNL     1       1.708  10.293  18.229  0.00  0.00    +0.000 C 
ENDBRANCH   1  14
BRANCH   2  20
ATOM     20  C   UNL     1      -0.228  14.981  20.062  0.00  0.00    +0.000 A 
ATOM     21  C   UNL     1      -0.443  15.407  18.741  0.00  0.00    +0.000 A 
ATOM     22  C   UNL     1      -0.435  16.765  18.422  0.00  0.00    +0.000 A 
ATOM     23  C   UNL     1      -0.189  17.709  19.416  0.00  0.00    +0.000 A 
ATOM     24  C   UNL     1       0.041  17.298  20.729  0.00  0.00    +0.000 A 
ATOM     25  C   UNL     1       0.011  15.940  21.055  0.00  0.00    +0.000 A 
ENDBRANCH   2  20
BRANCH   1  26
ATOM     26  C   UNL     1       2.110  13.457  19.895  0.00  0.00    +0.000 A 
ATOM     27  C   UNL     1       2.935  13.927  20.935  0.00  0.00    +0.000 A 
ATOM     28  C   UNL     1       4.116  14.626  20.671  0.00  0.00    +0.000 A 
ATOM     29  C   UNL     1       4.481  14.879  19.345  0.00  0.00    +0.000 A 
ATOM     30  C   UNL     1       3.692  14.397  18.306  0.00  0.00    +0.000 A 
ATOM     31  C   UNL     1       2.510  13.689  18.570  0.00  0.00    +0.000 A 
ENDBRANCH   1  26
TORSDOF 4
ENDMDL
MODEL 6
REMARK VINA RESULT:      -6.4      0.992      1.335
REMARK  Name = 
REMARK  4 active torsions:
REMARK  status: ('A' for Active; 'I' for Inactive)
REMARK    1  A    between atoms: C_2  and  C_3
REMARK    2  A    between atoms: C_3  and  C_21
REMARK    3  A    between atoms: C_4  and  C_5
REMARK    4  A    between atoms: C_4  and  C_15
REMARK                            x       y       z     vdW  Elec       q    Type
REMARK                         _______ _______ _______ _____ _____    ______ ____
ROOT
ATOM      1  C   UNL     1      -1.039  14.312  22.296  0.00  0.00    +0.000 C 
ATOM      2  C   UNL     1      -1.938  13.321  21.994  0.00  0.00    +0.000 C 
ENDROOT
BRANCH   2   3
ATOM      3  C   UNL     1      -1.706  12.198  21.058  0.00  0.00    +0.000 C 
ATOM      4  C   UNL     1      -0.844  11.188  21.304  0.00  0.00    +0.000 C 
ATOM      5  C   UNL     1      -0.332  10.375  20.180  0.00  0.00    +0.000 A 
ATOM      6  C   UNL     1       0.896   9.708  20.300  0.00  0.00    +0.000 A 
ATOM      7  C   UNL     1       1.530   9.180  19.167  0.00  0.00    +0.000 A 
ATOM      8  C   UNL     1       0.932   9.286  17.913  0.00  0.00    +0.000 A 
ATOM      9  C   UNL     1      -0.314   9.896  17.790  0.00  0.00    +0.000 A 
ATOM     10  C   UNL     1      -0.943  10.450  18.914  0.00  0.00    +0.000 A 
ATOM     11  C   UNL     1      -2.269  11.139  18.775  0.00  0.00    +0.000 C 
ATOM     12  C   UNL     1      -2.425  12.332  19.719  0.00  0.00    +0.000 C 
ENDBRANCH   2   3
BRANCH   1  14
ATOM     13  O   UNL     1       1.234  14.784  22.738  0.00  0.00    +0.000 OA
ATOM     14  C   UNL     1       0.425  14.464  21.853  0.00  0.00    +0.000 C 
ATOM     15  N   UNL     1       0.909  14.323  20.567  0.00  0.00    +0.000 N 
ATOM     16  C   UNL     1       2.349  14.459  20.360  0.00  0.00    +0.000 C 
ATOM     17  C   UNL     1       2.579  14.416  18.852  0.00  0.00    +0.000 C 
ATOM     18  C   UNL     1       1.361  13.682  18.343  0.00  0.00    +0.000 C 
ATOM     19  C   UNL     1       0.261  14.163  19.279  0.00  0.00    +0.000 C 
ENDBRANCH   1  14
BRANCH   2  20
ATOM     20  C   UNL     1      -3.309  13.383  22.601  0.00  0.00    +0.000 A 
ATOM     21  C   UNL     1      -3.634  12.564  23.695  0.00  0.00    +0.000 A 
ATOM     22  C   UNL     1      -4.884  12.659  24.306  0.00  0.00    +0.000 A 
ATOM     23  C   UNL     1      -5.830  13.555  23.814  0.00  0.00    +0.000 A 
ATOM     24  C   UNL     1      -5.525  14.362  22.719  0.00  0.00    +0.000 A 
ATOM     25  C   UNL     1      -4.265  14.286  22.119  0.00  0.00    +0.000 A 
ENDBRANCH   2  20
BRANCH   1  26
ATOM     26  C   UNL     1      -1.422  15.288  23.394  0.00  0.00    +0.000 A 
ATOM     27  C   UNL     1      -1.804  16.602  23.058  0.00  0.00    +0.000 A 
ATOM     28  C   UNL     1      -2.120  17.544  24.042  0.00  0.00    +0.000 A 
ATOM     29  C   UNL     1      -2.041  17.181  25.390  0.00  0.00    +0.000 A 
ATOM     30  C   UNL     1      -1.693  15.880  25.737  0.00  0.00    +0.000 A 
ATOM     31  C   UNL     1      -1.382  14.932  24.751  0.00  0.00    +0.000 A 
ENDBRANCH   1  26
TORSDOF 4
ENDMDL
MODEL 7
REMARK VINA RESULT:      -6.4      2.843      6.331
REMARK  Name = 
REMARK  4 active torsions:
REMARK  status: ('A' for Active; 'I' for Inactive)
REMARK    1  A    between atoms: C_2  and  C_3
REMARK    2  A    between atoms: C_3  and  C_21
REMARK    3  A    between atoms: C_4  and  C_5
REMARK    4  A    between atoms: C_4  and  C_15
REMARK                            x       y       z     vdW  Elec       q    Type
REMARK                         _______ _______ _______ _____ _____    ______ ____
ROOT
ATOM      1  C   UNL     1       0.901  12.781  19.491  0.00  0.00    +0.000 C 
ATOM      2  C   UNL     1      -0.257  13.501  19.644  0.00  0.00    +0.000 C 
ENDROOT
BRANCH   2   3
ATOM      3  C   UNL     1      -1.622  12.935  19.730  0.00  0.00    +0.000 C 
ATOM      4  C   UNL     1      -2.127  12.064  18.831  0.00  0.00    +0.000 C 
ATOM      5  C   UNL     1      -3.591  11.898  18.716  0.00  0.00    +0.000 A 
ATOM      6  C   UNL     1      -4.154  11.443  17.515  0.00  0.00    +0.000 A 
ATOM      7  C   UNL     1      -5.532  11.553  17.291  0.00  0.00    +0.000 A 
ATOM      8  C   UNL     1      -6.364  12.090  18.272  0.00  0.00    +0.000 A 
ATOM      9  C   UNL     1      -5.825  12.493  19.491  0.00  0.00    +0.000 A 
ATOM     10  C   UNL     1      -4.443  12.409  19.713  0.00  0.00    +0.000 A 
ATOM     11  C   UNL     1      -3.858  12.877  21.015  0.00  0.00    +0.000 C 
ATOM     12  C   UNL     1      -2.477  13.514  20.854  0.00  0.00    +0.000 C 
ENDBRANCH   2   3
BRANCH   1  14
ATOM     13  O   UNL     1       1.512  10.771  18.408  0.00  0.00    +0.000 OA
ATOM     14  C   UNL     1       1.103  11.258  19.475  0.00  0.00    +0.000 C 
ATOM     15  N   UNL     1       0.831  10.385  20.511  0.00  0.00    +0.000 N 
ATOM     16  C   UNL     1       1.141   8.971  20.313  0.00  0.00    +0.000 C 
ATOM     17  C   UNL     1       0.601   8.231  21.533  0.00  0.00    +0.000 C 
ATOM     18  C   UNL     1       0.551   9.309  22.591  0.00  0.00    +0.000 C 
ATOM     19  C   UNL     1       0.171  10.548  21.792  0.00  0.00    +0.000 C 
ENDBRANCH   1  14
BRANCH   2  20
ATOM     20  C   UNL     1      -0.175  14.999  19.672  0.00  0.00    +0.000 A 
ATOM     21  C   UNL     1       0.103  15.669  20.874  0.00  0.00    +0.000 A 
ATOM     22  C   UNL     1       0.242  17.056  20.898  0.00  0.00    +0.000 A 
ATOM     23  C   UNL     1       0.082  17.790  19.725  0.00  0.00    +0.000 A 
ATOM     24  C   UNL     1      -0.209  17.137  18.527  0.00  0.00    +0.000 A 
ATOM     25  C   UNL     1      -0.328  15.745  18.496  0.00  0.00    +0.000 A 
ENDBRANCH   2  20
BRANCH   1  26
ATOM     26  C   UNL     1       2.211  13.544  19.574  0.00  0.00    +0.000 A 
ATOM     27  C   UNL     1       2.840  13.717  20.822  0.00  0.00    +0.000 A 
ATOM     28  C   UNL     1       4.024  14.451  20.948  0.00  0.00    +0.000 A 
ATOM     29  C   UNL     1       4.589  15.040  19.812  0.00  0.00    +0.000 A 
ATOM     30  C   UNL     1       3.995  14.854  18.568  0.00  0.00    +0.000 A 
ATOM     31  C   UNL     1       2.812  14.112  18.440  0.00  0.00    +0.000 A 
ENDBRANCH   1  26
TORSDOF 4
ENDMDL
MODEL 8
REMARK VINA RESULT:      -6.4      3.212      5.786
REMARK  Name = 
REMARK  4 active torsions:
REMARK  status: ('A' for Active; 'I' for Inactive)
REMARK    1  A    between atoms: C_2  and  C_3
REMARK    2  A    between atoms: C_3  and  C_21
REMARK    3  A    between atoms: C_4  and  C_5
REMARK    4  A    between atoms: C_4  and  C_15
REMARK                            x       y       z     vdW  Elec       q    Type
REMARK                         _______ _______ _______ _____ _____    ______ ____
ROOT
ATOM      1  C   UNL     1      -0.445  13.048  19.617  0.00  0.00    +0.000 C 
ATOM      2  C   UNL     1       0.759  12.417  19.425  0.00  0.00    +0.000 C 
ENDROOT
BRANCH   2   3
ATOM      3  C   UNL     1       0.945  10.977  19.143  0.00  0.00    +0.000 C 
ATOM      4  C   UNL     1       0.506   9.994  19.958  0.00  0.00    +0.000 C 
ATOM      5  C   UNL     1       1.100   8.643  19.861  0.00  0.00    +0.000 A 
ATOM      6  C   UNL     1       1.070   7.783  20.967  0.00  0.00    +0.000 A 
ATOM      7  C   UNL     1       1.868   6.632  20.993  0.00  0.00    +0.000 A 
ATOM      8  C   UNL     1       2.679   6.314  19.906  0.00  0.00    +0.000 A 
ATOM      9  C   UNL     1       2.675   7.131  18.778  0.00  0.00    +0.000 A 
ATOM     10  C   UNL     1       1.898   8.298  18.754  0.00  0.00    +0.000 A 
ATOM     11  C   UNL     1       1.922   9.197  17.552  0.00  0.00    +0.000 C 
ATOM     12  C   UNL     1       1.794  10.678  17.911  0.00  0.00    +0.000 C 
ENDBRANCH   2   3
BRANCH   1  14
ATOM     13  O   UNL     1      -2.578  12.558  20.508  0.00  0.00    +0.000 OA
ATOM     14  C   UNL     1      -1.868  12.482  19.492  0.00  0.00    +0.000 C 
ATOM     15  N   UNL     1      -2.409  11.865  18.380  0.00  0.00    +0.000 N 
ATOM     16  C   UNL     1      -3.805  11.439  18.446  0.00  0.00    +0.000 C 
ATOM     17  C   UNL     1      -4.084  10.660  17.164  0.00  0.00    +0.000 C 
ATOM     18  C   UNL     1      -3.037  11.186  16.211  0.00  0.00    +0.000 C 
ATOM     19  C   UNL     1      -1.840  11.423  17.122  0.00  0.00    +0.000 C 
ENDBRANCH   1  14
BRANCH   2  20
ATOM     20  C   UNL     1       2.020  13.217  19.565  0.00  0.00    +0.000 A 
ATOM     21  C   UNL     1       2.642  13.759  18.428  0.00  0.00    +0.000 A 
ATOM     22  C   UNL     1       3.780  14.556  18.554  0.00  0.00    +0.000 A 
ATOM     23  C   UNL     1       4.322  14.798  19.814  0.00  0.00    +0.000 A 
ATOM     24  C   UNL     1       3.722  14.252  20.949  0.00  0.00    +0.000 A 
ATOM     25  C   UNL     1       2.569  13.472  20.828  0.00  0.00    +0.000 A 
ENDBRANCH   2  20
BRANCH   1  26
ATOM     26  C   UNL     1      -0.425  14.560  19.748  0.00  0.00    +0.000 A 
ATOM     27  C   UNL     1      -0.377  15.361  18.589  0.00  0.00    +0.000 A 
ATOM     28  C   UNL     1      -0.312  16.755  18.667  0.00  0.00    +0.000 A 
ATOM     29  C   UNL     1      -0.280  17.370  19.923  0.00  0.00    +0.000 A 
ATOM     30  C   UNL     1      -0.356  16.595  21.076  0.00  0.00    +0.000 A 
ATOM     31  C   UNL     1      -0.428  15.197  20.998  0.00  0.00    +0.000 A 
ENDBRANCH   1  26
TORSDOF 4
ENDMDL
MODEL 9
REMARK VINA RESULT:      -6.3      2.526      4.465
REMARK  Name = 
REMARK  4 active torsions:
REMARK  status: ('A' for Active; 'I' for Inactive)
REMARK    1  A    between atoms: C_2  and  C_3
REMARK    2  A    between atoms: C_3  and  C_21
REMARK    3  A    between atoms: C_4  and  C_5
REMARK    4  A    between atoms: C_4  and  C_15
REMARK                            x       y       z     vdW  Elec       q    Type
REMARK                         _______ _______ _______ _____ _____    ______ ____
ROOT
ATOM      1  C   UNL     1      -2.440  13.330  22.445  0.00  0.00    +0.000 C 
ATOM      2  C   UNL     1      -3.105  13.686  21.299  0.00  0.00    +0.000 C 
ENDROOT
BRANCH   2   3
ATOM      3  C   UNL     1      -3.533  12.764  20.225  0.00  0.00    +0.000 C 
ATOM      4  C   UNL     1      -2.680  11.978  19.532  0.00  0.00    +0.000 C 
ATOM      5  C   UNL     1      -3.086  11.442  18.215  0.00  0.00    +0.000 A 
ATOM      6  C   UNL     1      -2.111  11.091  17.271  0.00  0.00    +0.000 A 
ATOM      7  C   UNL     1      -2.467  10.862  15.935  0.00  0.00    +0.000 A 
ATOM      8  C   UNL     1      -3.799  10.950  15.538  0.00  0.00    +0.000 A 
ATOM      9  C   UNL     1      -4.784  11.242  16.478  0.00  0.00    +0.000 A 
ATOM     10  C   UNL     1      -4.433  11.498  17.811  0.00  0.00    +0.000 A 
ATOM     11  C   UNL     1      -5.491  11.848  18.817  0.00  0.00    +0.000 C 
ATOM     12  C   UNL     1      -5.012  12.857  19.861  0.00  0.00    +0.000 C 
ENDBRANCH   2   3
BRANCH   1  14
ATOM     13  O   UNL     1      -2.817  11.446  23.821  0.00  0.00    +0.000 OA
ATOM     14  C   UNL     1      -2.068  11.929  22.956  0.00  0.00    +0.000 C 
ATOM     15  N   UNL     1      -0.965  11.187  22.580  0.00  0.00    +0.000 N 
ATOM     16  C   UNL     1      -0.817   9.848  23.148  0.00  0.00    +0.000 C 
ATOM     17  C   UNL     1       0.544   9.330  22.692  0.00  0.00    +0.000 C 
ATOM     18  C   UNL     1       0.816  10.138  21.445  0.00  0.00    +0.000 C 
ATOM     19  C   UNL     1       0.205  11.492  21.780  0.00  0.00    +0.000 C 
ENDBRANCH   1  14
BRANCH   2  20
ATOM     20  C   UNL     1      -3.388  15.139  21.054  0.00  0.00    +0.000 A 
ATOM     21  C   UNL     1      -2.423  15.952  20.435  0.00  0.00    +0.000 A 
ATOM     22  C   UNL     1      -2.699  17.288  20.147  0.00  0.00    +0.000 A 
ATOM     23  C   UNL     1      -3.933  17.832  20.495  0.00  0.00    +0.000 A 
ATOM     24  C   UNL     1      -4.894  17.040  21.123  0.00  0.00    +0.000 A 
ATOM     25  C   UNL     1      -4.628  15.695  21.393  0.00  0.00    +0.000 A 
ENDBRANCH   2  20
BRANCH   1  26
ATOM     26  C   UNL     1      -2.224  14.410  23.490  0.00  0.00    +0.000 A 
ATOM     27  C   UNL     1      -0.975  15.058  23.577  0.00  0.00    +0.000 A 
ATOM     28  C   UNL     1      -0.721  16.026  24.554  0.00  0.00    +0.000 A 
ATOM     29  C   UNL     1      -1.723  16.348  25.475  0.00  0.00    +0.000 A 
ATOM     30  C   UNL     1      -2.970  15.739  25.384  0.00  0.00    +0.000 A 
ATOM     31  C   UNL     1      -3.228  14.773  24.400  0.00  0.00    +0.000 A 
ENDBRANCH   1  26
TORSDOF 4
ENDMDL
