MODEL 1
REMARK VINA RESULT:      -8.9      0.000      0.000
REMARK  Name = 
REMARK  5 active torsions:
REMARK  status: ('A' for Active; 'I' for Inactive)
REMARK    1  A    between atoms: C_4  and  C_5
REMARK    2  A    between atoms: C_8  and  C_9
REMARK    3  A    between atoms: C_11  and  C_12
REMARK    4  A    between atoms: C_11  and  C_18
REMARK    5  A    between atoms: C_12  and  N_13
REMARK                            x       y       z     vdW  Elec       q    Type
REMARK                         _______ _______ _______ _____ _____    ______ ____
ROOT
ATOM      1  C   UNL     1       2.560   5.738  18.658  0.00  0.00    +0.000 C 
ATOM      2  N   UNL     1       3.629   5.130  19.053  0.00  0.00    +0.000 NA
ATOM      3  C   UNL     1       3.825   4.008  18.103  0.00  0.00    +0.000 C 
ATOM      4  C   UNL     1       2.518   4.015  17.285  0.00  0.00    +0.000 C 
ATOM      5  O   UNL     1       1.868   5.247  17.610  0.00  0.00    +0.000 OA
ENDROOT
BRANCH   1   9
ATOM      6  C   UNL     1       0.975   9.264  20.557  0.00  0.00    +0.000 A 
ATOM      7  C   UNL     1       1.079   8.034  21.229  0.00  0.00    +0.000 A 
ATOM      8  C   UNL     1       1.606   6.902  20.604  0.00  0.00    +0.000 A 
ATOM      9  C   UNL     1       2.031   6.965  19.274  0.00  0.00    +0.000 A 
ATOM     10  C   UNL     1       1.941   8.171  18.581  0.00  0.00    +0.000 A 
ATOM     11  C   UNL     1       1.423   9.306  19.221  0.00  0.00    +0.000 A 
BRANCH   6  15
ATOM     12  C   UNL     1      -0.764  12.712  22.482  0.00  0.00    +0.000 A 
ATOM     13  C   UNL     1      -1.073  11.432  22.927  0.00  0.00    +0.000 A 
ATOM     14  C   UNL     1      -0.490  10.319  22.315  0.00  0.00    +0.000 A 
ATOM     15  C   UNL     1       0.401  10.453  21.233  0.00  0.00    +0.000 A 
ATOM     16  C   UNL     1       0.699  11.759  20.807  0.00  0.00    +0.000 A 
ATOM     17  C   UNL     1       0.127  12.876  21.426  0.00  0.00    +0.000 A 
ENDBRANCH   6  15
ENDBRANCH   1   9
BRANCH   3  18
ATOM     18  C   UNL     1       5.029   4.255  17.183  0.00  0.00    +0.000 A 
ATOM     19  C   UNL     1       4.919   4.214  15.782  0.00  0.00    +0.000 A 
ATOM     20  C   UNL     1       6.037   4.405  14.964  0.00  0.00    +0.000 A 
ATOM     21  C   UNL     1       7.279   4.676  15.527  0.00  0.00    +0.000 A 
ATOM     22  C   UNL     1       7.405   4.761  16.909  0.00  0.00    +0.000 A 
ATOM     23  C   UNL     1       6.294   4.553  17.726  0.00  0.00    +0.000 A 
ENDBRANCH   3  18
BRANCH   3  24
ATOM     24  C   UNL     1       3.919   2.706  18.949  0.00  0.00    +0.000 C 
BRANCH  24  25
ATOM     25  N   UNL     1       3.019   2.630  20.089  0.00  0.00    +0.000 N 
ATOM     26  C   UNL     1       1.653   2.558  20.037  0.00  0.00    +0.000 A 
ATOM     27  C   UNL     1       1.246   2.542  21.350  0.00  0.00    +0.000 A 
ATOM     28  N   UNL     1       2.319   2.636  22.194  0.00  0.00    +0.000 NA
ATOM     29  C   UNL     1       3.371   2.693  21.407  0.00  0.00    +0.000 A 
ENDBRANCH  24  25
ENDBRANCH   3  24
TORSDOF 5
ENDMDL
MODEL 2
REMARK VINA RESULT:      -8.7      0.446      1.283
REMARK  Name = 
REMARK  5 active torsions:
REMARK  status: ('A' for Active; 'I' for Inactive)
REMARK    1  A    between atoms: C_4  and  C_5
REMARK    2  A    between atoms: C_8  and  C_9
REMARK    3  A    between atoms: C_11  and  C_12
REMARK    4  A    between atoms: C_11  and  C_18
REMARK    5  A    between atoms: C_12  and  N_13
REMARK                            x       y       z     vdW  Elec       q    Type
REMARK                         _______ _______ _______ _____ _____    ______ ____
ROOT
ATOM      1  C   UNL     1       2.595   6.051  18.780  0.00  0.00    +0.000 C 
ATOM      2  N   UNL     1       3.689   5.494  19.178  0.00  0.00    +0.000 NA
ATOM      3  C   UNL     1       3.914   4.350  18.260  0.00  0.00    +0.000 C 
ATOM      4  C   UNL     1       2.598   4.287  17.459  0.00  0.00    +0.000 C 
ATOM      5  O   UNL     1       1.909   5.504  17.755  0.00  0.00    +0.000 OA
ENDROOT
BRANCH   1   9
ATOM      6  C   UNL     1       0.912   9.577  20.594  0.00  0.00    +0.000 A 
ATOM      7  C   UNL     1       1.116   8.387  21.315  0.00  0.00    +0.000 A 
ATOM      8  C   UNL     1       1.673   7.256  20.716  0.00  0.00    +0.000 A 
ATOM      9  C   UNL     1       2.030   7.277  19.365  0.00  0.00    +0.000 A 
ATOM     10  C   UNL     1       1.841   8.441  18.623  0.00  0.00    +0.000 A 
ATOM     11  C   UNL     1       1.292   9.578  19.236  0.00  0.00    +0.000 A 
BRANCH   6  15
ATOM     12  C   UNL     1      -0.782  13.041  22.528  0.00  0.00    +0.000 A 
ATOM     13  C   UNL     1       0.138  13.195  21.497  0.00  0.00    +0.000 A 
ATOM     14  C   UNL     1       0.667  12.070  20.858  0.00  0.00    +0.000 A 
ATOM     15  C   UNL     1       0.307  10.765  21.243  0.00  0.00    +0.000 A 
ATOM     16  C   UNL     1      -0.627  10.639  22.286  0.00  0.00    +0.000 A 
ATOM     17  C   UNL     1      -1.169  11.764  22.919  0.00  0.00    +0.000 A 
ENDBRANCH   6  15
ENDBRANCH   1   9
BRANCH   3  18
ATOM     18  C   UNL     1       5.097   4.611  17.317  0.00  0.00    +0.000 A 
ATOM     19  C   UNL     1       6.106   5.541  17.624  0.00  0.00    +0.000 A 
ATOM     20  C   UNL     1       7.154   5.790  16.733  0.00  0.00    +0.000 A 
ATOM     21  C   UNL     1       7.235   5.090  15.534  0.00  0.00    +0.000 A 
ATOM     22  C   UNL     1       6.272   4.136  15.226  0.00  0.00    +0.000 A 
ATOM     23  C   UNL     1       5.216   3.901  16.107  0.00  0.00    +0.000 A 
ENDBRANCH   3  18
BRANCH   3  24
ATOM     24  C   UNL     1       4.065   3.079  19.144  0.00  0.00    +0.000 C 
BRANCH  24  25
ATOM     25  N   UNL     1       2.994   2.849  20.101  0.00  0.00    +0.000 N 
ATOM     26  C   UNL     1       1.699   2.524  19.802  0.00  0.00    +0.000 A 
ATOM     27  C   UNL     1       1.061   2.444  21.018  0.00  0.00    +0.000 A 
ATOM     28  N   UNL     1       1.921   2.744  22.039  0.00  0.00    +0.000 NA
ATOM     29  C   UNL     1       3.074   2.987  21.457  0.00  0.00    +0.000 A 
ENDBRANCH  24  25
ENDBRANCH   3  24
TORSDOF 5
ENDMDL
MODEL 3
REMARK VINA RESULT:      -8.5      0.490      1.351
REMARK  Name = 
REMARK  5 active torsions:
REMARK  status: ('A' for Active; 'I' for Inactive)
REMARK    1  A    between atoms: C_4  and  C_5
REMARK    2  A    between atoms: C_8  and  C_9
REMARK    3  A    between atoms: C_11  and  C_12
REMARK    4  A    between atoms: C_11  and  C_18
REMARK    5  A    between atoms: C_12  and  N_13
REMARK                            x       y       z     vdW  Elec       q    Type
REMARK                         _______ _______ _______ _____ _____    ______ ____
ROOT
ATOM      1  C   UNL     1       2.553   6.035  18.809  0.00  0.00    +0.000 C 
ATOM      2  N   UNL     1       3.648   5.461  19.180  0.00  0.00    +0.000 NA
ATOM      3  C   UNL     1       3.857   4.343  18.227  0.00  0.00    +0.000 C 
ATOM      4  C   UNL     1       2.532   4.310  17.438  0.00  0.00    +0.000 C 
ATOM      5  O   UNL     1       1.853   5.522  17.777  0.00  0.00    +0.000 OA
ENDROOT
BRANCH   1   9
ATOM      6  C   UNL     1       0.969   9.646  20.543  0.00  0.00    +0.000 A 
ATOM      7  C   UNL     1       1.362   9.572  19.195  0.00  0.00    +0.000 A 
ATOM      8  C   UNL     1       1.863   8.390  18.645  0.00  0.00    +0.000 A 
ATOM      9  C   UNL     1       2.002   7.247  19.436  0.00  0.00    +0.000 A 
ATOM     10  C   UNL     1       1.621   7.289  20.776  0.00  0.00    +0.000 A 
ATOM     11  C   UNL     1       1.106   8.476  21.318  0.00  0.00    +0.000 A 
BRANCH   6  15
ATOM     12  C   UNL     1      -0.474  13.335  22.254  0.00  0.00    +0.000 A 
ATOM     13  C   UNL     1       0.497  13.357  21.259  0.00  0.00    +0.000 A 
ATOM     14  C   UNL     1       0.945  12.160  20.692  0.00  0.00    +0.000 A 
ATOM     15  C   UNL     1       0.451  10.912  21.115  0.00  0.00    +0.000 A 
ATOM     16  C   UNL     1      -0.533  10.920  22.119  0.00  0.00    +0.000 A 
ATOM     17  C   UNL     1      -0.994  12.117  22.679  0.00  0.00    +0.000 A 
ENDBRANCH   6  15
ENDBRANCH   1   9
BRANCH   3  18
ATOM     18  C   UNL     1       5.032   4.624  17.280  0.00  0.00    +0.000 A 
ATOM     19  C   UNL     1       5.142   4.006  16.023  0.00  0.00    +0.000 A 
ATOM     20  C   UNL     1       6.240   4.248  15.192  0.00  0.00    +0.000 A 
ATOM     21  C   UNL     1       7.232   5.140  15.585  0.00  0.00    +0.000 A 
ATOM     22  C   UNL     1       7.125   5.794  16.807  0.00  0.00    +0.000 A 
ATOM     23  C   UNL     1       6.039   5.539  17.643  0.00  0.00    +0.000 A 
ENDBRANCH   3  18
BRANCH   3  24
ATOM     24  C   UNL     1       4.009   3.045  19.072  0.00  0.00    +0.000 C 
BRANCH  24  25
ATOM     25  N   UNL     1       2.975   2.821  20.071  0.00  0.00    +0.000 N 
ATOM     26  C   UNL     1       1.644   2.614  19.824  0.00  0.00    +0.000 A 
ATOM     27  C   UNL     1       1.066   2.489  21.066  0.00  0.00    +0.000 A 
ATOM     28  N   UNL     1       1.999   2.648  22.055  0.00  0.00    +0.000 NA
ATOM     29  C   UNL     1       3.135   2.851  21.427  0.00  0.00    +0.000 A 
ENDBRANCH  24  25
ENDBRANCH   3  24
TORSDOF 5
ENDMDL
MODEL 4
REMARK VINA RESULT:      -8.5      0.871      1.869
REMARK  Name = 
REMARK  5 active torsions:
REMARK  status: ('A' for Active; 'I' for Inactive)
REMARK    1  A    between atoms: C_4  and  C_5
REMARK    2  A    between atoms: C_8  and  C_9
REMARK    3  A    between atoms: C_11  and  C_12
REMARK    4  A    between atoms: C_11  and  C_18
REMARK    5  A    between atoms: C_12  and  N_13
REMARK                            x       y       z     vdW  Elec       q    Type
REMARK                         _______ _______ _______ _____ _____    ______ ____
ROOT
ATOM      1  C   UNL     1       2.666   6.127  18.536  0.00  0.00    +0.000 C 
ATOM      2  N   UNL     1       3.796   5.667  18.956  0.00  0.00    +0.000 NA
ATOM      3  C   UNL     1       3.985   4.370  18.260  0.00  0.00    +0.000 C 
ATOM      4  C   UNL     1       2.621   4.143  17.579  0.00  0.00    +0.000 C 
ATOM      5  O   UNL     1       1.926   5.388  17.685  0.00  0.00    +0.000 OA
ENDROOT
BRANCH   1   9
ATOM      6  C   UNL     1       1.084  10.006  19.536  0.00  0.00    +0.000 A 
ATOM      7  C   UNL     1       1.499   9.680  18.233  0.00  0.00    +0.000 A 
ATOM      8  C   UNL     1       2.000   8.414  17.922  0.00  0.00    +0.000 A 
ATOM      9  C   UNL     1       2.115   7.438  18.915  0.00  0.00    +0.000 A 
ATOM     10  C   UNL     1       1.711   7.731  20.216  0.00  0.00    +0.000 A 
ATOM     11  C   UNL     1       1.197   9.001  20.517  0.00  0.00    +0.000 A 
BRANCH   6  15
ATOM     12  C   UNL     1      -0.345  13.974  20.448  0.00  0.00    +0.000 A 
ATOM     13  C   UNL     1      -0.094  13.606  19.131  0.00  0.00    +0.000 A 
ATOM     14  C   UNL     1       0.348  12.312  18.838  0.00  0.00    +0.000 A 
ATOM     15  C   UNL     1       0.567  11.360  19.851  0.00  0.00    +0.000 A 
ATOM     16  C   UNL     1       0.300  11.758  21.174  0.00  0.00    +0.000 A 
ATOM     17  C   UNL     1      -0.155  13.048  21.468  0.00  0.00    +0.000 A 
ENDBRANCH   6  15
ENDBRANCH   1   9
BRANCH   3  18
ATOM     18  C   UNL     1       5.097   4.456  17.205  0.00  0.00    +0.000 A 
ATOM     19  C   UNL     1       6.443   4.664  17.553  0.00  0.00    +0.000 A 
ATOM     20  C   UNL     1       7.433   4.776  16.573  0.00  0.00    +0.000 A 
ATOM     21  C   UNL     1       7.106   4.648  15.227  0.00  0.00    +0.000 A 
ATOM     22  C   UNL     1       5.788   4.403  14.860  0.00  0.00    +0.000 A 
ATOM     23  C   UNL     1       4.796   4.309  15.836  0.00  0.00    +0.000 A 
ENDBRANCH   3  18
BRANCH   3  24
ATOM     24  C   UNL     1       4.222   3.293  19.357  0.00  0.00    +0.000 C 
BRANCH  24  25
ATOM     25  N   UNL     1       3.111   3.070  20.268  0.00  0.00    +0.000 N 
ATOM     26  C   UNL     1       2.031   2.259  20.043  0.00  0.00    +0.000 A 
ATOM     27  C   UNL     1       1.240   2.398  21.160  0.00  0.00    +0.000 A 
ATOM     28  N   UNL     1       1.792   3.292  22.038  0.00  0.00    +0.000 NA
ATOM     29  C   UNL     1       2.912   3.682  21.473  0.00  0.00    +0.000 A 
ENDBRANCH  24  25
ENDBRANCH   3  24
TORSDOF 5
ENDMDL
MODEL 5
REMARK VINA RESULT:      -8.5      1.085      1.499
REMARK  Name = 
REMARK  5 active torsions:
REMARK  status: ('A' for Active; 'I' for Inactive)
REMARK    1  A    between atoms: C_4  and  C_5
REMARK    2  A    between atoms: C_8  and  C_9
REMARK    3  A    between atoms: C_11  and  C_12
REMARK    4  A    between atoms: C_11  and  C_18
REMARK    5  A    between atoms: C_12  and  N_13
REMARK                            x       y       z     vdW  Elec       q    Type
REMARK                         _______ _______ _______ _____ _____    ______ ____
ROOT
ATOM      1  C   UNL     1       2.691   6.196  18.477  0.00  0.00    +0.000 C 
ATOM      2  N   UNL     1       3.830   5.771  18.909  0.00  0.00    +0.000 NA
ATOM      3  C   UNL     1       4.034   4.449  18.267  0.00  0.00    +0.000 C 
ATOM      4  C   UNL     1       2.668   4.172  17.606  0.00  0.00    +0.000 C 
ATOM      5  O   UNL     1       1.955   5.410  17.664  0.00  0.00    +0.000 OA
ENDROOT
BRANCH   1   9
ATOM      6  C   UNL     1       0.994  10.009  19.543  0.00  0.00    +0.000 A 
ATOM      7  C   UNL     1       1.174   8.979  20.484  0.00  0.00    +0.000 A 
ATOM      8  C   UNL     1       1.736   7.753  20.125  0.00  0.00    +0.000 A 
ATOM      9  C   UNL     1       2.122   7.513  18.804  0.00  0.00    +0.000 A 
ATOM     10  C   UNL     1       1.956   8.514  17.848  0.00  0.00    +0.000 A 
ATOM     11  C   UNL     1       1.402   9.748  18.220  0.00  0.00    +0.000 A 
BRANCH   6  15
ATOM     12  C   UNL     1      -0.759  13.800  20.625  0.00  0.00    +0.000 A 
ATOM     13  C   UNL     1      -1.442  12.927  19.785  0.00  0.00    +0.000 A 
ATOM     14  C   UNL     1      -0.880  11.690  19.456  0.00  0.00    +0.000 A 
ATOM     15  C   UNL     1       0.383  11.301  19.939  0.00  0.00    +0.000 A 
ATOM     16  C   UNL     1       1.050  12.202  20.790  0.00  0.00    +0.000 A 
ATOM     17  C   UNL     1       0.484  13.435  21.132  0.00  0.00    +0.000 A 
ENDBRANCH   6  15
ENDBRANCH   1   9
BRANCH   3  18
ATOM     18  C   UNL     1       5.137   4.506  17.201  0.00  0.00    +0.000 A 
ATOM     19  C   UNL     1       6.490   4.692  17.535  0.00  0.00    +0.000 A 
ATOM     20  C   UNL     1       7.473   4.778  16.545  0.00  0.00    +0.000 A 
ATOM     21  C   UNL     1       7.130   4.645  15.204  0.00  0.00    +0.000 A 
ATOM     22  C   UNL     1       5.805   4.421  14.850  0.00  0.00    +0.000 A 
ATOM     23  C   UNL     1       4.821   4.352  15.837  0.00  0.00    +0.000 A 
ENDBRANCH   3  18
BRANCH   3  24
ATOM     24  C   UNL     1       4.294   3.423  19.407  0.00  0.00    +0.000 C 
BRANCH  24  25
ATOM     25  N   UNL     1       3.157   3.139  20.269  0.00  0.00    +0.000 N 
ATOM     26  C   UNL     1       2.151   2.247  20.011  0.00  0.00    +0.000 A 
ATOM     27  C   UNL     1       1.297   2.353  21.085  0.00  0.00    +0.000 A 
ATOM     28  N   UNL     1       1.739   3.303  21.965  0.00  0.00    +0.000 NA
ATOM     29  C   UNL     1       2.855   3.762  21.446  0.00  0.00    +0.000 A 
ENDBRANCH  24  25
ENDBRANCH   3  24
TORSDOF 5
ENDMDL
MODEL 6
REMARK VINA RESULT:      -8.5      0.880      1.072
REMARK  Name = 
REMARK  5 active torsions:
REMARK  status: ('A' for Active; 'I' for Inactive)
REMARK    1  A    between atoms: C_4  and  C_5
REMARK    2  A    between atoms: C_8  and  C_9
REMARK    3  A    between atoms: C_11  and  C_12
REMARK    4  A    between atoms: C_11  and  C_18
REMARK    5  A    between atoms: C_12  and  N_13
REMARK                            x       y       z     vdW  Elec       q    Type
REMARK                         _______ _______ _______ _____ _____    ______ ____
ROOT
ATOM      1  C   UNL     1       2.679   6.206  18.475  0.00  0.00    +0.000 C 
ATOM      2  N   UNL     1       3.819   5.772  18.896  0.00  0.00    +0.000 NA
ATOM      3  C   UNL     1       4.012   4.453  18.245  0.00  0.00    +0.000 C 
ATOM      4  C   UNL     1       2.640   4.187  17.592  0.00  0.00    +0.000 C 
ATOM      5  O   UNL     1       1.934   5.428  17.661  0.00  0.00    +0.000 OA
ENDROOT
BRANCH   1   9
ATOM      6  C   UNL     1       1.008  10.020  19.574  0.00  0.00    +0.000 A 
ATOM      7  C   UNL     1       1.177   8.980  20.504  0.00  0.00    +0.000 A 
ATOM      8  C   UNL     1       1.730   7.753  20.135  0.00  0.00    +0.000 A 
ATOM      9  C   UNL     1       2.119   7.524  18.813  0.00  0.00    +0.000 A 
ATOM     10  C   UNL     1       1.964   8.535  17.866  0.00  0.00    +0.000 A 
ATOM     11  C   UNL     1       1.418   9.770  18.249  0.00  0.00    +0.000 A 
BRANCH   6  15
ATOM     12  C   UNL     1      -0.816  13.746  20.762  0.00  0.00    +0.000 A 
ATOM     13  C   UNL     1      -0.493  12.788  21.718  0.00  0.00    +0.000 A 
ATOM     14  C   UNL     1       0.118  11.592  21.330  0.00  0.00    +0.000 A 
ATOM     15  C   UNL     1       0.406  11.313  19.981  0.00  0.00    +0.000 A 
ATOM     16  C   UNL     1       0.071  12.301  19.037  0.00  0.00    +0.000 A 
ATOM     17  C   UNL     1      -0.528  13.505  19.423  0.00  0.00    +0.000 A 
ENDBRANCH   6  15
ENDBRANCH   1   9
BRANCH   3  18
ATOM     18  C   UNL     1       5.108   4.511  17.173  0.00  0.00    +0.000 A 
ATOM     19  C   UNL     1       4.818   4.403  15.802  0.00  0.00    +0.000 A 
ATOM     20  C   UNL     1       5.837   4.421  14.845  0.00  0.00    +0.000 A 
ATOM     21  C   UNL     1       7.162   4.582  15.235  0.00  0.00    +0.000 A 
ATOM     22  C   UNL     1       7.471   4.730  16.582  0.00  0.00    +0.000 A 
ATOM     23  C   UNL     1       6.456   4.695  17.538  0.00  0.00    +0.000 A 
ENDBRANCH   3  18
BRANCH   3  24
ATOM     24  C   UNL     1       4.274   3.419  19.378  0.00  0.00    +0.000 C 
BRANCH  24  25
ATOM     25  N   UNL     1       3.144   3.144  20.252  0.00  0.00    +0.000 N 
ATOM     26  C   UNL     1       2.128   2.260  20.005  0.00  0.00    +0.000 A 
ATOM     27  C   UNL     1       1.287   2.372  21.088  0.00  0.00    +0.000 A 
ATOM     28  N   UNL     1       1.745   3.318  21.963  0.00  0.00    +0.000 NA
ATOM     29  C   UNL     1       2.859   3.769  21.432  0.00  0.00    +0.000 A 
ENDBRANCH  24  25
ENDBRANCH   3  24
TORSDOF 5
ENDMDL
MODEL 7
REMARK VINA RESULT:      -8.5      1.652      2.138
REMARK  Name = 
REMARK  5 active torsions:
REMARK  status: ('A' for Active; 'I' for Inactive)
REMARK    1  A    between atoms: C_4  and  C_5
REMARK    2  A    between atoms: C_8  and  C_9
REMARK    3  A    between atoms: C_11  and  C_12
REMARK    4  A    between atoms: C_11  and  C_18
REMARK    5  A    between atoms: C_12  and  N_13
REMARK                            x       y       z     vdW  Elec       q    Type
REMARK                         _______ _______ _______ _____ _____    ______ ____
ROOT
ATOM      1  C   UNL     1       2.558   6.841  19.178  0.00  0.00    +0.000 C 
ATOM      2  N   UNL     1       3.423   6.138  19.829  0.00  0.00    +0.000 NA
ATOM      3  C   UNL     1       4.131   5.327  18.808  0.00  0.00    +0.000 C 
ATOM      4  C   UNL     1       3.301   5.576  17.533  0.00  0.00    +0.000 C 
ATOM      5  O   UNL     1       2.436   6.671  17.845  0.00  0.00    +0.000 OA
ENDROOT
BRANCH   1   9
ATOM      6  C   UNL     1       0.015   9.868  20.887  0.00  0.00    +0.000 A 
ATOM      7  C   UNL     1       0.584  10.001  19.608  0.00  0.00    +0.000 A 
ATOM      8  C   UNL     1       1.397   9.006  19.063  0.00  0.00    +0.000 A 
ATOM      9  C   UNL     1       1.680   7.849  19.792  0.00  0.00    +0.000 A 
ATOM     10  C   UNL     1       1.131   7.687  21.064  0.00  0.00    +0.000 A 
ATOM     11  C   UNL     1       0.305   8.686  21.599  0.00  0.00    +0.000 A 
BRANCH   6  15
ATOM     12  C   UNL     1      -2.522  12.939  22.544  0.00  0.00    +0.000 A 
ATOM     13  C   UNL     1      -1.937  11.991  23.376  0.00  0.00    +0.000 A 
ATOM     14  C   UNL     1      -1.097  11.011  22.837  0.00  0.00    +0.000 A 
ATOM     15  C   UNL     1      -0.835  10.941  21.455  0.00  0.00    +0.000 A 
ATOM     16  C   UNL     1      -1.438  11.915  20.639  0.00  0.00    +0.000 A 
ATOM     17  C   UNL     1      -2.268  12.905  21.177  0.00  0.00    +0.000 A 
ENDBRANCH   6  15
ENDBRANCH   1   9
BRANCH   3  18
ATOM     18  C   UNL     1       5.573   5.813  18.606  0.00  0.00    +0.000 A 
ATOM     19  C   UNL     1       5.923   6.703  17.576  0.00  0.00    +0.000 A 
ATOM     20  C   UNL     1       7.249   7.104  17.388  0.00  0.00    +0.000 A 
ATOM     21  C   UNL     1       8.247   6.651  18.245  0.00  0.00    +0.000 A 
ATOM     22  C   UNL     1       7.919   5.801  19.295  0.00  0.00    +0.000 A 
ATOM     23  C   UNL     1       6.599   5.388  19.473  0.00  0.00    +0.000 A 
ENDBRANCH   3  18
BRANCH   3  24
ATOM     24  C   UNL     1       4.010   3.838  19.243  0.00  0.00    +0.000 C 
BRANCH  24  25
ATOM     25  N   UNL     1       2.756   3.470  19.882  0.00  0.00    +0.000 N 
ATOM     26  C   UNL     1       2.573   3.206  21.213  0.00  0.00    +0.000 A 
ATOM     27  C   UNL     1       1.244   2.873  21.332  0.00  0.00    +0.000 A 
ATOM     28  N   UNL     1       0.626   2.894  20.111  0.00  0.00    +0.000 NA
ATOM     29  C   UNL     1       1.560   3.251  19.258  0.00  0.00    +0.000 A 
ENDBRANCH  24  25
ENDBRANCH   3  24
TORSDOF 5
ENDMDL
MODEL 8
REMARK VINA RESULT:      -8.4      1.776      2.227
REMARK  Name = 
REMARK  5 active torsions:
REMARK  status: ('A' for Active; 'I' for Inactive)
REMARK    1  A    between atoms: C_4  and  C_5
REMARK    2  A    between atoms: C_8  and  C_9
REMARK    3  A    between atoms: C_11  and  C_12
REMARK    4  A    between atoms: C_11  and  C_18
REMARK    5  A    between atoms: C_12  and  N_13
REMARK                            x       y       z     vdW  Elec       q    Type
REMARK                         _______ _______ _______ _____ _____    ______ ____
ROOT
ATOM      1  C   UNL     1       2.535   6.938  19.130  0.00  0.00    +0.000 C 
ATOM      2  N   UNL     1       3.374   6.244  19.822  0.00  0.00    +0.000 NA
ATOM      3  C   UNL     1       4.067   5.365  18.849  0.00  0.00    +0.000 C 
ATOM      4  C   UNL     1       3.254   5.574  17.555  0.00  0.00    +0.000 C 
ATOM      5  O   UNL     1       2.418   6.707  17.806  0.00  0.00    +0.000 OA
ENDROOT
BRANCH   1   9
ATOM      6  C   UNL     1       0.015   9.974  20.858  0.00  0.00    +0.000 A 
ATOM      7  C   UNL     1       0.441   8.850  21.587  0.00  0.00    +0.000 A 
ATOM      8  C   UNL     1       1.267   7.880  21.016  0.00  0.00    +0.000 A 
ATOM      9  C   UNL     1       1.680   7.999  19.687  0.00  0.00    +0.000 A 
ATOM     10  C   UNL     1       1.274   9.102  18.938  0.00  0.00    +0.000 A 
ATOM     11  C   UNL     1       0.454  10.079  19.523  0.00  0.00    +0.000 A 
BRANCH   6  15
ATOM     12  C   UNL     1      -2.630  12.871  22.654  0.00  0.00    +0.000 A 
ATOM     13  C   UNL     1      -2.059  11.869  23.431  0.00  0.00    +0.000 A 
ATOM     14  C   UNL     1      -1.185  10.946  22.849  0.00  0.00    +0.000 A 
ATOM     15  C   UNL     1      -0.873  10.988  21.477  0.00  0.00    +0.000 A 
ATOM     16  C   UNL     1      -1.463  12.014  20.717  0.00  0.00    +0.000 A 
ATOM     17  C   UNL     1      -2.328  12.948  21.299  0.00  0.00    +0.000 A 
ENDBRANCH   6  15
ENDBRANCH   1   9
BRANCH   3  18
ATOM     18  C   UNL     1       5.523   5.801  18.636  0.00  0.00    +0.000 A 
ATOM     19  C   UNL     1       6.565   5.358  19.469  0.00  0.00    +0.000 A 
ATOM     20  C   UNL     1       7.879   5.797  19.279  0.00  0.00    +0.000 A 
ATOM     21  C   UNL     1       8.184   6.661  18.232  0.00  0.00    +0.000 A 
ATOM     22  C   UNL     1       7.178   7.082  17.371  0.00  0.00    +0.000 A 
ATOM     23  C   UNL     1       5.865   6.658  17.571  0.00  0.00    +0.000 A 
ENDBRANCH   3  18
BRANCH   3  24
ATOM     24  C   UNL     1       3.901   3.904  19.355  0.00  0.00    +0.000 C 
BRANCH  24  25
ATOM     25  N   UNL     1       2.569   3.336  19.211  0.00  0.00    +0.000 N 
ATOM     26  C   UNL     1       1.538   3.460  20.104  0.00  0.00    +0.000 A 
ATOM     27  C   UNL     1       0.505   2.733  19.558  0.00  0.00    +0.000 A 
ATOM     28  N   UNL     1       0.891   2.147  18.383  0.00  0.00    +0.000 NA
ATOM     29  C   UNL     1       2.137   2.523  18.203  0.00  0.00    +0.000 A 
ENDBRANCH  24  25
ENDBRANCH   3  24
TORSDOF 5
ENDMDL
MODEL 9
REMARK VINA RESULT:      -8.4      1.621      2.178
REMARK  Name = 
REMARK  5 active torsions:
REMARK  status: ('A' for Active; 'I' for Inactive)
REMARK    1  A    between atoms: C_4  and  C_5
REMARK    2  A    between atoms: C_8  and  C_9
REMARK    3  A    between atoms: C_11  and  C_12
REMARK    4  A    between atoms: C_11  and  C_18
REMARK    5  A    between atoms: C_12  and  N_13
REMARK                            x       y       z     vdW  Elec       q    Type
REMARK                         _______ _______ _______ _____ _____    ______ ____
ROOT
ATOM      1  C   UNL     1       2.603   6.823  19.146  0.00  0.00    +0.000 C 
ATOM      2  N   UNL     1       3.457   6.116  19.808  0.00  0.00    +0.000 NA
ATOM      3  C   UNL     1       4.176   5.304  18.795  0.00  0.00    +0.000 C 
ATOM      4  C   UNL     1       3.363   5.557  17.510  0.00  0.00    +0.000 C 
ATOM      5  O   UNL     1       2.498   6.655  17.812  0.00  0.00    +0.000 OA
ENDROOT
BRANCH   1   9
ATOM      6  C   UNL     1       0.043   9.854  20.822  0.00  0.00    +0.000 A 
ATOM      7  C   UNL     1       0.572   9.954  19.523  0.00  0.00    +0.000 A 
ATOM      8  C   UNL     1       1.391   8.957  18.990  0.00  0.00    +0.000 A 
ATOM      9  C   UNL     1       1.720   7.833  19.751  0.00  0.00    +0.000 A 
ATOM     10  C   UNL     1       1.212   7.705  21.042  0.00  0.00    +0.000 A 
ATOM     11  C   UNL     1       0.379   8.705  21.566  0.00  0.00    +0.000 A 
BRANCH   6  15
ATOM     12  C   UNL     1      -2.515  12.928  22.442  0.00  0.00    +0.000 A 
ATOM     13  C   UNL     1      -1.911  12.003  23.286  0.00  0.00    +0.000 A 
ATOM     14  C   UNL     1      -1.065  11.023  22.759  0.00  0.00    +0.000 A 
ATOM     15  C   UNL     1      -0.815  10.929  21.377  0.00  0.00    +0.000 A 
ATOM     16  C   UNL     1      -1.437  11.879  20.547  0.00  0.00    +0.000 A 
ATOM     17  C   UNL     1      -2.273  12.870  21.073  0.00  0.00    +0.000 A 
ENDBRANCH   6  15
ENDBRANCH   1   9
BRANCH   3  18
ATOM     18  C   UNL     1       5.622   5.786  18.612  0.00  0.00    +0.000 A 
ATOM     19  C   UNL     1       6.663   5.362  19.456  0.00  0.00    +0.000 A 
ATOM     20  C   UNL     1       7.965   5.843  19.293  0.00  0.00    +0.000 A 
ATOM     21  C   UNL     1       8.262   6.729  18.263  0.00  0.00    +0.000 A 
ATOM     22  C   UNL     1       7.257   7.133  17.391  0.00  0.00    +0.000 A 
ATOM     23  C   UNL     1       5.954   6.667  17.564  0.00  0.00    +0.000 A 
ENDBRANCH   3  18
BRANCH   3  24
ATOM     24  C   UNL     1       4.044   3.815  19.227  0.00  0.00    +0.000 C 
BRANCH  24  25
ATOM     25  N   UNL     1       2.759   3.437  19.795  0.00  0.00    +0.000 N 
ATOM     26  C   UNL     1       1.596   3.240  19.102  0.00  0.00    +0.000 A 
ATOM     27  C   UNL     1       0.657   2.936  20.060  0.00  0.00    +0.000 A 
ATOM     28  N   UNL     1       1.208   2.977  21.312  0.00  0.00    +0.000 NA
ATOM     29  C   UNL     1       2.471   3.286  21.122  0.00  0.00    +0.000 A 
ENDBRANCH  24  25
ENDBRANCH   3  24
TORSDOF 5
ENDMDL
