MODEL 1
REMARK VINA RESULT:      -7.7      0.000      0.000
REMARK  Name = 
REMARK  4 active torsions:
REMARK  status: ('A' for Active; 'I' for Inactive)
REMARK    1  A    between atoms: C_2  and  C_3
REMARK    2  A    between atoms: C_6  and  S_7
REMARK    3  A    between atoms: S_7  and  C_10
REMARK    4  A    between atoms: C_10  and  C_11
REMARK                            x       y       z     vdW  Elec       q    Type
REMARK                         _______ _______ _______ _____ _____    ______ ____
ROOT
ATOM      1  S   UNL     1       5.940   4.623  17.418  0.00  0.00    +0.000 S 
ATOM      2  O   UNL     1       6.593   3.956  16.304  0.00  0.00    +0.000 OA
ATOM      3  O   UNL     1       5.796   3.973  18.705  0.00  0.00    +0.000 OA
ENDROOT
BRANCH   1   7
ATOM      4  C   UNL     1       8.266   8.472  18.371  0.00  0.00    +0.000 A 
ATOM      5  C   UNL     1       7.342   8.444  17.320  0.00  0.00    +0.000 A 
ATOM      6  C   UNL     1       6.656   7.260  17.014  0.00  0.00    +0.000 A 
ATOM      7  C   UNL     1       6.910   6.101  17.755  0.00  0.00    +0.000 A 
ATOM      8  C   UNL     1       7.828   6.123  18.811  0.00  0.00    +0.000 A 
ATOM      9  C   UNL     1       8.508   7.312  19.118  0.00  0.00    +0.000 A 
BRANCH   4  11
ATOM     10  N   UNL     1       9.502  10.681  18.957  0.00  0.00    +0.000 NA
ATOM     11  C   UNL     1       8.951   9.696  18.693  0.00  0.00    +0.000 C 
ENDBRANCH   4  11
ENDBRANCH   1   7
BRANCH   1  12
ATOM     12  C   UNL     1       4.355   5.247  16.858  0.00  0.00    +0.000 C 
BRANCH  12  13
ATOM     13  C   UNL     1       3.411   5.463  18.031  0.00  0.00    +0.000 A 
ATOM     14  C   UNL     1       3.431   6.713  18.680  0.00  0.00    +0.000 A 
ATOM     15  C   UNL     1       2.629   6.958  19.794  0.00  0.00    +0.000 A 
ATOM     16  C   UNL     1       1.786   5.964  20.277  0.00  0.00    +0.000 A 
ATOM     17  C   UNL     1       1.726   4.713  19.652  0.00  0.00    +0.000 A 
ATOM     18  C   UNL     1       0.857   3.730  20.156  0.00  0.00    +0.000 A 
ATOM     19  C   UNL     1       0.772   2.475  19.560  0.00  0.00    +0.000 A 
ATOM     20  C   UNL     1       1.559   2.187  18.456  0.00  0.00    +0.000 A 
ATOM     21  C   UNL     1       2.430   3.154  17.945  0.00  0.00    +0.000 A 
ATOM     22  C   UNL     1       2.540   4.442  18.518  0.00  0.00    +0.000 A 
ENDBRANCH  12  13
ENDBRANCH   1  12
TORSDOF 4
ENDMDL
MODEL 2
REMARK VINA RESULT:      -7.4      0.636      1.223
REMARK  Name = 
REMARK  4 active torsions:
REMARK  status: ('A' for Active; 'I' for Inactive)
REMARK    1  A    between atoms: C_2  and  C_3
REMARK    2  A    between atoms: C_6  and  S_7
REMARK    3  A    between atoms: S_7  and  C_10
REMARK    4  A    between atoms: C_10  and  C_11
REMARK                            x       y       z     vdW  Elec       q    Type
REMARK                         _______ _______ _______ _____ _____    ______ ____
ROOT
ATOM      1  S   UNL     1       6.519   4.759  17.179  0.00  0.00    +0.000 S 
ATOM      2  O   UNL     1       7.414   4.266  16.147  0.00  0.00    +0.000 OA
ATOM      3  O   UNL     1       6.289   4.008  18.397  0.00  0.00    +0.000 OA
ENDROOT
BRANCH   1   7
ATOM      4  C   UNL     1       8.439   8.716  18.515  0.00  0.00    +0.000 A 
ATOM      5  C   UNL     1       8.610   7.553  19.275  0.00  0.00    +0.000 A 
ATOM      6  C   UNL     1       7.999   6.355  18.880  0.00  0.00    +0.000 A 
ATOM      7  C   UNL     1       7.204   6.330  17.729  0.00  0.00    +0.000 A 
ATOM      8  C   UNL     1       7.034   7.487  16.961  0.00  0.00    +0.000 A 
ATOM      9  C   UNL     1       7.653   8.683  17.357  0.00  0.00    +0.000 A 
BRANCH   4  11
ATOM     10  N   UNL     1       9.602  10.923  19.241  0.00  0.00    +0.000 NA
ATOM     11  C   UNL     1       9.087   9.938  18.916  0.00  0.00    +0.000 C 
ENDBRANCH   4  11
ENDBRANCH   1   7
BRANCH   1  12
ATOM     12  C   UNL     1       4.955   5.195  16.416  0.00  0.00    +0.000 C 
BRANCH  12  13
ATOM     13  C   UNL     1       3.878   5.410  17.469  0.00  0.00    +0.000 A 
ATOM     14  C   UNL     1       3.747   6.694  18.034  0.00  0.00    +0.000 A 
ATOM     15  C   UNL     1       2.816   6.945  19.040  0.00  0.00    +0.000 A 
ATOM     16  C   UNL     1       1.992   5.922  19.497  0.00  0.00    +0.000 A 
ATOM     17  C   UNL     1       2.082   4.636  18.953  0.00  0.00    +0.000 A 
ATOM     18  C   UNL     1       1.230   3.624  19.427  0.00  0.00    +0.000 A 
ATOM     19  C   UNL     1       1.291   2.334  18.909  0.00  0.00    +0.000 A 
ATOM     20  C   UNL     1       2.210   2.039  17.914  0.00  0.00    +0.000 A 
ATOM     21  C   UNL     1       3.066   3.035  17.433  0.00  0.00    +0.000 A 
ATOM     22  C   UNL     1       3.029   4.359  17.929  0.00  0.00    +0.000 A 
ENDBRANCH  12  13
ENDBRANCH   1  12
TORSDOF 4
ENDMDL
MODEL 3
REMARK VINA RESULT:      -7.4      0.628      2.455
REMARK  Name = 
REMARK  4 active torsions:
REMARK  status: ('A' for Active; 'I' for Inactive)
REMARK    1  A    between atoms: C_2  and  C_3
REMARK    2  A    between atoms: C_6  and  S_7
REMARK    3  A    between atoms: S_7  and  C_10
REMARK    4  A    between atoms: C_10  and  C_11
REMARK                            x       y       z     vdW  Elec       q    Type
REMARK                         _______ _______ _______ _____ _____    ______ ____
ROOT
ATOM      1  S   UNL     1       6.234   4.623  17.493  0.00  0.00    +0.000 S 
ATOM      2  O   UNL     1       7.044   4.035  16.440  0.00  0.00    +0.000 OA
ATOM      3  O   UNL     1       6.128   4.002  18.798  0.00  0.00    +0.000 OA
ENDROOT
BRANCH   1   7
ATOM      4  C   UNL     1       8.176   8.728  18.211  0.00  0.00    +0.000 A 
ATOM      5  C   UNL     1       8.575   7.615  18.958  0.00  0.00    +0.000 A 
ATOM      6  C   UNL     1       7.960   6.371  18.757  0.00  0.00    +0.000 A 
ATOM      7  C   UNL     1       6.934   6.250  17.814  0.00  0.00    +0.000 A 
ATOM      8  C   UNL     1       6.533   7.358  17.058  0.00  0.00    +0.000 A 
ATOM      9  C   UNL     1       7.156   8.599  17.259  0.00  0.00    +0.000 A 
BRANCH   4  11
ATOM     10  N   UNL     1       9.343  11.021  18.567  0.00  0.00    +0.000 NA
ATOM     11  C   UNL     1       8.825   9.997  18.409  0.00  0.00    +0.000 C 
ENDBRANCH   4  11
ENDBRANCH   1   7
BRANCH   1  12
ATOM     12  C   UNL     1       4.601   4.961  16.834  0.00  0.00    +0.000 C 
BRANCH  12  13
ATOM     13  C   UNL     1       3.529   4.249  17.646  0.00  0.00    +0.000 A 
ATOM     14  C   UNL     1       3.220   2.915  17.315  0.00  0.00    +0.000 A 
ATOM     15  C   UNL     1       2.212   2.224  17.984  0.00  0.00    +0.000 A 
ATOM     16  C   UNL     1       1.498   2.846  19.002  0.00  0.00    +0.000 A 
ATOM     17  C   UNL     1       1.783   4.166  19.370  0.00  0.00    +0.000 A 
ATOM     18  C   UNL     1       1.053   4.767  20.410  0.00  0.00    +0.000 A 
ATOM     19  C   UNL     1       1.309   6.077  20.802  0.00  0.00    +0.000 A 
ATOM     20  C   UNL     1       2.297   6.804  20.155  0.00  0.00    +0.000 A 
ATOM     21  C   UNL     1       3.031   6.220  19.118  0.00  0.00    +0.000 A 
ATOM     22  C   UNL     1       2.804   4.890  18.696  0.00  0.00    +0.000 A 
ENDBRANCH  12  13
ENDBRANCH   1  12
TORSDOF 4
ENDMDL
MODEL 4
REMARK VINA RESULT:      -7.2      0.615      2.215
REMARK  Name = 
REMARK  4 active torsions:
REMARK  status: ('A' for Active; 'I' for Inactive)
REMARK    1  A    between atoms: C_2  and  C_3
REMARK    2  A    between atoms: C_6  and  S_7
REMARK    3  A    between atoms: S_7  and  C_10
REMARK    4  A    between atoms: C_10  and  C_11
REMARK                            x       y       z     vdW  Elec       q    Type
REMARK                         _______ _______ _______ _____ _____    ______ ____
ROOT
ATOM      1  S   UNL     1       6.244   4.581  17.449  0.00  0.00    +0.000 S 
ATOM      2  O   UNL     1       6.951   3.942  16.353  0.00  0.00    +0.000 OA
ATOM      3  O   UNL     1       6.160   3.959  18.756  0.00  0.00    +0.000 OA
ENDROOT
BRANCH   1   7
ATOM      4  C   UNL     1       8.225   8.645  18.284  0.00  0.00    +0.000 A 
ATOM      5  C   UNL     1       7.286   8.512  17.255  0.00  0.00    +0.000 A 
ATOM      6  C   UNL     1       6.706   7.265  16.984  0.00  0.00    +0.000 A 
ATOM      7  C   UNL     1       7.081   6.148  17.740  0.00  0.00    +0.000 A 
ATOM      8  C   UNL     1       8.014   6.275  18.775  0.00  0.00    +0.000 A 
ATOM      9  C   UNL     1       8.587   7.527  19.045  0.00  0.00    +0.000 A 
BRANCH   4  11
ATOM     10  N   UNL     1       9.268  10.969  18.793  0.00  0.00    +0.000 NA
ATOM     11  C   UNL     1       8.801   9.933  18.569  0.00  0.00    +0.000 C 
ENDBRANCH   4  11
ENDBRANCH   1   7
BRANCH   1  12
ATOM     12  C   UNL     1       4.609   5.047  16.878  0.00  0.00    +0.000 C 
BRANCH  12  13
ATOM     13  C   UNL     1       3.531   4.308  17.657  0.00  0.00    +0.000 A 
ATOM     14  C   UNL     1       3.223   2.987  17.279  0.00  0.00    +0.000 A 
ATOM     15  C   UNL     1       2.209   2.274  17.917  0.00  0.00    +0.000 A 
ATOM     16  C   UNL     1       1.488   2.862  18.949  0.00  0.00    +0.000 A 
ATOM     17  C   UNL     1       1.771   4.169  19.364  0.00  0.00    +0.000 A 
ATOM     18  C   UNL     1       1.033   4.734  20.417  0.00  0.00    +0.000 A 
ATOM     19  C   UNL     1       1.288   6.030  20.856  0.00  0.00    +0.000 A 
ATOM     20  C   UNL     1       2.281   6.778  20.242  0.00  0.00    +0.000 A 
ATOM     21  C   UNL     1       3.023   6.229  19.192  0.00  0.00    +0.000 A 
ATOM     22  C   UNL     1       2.798   4.914  18.722  0.00  0.00    +0.000 A 
ENDBRANCH  12  13
ENDBRANCH   1  12
TORSDOF 4
ENDMDL
MODEL 5
REMARK VINA RESULT:      -7.2      0.986      1.108
REMARK  Name = 
REMARK  4 active torsions:
REMARK  status: ('A' for Active; 'I' for Inactive)
REMARK    1  A    between atoms: C_2  and  C_3
REMARK    2  A    between atoms: C_6  and  S_7
REMARK    3  A    between atoms: S_7  and  C_10
REMARK    4  A    between atoms: C_10  and  C_11
REMARK                            x       y       z     vdW  Elec       q    Type
REMARK                         _______ _______ _______ _____ _____    ______ ____
ROOT
ATOM      1  S   UNL     1       6.865   4.975  17.558  0.00  0.00    +0.000 S 
ATOM      2  O   UNL     1       7.875   4.226  16.830  0.00  0.00    +0.000 OA
ATOM      3  O   UNL     1       6.397   4.540  18.858  0.00  0.00    +0.000 OA
ENDROOT
BRANCH   1   7
ATOM      4  C   UNL     1       8.475   9.206  18.361  0.00  0.00    +0.000 A 
ATOM      5  C   UNL     1       7.661   8.956  17.250  0.00  0.00    +0.000 A 
ATOM      6  C   UNL     1       7.197   7.658  16.992  0.00  0.00    +0.000 A 
ATOM      7  C   UNL     1       7.562   6.610  17.843  0.00  0.00    +0.000 A 
ATOM      8  C   UNL     1       8.369   6.854  18.960  0.00  0.00    +0.000 A 
ATOM      9  C   UNL     1       8.827   8.155  19.217  0.00  0.00    +0.000 A 
BRANCH   4  11
ATOM     10  N   UNL     1       9.295  11.622  18.850  0.00  0.00    +0.000 NA
ATOM     11  C   UNL     1       8.932  10.544  18.630  0.00  0.00    +0.000 C 
ENDBRANCH   4  11
ENDBRANCH   1   7
BRANCH   1  12
ATOM     12  C   UNL     1       5.474   5.267  16.464  0.00  0.00    +0.000 C 
BRANCH  12  13
ATOM     13  C   UNL     1       4.202   5.522  17.258  0.00  0.00    +0.000 A 
ATOM     14  C   UNL     1       3.919   6.843  17.655  0.00  0.00    +0.000 A 
ATOM     15  C   UNL     1       2.797   7.137  18.429  0.00  0.00    +0.000 A 
ATOM     16  C   UNL     1       1.933   6.119  18.816  0.00  0.00    +0.000 A 
ATOM     17  C   UNL     1       2.172   4.794  18.432  0.00  0.00    +0.000 A 
ATOM     18  C   UNL     1       1.276   3.788  18.829  0.00  0.00    +0.000 A 
ATOM     19  C   UNL     1       1.482   2.460  18.466  0.00  0.00    +0.000 A 
ATOM     20  C   UNL     1       2.590   2.124  17.704  0.00  0.00    +0.000 A 
ATOM     21  C   UNL     1       3.492   3.114  17.303  0.00  0.00    +0.000 A 
ATOM     22  C   UNL     1       3.313   4.475  17.647  0.00  0.00    +0.000 A 
ENDBRANCH  12  13
ENDBRANCH   1  12
TORSDOF 4
ENDMDL
MODEL 6
REMARK VINA RESULT:      -7.2      2.796      5.909
REMARK  Name = 
REMARK  4 active torsions:
REMARK  status: ('A' for Active; 'I' for Inactive)
REMARK    1  A    between atoms: C_2  and  C_3
REMARK    2  A    between atoms: C_6  and  S_7
REMARK    3  A    between atoms: S_7  and  C_10
REMARK    4  A    between atoms: C_10  and  C_11
REMARK                            x       y       z     vdW  Elec       q    Type
REMARK                         _______ _______ _______ _____ _____    ______ ____
ROOT
ATOM      1  S   UNL     1       2.596   3.024  17.967  0.00  0.00    +0.000 S 
ATOM      2  O   UNL     1       2.004   1.987  18.795  0.00  0.00    +0.000 OA
ATOM      3  O   UNL     1       2.109   3.288  16.628  0.00  0.00    +0.000 OA
ENDROOT
BRANCH   1   7
ATOM      4  C   UNL     1       1.823   6.997  20.146  0.00  0.00    +0.000 A 
ATOM      5  C   UNL     1       2.278   6.992  18.823  0.00  0.00    +0.000 A 
ATOM      6  C   UNL     1       2.541   5.778  18.171  0.00  0.00    +0.000 A 
ATOM      7  C   UNL     1       2.360   4.571  18.855  0.00  0.00    +0.000 A 
ATOM      8  C   UNL     1       1.899   4.569  20.177  0.00  0.00    +0.000 A 
ATOM      9  C   UNL     1       1.632   5.786  20.822  0.00  0.00    +0.000 A 
BRANCH   4  11
ATOM     10  N   UNL     1       1.304   9.253  21.325  0.00  0.00    +0.000 NA
ATOM     11  C   UNL     1       1.536   8.246  20.802  0.00  0.00    +0.000 C 
ENDBRANCH   4  11
ENDBRANCH   1   7
BRANCH   1  12
ATOM     12  C   UNL     1       4.374   2.789  17.944  0.00  0.00    +0.000 C 
BRANCH  12  13
ATOM     13  C   UNL     1       5.053   3.859  17.103  0.00  0.00    +0.000 A 
ATOM     14  C   UNL     1       4.768   3.903  15.724  0.00  0.00    +0.000 A 
ATOM     15  C   UNL     1       5.397   4.824  14.889  0.00  0.00    +0.000 A 
ATOM     16  C   UNL     1       6.316   5.726  15.413  0.00  0.00    +0.000 A 
ATOM     17  C   UNL     1       6.618   5.724  16.780  0.00  0.00    +0.000 A 
ATOM     18  C   UNL     1       7.543   6.653  17.284  0.00  0.00    +0.000 A 
ATOM     19  C   UNL     1       7.867   6.681  18.638  0.00  0.00    +0.000 A 
ATOM     20  C   UNL     1       7.272   5.775  19.502  0.00  0.00    +0.000 A 
ATOM     21  C   UNL     1       6.350   4.843  19.014  0.00  0.00    +0.000 A 
ATOM     22  C   UNL     1       5.991   4.788  17.647  0.00  0.00    +0.000 A 
ENDBRANCH  12  13
ENDBRANCH   1  12
TORSDOF 4
ENDMDL
MODEL 7
REMARK VINA RESULT:      -7.1      3.021      5.717
REMARK  Name = 
REMARK  4 active torsions:
REMARK  status: ('A' for Active; 'I' for Inactive)
REMARK    1  A    between atoms: C_2  and  C_3
REMARK    2  A    between atoms: C_6  and  S_7
REMARK    3  A    between atoms: S_7  and  C_10
REMARK    4  A    between atoms: C_10  and  C_11
REMARK                            x       y       z     vdW  Elec       q    Type
REMARK                         _______ _______ _______ _____ _____    ______ ____
ROOT
ATOM      1  S   UNL     1       2.277   3.133  17.897  0.00  0.00    +0.000 S 
ATOM      2  O   UNL     1       1.328   2.203  18.483  0.00  0.00    +0.000 OA
ATOM      3  O   UNL     1       2.170   3.547  16.512  0.00  0.00    +0.000 OA
ENDROOT
BRANCH   1   7
ATOM      4  C   UNL     1       1.747   7.057  20.233  0.00  0.00    +0.000 A 
ATOM      5  C   UNL     1       2.158   7.079  18.896  0.00  0.00    +0.000 A 
ATOM      6  C   UNL     1       2.347   5.879  18.195  0.00  0.00    +0.000 A 
ATOM      7  C   UNL     1       2.136   4.657  18.844  0.00  0.00    +0.000 A 
ATOM      8  C   UNL     1       1.719   4.628  20.180  0.00  0.00    +0.000 A 
ATOM      9  C   UNL     1       1.525   5.832  20.874  0.00  0.00    +0.000 A 
BRANCH   4  11
ATOM     10  N   UNL     1       1.361   9.285  21.512  0.00  0.00    +0.000 NA
ATOM     11  C   UNL     1       1.535   8.293  20.940  0.00  0.00    +0.000 C 
ENDBRANCH   4  11
ENDBRANCH   1   7
BRANCH   1  12
ATOM     12  C   UNL     1       3.937   2.546  18.240  0.00  0.00    +0.000 C 
BRANCH  12  13
ATOM     13  C   UNL     1       4.943   3.684  18.167  0.00  0.00    +0.000 A 
ATOM     14  C   UNL     1       5.239   4.389  19.350  0.00  0.00    +0.000 A 
ATOM     15  C   UNL     1       6.111   5.476  19.341  0.00  0.00    +0.000 A 
ATOM     16  C   UNL     1       6.712   5.876  18.152  0.00  0.00    +0.000 A 
ATOM     17  C   UNL     1       6.455   5.195  16.957  0.00  0.00    +0.000 A 
ATOM     18  C   UNL     1       7.084   5.615  15.773  0.00  0.00    +0.000 A 
ATOM     19  C   UNL     1       6.852   4.961  14.567  0.00  0.00    +0.000 A 
ATOM     20  C   UNL     1       5.983   3.881  14.530  0.00  0.00    +0.000 A 
ATOM     21  C   UNL     1       5.348   3.452  15.700  0.00  0.00    +0.000 A 
ATOM     22  C   UNL     1       5.564   4.087  16.946  0.00  0.00    +0.000 A 
ENDBRANCH  12  13
ENDBRANCH   1  12
TORSDOF 4
ENDMDL
MODEL 8
REMARK VINA RESULT:      -7.1      2.783      6.025
REMARK  Name = 
REMARK  4 active torsions:
REMARK  status: ('A' for Active; 'I' for Inactive)
REMARK    1  A    between atoms: C_2  and  C_3
REMARK    2  A    between atoms: C_6  and  S_7
REMARK    3  A    between atoms: S_7  and  C_10
REMARK    4  A    between atoms: C_10  and  C_11
REMARK                            x       y       z     vdW  Elec       q    Type
REMARK                         _______ _______ _______ _____ _____    ______ ____
ROOT
ATOM      1  S   UNL     1       2.628   2.969  18.210  0.00  0.00    +0.000 S 
ATOM      2  O   UNL     1       2.071   1.937  19.068  0.00  0.00    +0.000 OA
ATOM      3  O   UNL     1       2.199   3.117  16.834  0.00  0.00    +0.000 OA
ENDROOT
BRANCH   1   7
ATOM      4  C   UNL     1       1.752   6.967  20.304  0.00  0.00    +0.000 A 
ATOM      5  C   UNL     1       1.479   5.755  20.948  0.00  0.00    +0.000 A 
ATOM      6  C   UNL     1       1.719   4.538  20.295  0.00  0.00    +0.000 A 
ATOM      7  C   UNL     1       2.222   4.541  18.989  0.00  0.00    +0.000 A 
ATOM      8  C   UNL     1       2.504   5.749  18.342  0.00  0.00    +0.000 A 
ATOM      9  C   UNL     1       2.267   6.964  19.002  0.00  0.00    +0.000 A 
BRANCH   4  11
ATOM     10  N   UNL     1       1.331   9.215  21.536  0.00  0.00    +0.000 NA
ATOM     11  C   UNL     1       1.521   8.212  20.989  0.00  0.00    +0.000 C 
ENDBRANCH   4  11
ENDBRANCH   1   7
BRANCH   1  12
ATOM     12  C   UNL     1       4.417   2.877  18.296  0.00  0.00    +0.000 C 
BRANCH  12  13
ATOM     13  C   UNL     1       5.059   3.883  17.353  0.00  0.00    +0.000 A 
ATOM     14  C   UNL     1       4.711   3.833  15.988  0.00  0.00    +0.000 A 
ATOM     15  C   UNL     1       5.303   4.692  15.063  0.00  0.00    +0.000 A 
ATOM     16  C   UNL     1       6.246   5.623  15.482  0.00  0.00    +0.000 A 
ATOM     17  C   UNL     1       6.610   5.714  16.831  0.00  0.00    +0.000 A 
ATOM     18  C   UNL     1       7.558   6.671  17.228  0.00  0.00    +0.000 A 
ATOM     19  C   UNL     1       7.943   6.791  18.560  0.00  0.00    +0.000 A 
ATOM     20  C   UNL     1       7.387   5.949  19.510  0.00  0.00    +0.000 A 
ATOM     21  C   UNL     1       6.442   4.990  19.131  0.00  0.00    +0.000 A 
ATOM     22  C   UNL     1       6.021   4.843  17.788  0.00  0.00    +0.000 A 
ENDBRANCH  12  13
ENDBRANCH   1  12
TORSDOF 4
ENDMDL
MODEL 9
REMARK VINA RESULT:      -7.0      1.182      2.704
REMARK  Name = 
REMARK  4 active torsions:
REMARK  status: ('A' for Active; 'I' for Inactive)
REMARK    1  A    between atoms: C_2  and  C_3
REMARK    2  A    between atoms: C_6  and  S_7
REMARK    3  A    between atoms: S_7  and  C_10
REMARK    4  A    between atoms: C_10  and  C_11
REMARK                            x       y       z     vdW  Elec       q    Type
REMARK                         _______ _______ _______ _____ _____    ______ ____
ROOT
ATOM      1  S   UNL     1       5.753   4.525  17.513  0.00  0.00    +0.000 S 
ATOM      2  O   UNL     1       6.287   3.865  16.335  0.00  0.00    +0.000 OA
ATOM      3  O   UNL     1       5.769   3.880  18.811  0.00  0.00    +0.000 OA
ENDROOT
BRANCH   1   7
ATOM      4  C   UNL     1       8.094   8.426  18.178  0.00  0.00    +0.000 A 
ATOM      5  C   UNL     1       7.078   8.364  17.217  0.00  0.00    +0.000 A 
ATOM      6  C   UNL     1       6.386   7.164  16.997  0.00  0.00    +0.000 A 
ATOM      7  C   UNL     1       6.726   6.024  17.733  0.00  0.00    +0.000 A 
ATOM      8  C   UNL     1       7.736   6.080  18.699  0.00  0.00    +0.000 A 
ATOM      9  C   UNL     1       8.421   7.284  18.920  0.00  0.00    +0.000 A 
BRANCH   4  11
ATOM     10  N   UNL     1       9.342  10.663  18.607  0.00  0.00    +0.000 NA
ATOM     11  C   UNL     1       8.786   9.666  18.412  0.00  0.00    +0.000 C 
ENDBRANCH   4  11
ENDBRANCH   1   7
BRANCH   1  12
ATOM     12  C   UNL     1       4.102   5.116  17.136  0.00  0.00    +0.000 C 
BRANCH  12  13
ATOM     13  C   UNL     1       3.347   5.471  18.409  0.00  0.00    +0.000 A 
ATOM     14  C   UNL     1       3.201   4.476  19.395  0.00  0.00    +0.000 A 
ATOM     15  C   UNL     1       2.477   4.720  20.561  0.00  0.00    +0.000 A 
ATOM     16  C   UNL     1       1.890   5.964  20.768  0.00  0.00    +0.000 A 
ATOM     17  C   UNL     1       2.023   6.983  19.819  0.00  0.00    +0.000 A 
ATOM     18  C   UNL     1       1.429   8.233  20.060  0.00  0.00    +0.000 A 
ATOM     19  C   UNL     1       1.540   9.270  19.138  0.00  0.00    +0.000 A 
ATOM     20  C   UNL     1       2.244   9.066  17.961  0.00  0.00    +0.000 A 
ATOM     21  C   UNL     1       2.840   7.827  17.707  0.00  0.00    +0.000 A 
ATOM     22  C   UNL     1       2.754   6.752  18.622  0.00  0.00    +0.000 A 
ENDBRANCH  12  13
ENDBRANCH   1  12
TORSDOF 4
ENDMDL
