MODEL 1
REMARK VINA RESULT:      -8.2      0.000      0.000
REMARK  Name = 
REMARK  5 active torsions:
REMARK  status: ('A' for Active; 'I' for Inactive)
REMARK    1  A    between atoms: C_1  and  C_2
REMARK    2  A    between atoms: C_4  and  C_5
REMARK    3  A    between atoms: C_6  and  C_7
REMARK    4  A    between atoms: C_9  and  N_10
REMARK    5  A    between atoms: C_18  and  O_19
REMARK                            x       y       z     vdW  Elec       q    Type
REMARK                         _______ _______ _______ _____ _____    ______ ____
ROOT
ATOM      1  C   UNL     1       3.921   4.874  18.860  0.00  0.00    +0.000 A 
ATOM      2  C   UNL     1       3.607   3.944  19.867  0.00  0.00    +0.000 A 
ATOM      3  C   UNL     1       2.661   4.296  20.831  0.00  0.00    +0.000 A 
ATOM      4  N   UNL     1       2.023   5.483  20.831  0.00  0.00    +0.000 NA
ATOM      5  C   UNL     1       2.300   6.386  19.854  0.00  0.00    +0.000 A 
ATOM      6  C   UNL     1       3.243   6.124  18.854  0.00  0.00    +0.000 A 
ATOM      7  C   UNL     1       3.530   7.163  17.797  0.00  0.00    +0.000 C 
ATOM      8  C   UNL     1       2.815   8.509  17.872  0.00  0.00    +0.000 C 
ATOM      9  C   UNL     1       1.809   8.684  18.969  0.00  0.00    +0.000 A 
ATOM     10  C   UNL     1       1.122   9.912  19.017  0.00  0.00    +0.000 A 
ATOM     11  C   UNL     1       0.185  10.143  20.018  0.00  0.00    +0.000 A 
ATOM     12  C   UNL     1      -0.077   9.168  20.964  0.00  0.00    +0.000 A 
ATOM     13  C   UNL     1       0.607   7.945  20.915  0.00  0.00    +0.000 A 
ATOM     14  C   UNL     1       1.565   7.672  19.916  0.00  0.00    +0.000 A 
ENDROOT
BRANCH   1  18
ATOM     15  C   UNL     1       5.912   3.864  14.435  0.00  0.00    +0.000 C 
ATOM     16  C   UNL     1       5.741   4.132  15.881  0.00  0.00    +0.000 A 
ATOM     17  N   UNL     1       4.607   4.257  16.533  0.00  0.00    +0.000 NA
ATOM     18  C   UNL     1       4.928   4.579  17.833  0.00  0.00    +0.000 A 
ATOM     19  C   UNL     1       6.299   4.622  17.966  0.00  0.00    +0.000 A 
ATOM     20  N   UNL     1       6.801   4.303  16.732  0.00  0.00    +0.000 N 
ATOM     21  H   UNL     1       7.779   4.231  16.484  0.00  0.00    +0.000 HD
ENDBRANCH   1  18
BRANCH   3  22
ATOM     22  N   UNL     1       2.382   3.480  21.930  0.00  0.00    +0.000 N 
ATOM     23  H   UNL     1       1.630   2.814  21.785  0.00  0.00    +0.000 HD
ATOM     24  H   UNL     1       2.235   4.069  22.745  0.00  0.00    +0.000 HD
ENDBRANCH   3  22
BRANCH   2  25
ATOM     25  C   UNL     1       4.187   2.632  19.925  0.00  0.00    +0.000 C 
ATOM     26  N   UNL     1       4.673   1.581  19.984  0.00  0.00    +0.000 NA
ENDBRANCH   2  25
BRANCH  11  27
ATOM     27  O   UNL     1      -0.489  11.325  20.091  0.00  0.00    +0.000 OA
ATOM     28  H   UNL     1      -1.435  11.139  20.221  0.00  0.00    +0.000 HD
ENDBRANCH  11  27
TORSDOF 4
ENDMDL
MODEL 2
REMARK VINA RESULT:      -7.7      0.852      1.056
REMARK  Name = 
REMARK  5 active torsions:
REMARK  status: ('A' for Active; 'I' for Inactive)
REMARK    1  A    between atoms: C_1  and  C_2
REMARK    2  A    between atoms: C_4  and  C_5
REMARK    3  A    between atoms: C_6  and  C_7
REMARK    4  A    between atoms: C_9  and  N_10
REMARK    5  A    between atoms: C_18  and  O_19
REMARK                            x       y       z     vdW  Elec       q    Type
REMARK                         _______ _______ _______ _____ _____    ______ ____
ROOT
ATOM      1  C   UNL     1       3.450   5.098  18.801  0.00  0.00    +0.000 A 
ATOM      2  C   UNL     1       3.239   4.135  19.805  0.00  0.00    +0.000 A 
ATOM      3  C   UNL     1       2.436   4.470  20.896  0.00  0.00    +0.000 A 
ATOM      4  N   UNL     1       1.840   5.672  21.024  0.00  0.00    +0.000 NA
ATOM      5  C   UNL     1       2.017   6.608  20.055  0.00  0.00    +0.000 A 
ATOM      6  C   UNL     1       2.815   6.364  18.932  0.00  0.00    +0.000 A 
ATOM      7  C   UNL     1       2.995   7.439  17.887  0.00  0.00    +0.000 C 
ATOM      8  C   UNL     1       2.338   8.798  18.105  0.00  0.00    +0.000 C 
ATOM      9  C   UNL     1       1.488   8.953  19.329  0.00  0.00    +0.000 A 
ATOM     10  C   UNL     1       0.850  10.195  19.513  0.00  0.00    +0.000 A 
ATOM     11  C   UNL     1       0.058  10.408  20.635  0.00  0.00    +0.000 A 
ATOM     12  C   UNL     1      -0.110   9.401  21.569  0.00  0.00    +0.000 A 
ATOM     13  C   UNL     1       0.524   8.164  21.385  0.00  0.00    +0.000 A 
ATOM     14  C   UNL     1       1.337   7.908  20.261  0.00  0.00    +0.000 A 
ENDROOT
BRANCH   1  18
ATOM     15  C   UNL     1       7.487   4.848  15.938  0.00  0.00    +0.000 C 
ATOM     16  C   UNL     1       6.095   4.743  16.434  0.00  0.00    +0.000 A 
ATOM     17  N   UNL     1       5.620   5.221  17.562  0.00  0.00    +0.000 NA
ATOM     18  C   UNL     1       4.306   4.820  17.642  0.00  0.00    +0.000 A 
ATOM     19  C   UNL     1       3.979   4.102  16.511  0.00  0.00    +0.000 A 
ATOM     20  N   UNL     1       5.110   4.092  15.739  0.00  0.00    +0.000 N 
ATOM     21  H   UNL     1       5.212   3.659  14.831  0.00  0.00    +0.000 HD
ENDBRANCH   1  18
BRANCH   3  22
ATOM     22  N   UNL     1       2.276   3.617  21.990  0.00  0.00    +0.000 N 
ATOM     23  H   UNL     1       1.585   3.920  22.669  0.00  0.00    +0.000 HD
ATOM     24  H   UNL     1       3.187   3.444  22.406  0.00  0.00    +0.000 HD
ENDBRANCH   3  22
BRANCH   2  25
ATOM     25  C   UNL     1       3.781   2.807  19.737  0.00  0.00    +0.000 C 
ATOM     26  N   UNL     1       4.235   1.741  19.697  0.00  0.00    +0.000 NA
ENDBRANCH   2  25
BRANCH  11  27
ATOM     27  O   UNL     1      -0.565  11.603  20.841  0.00  0.00    +0.000 OA
ATOM     28  H   UNL     1      -1.160  11.780  20.093  0.00  0.00    +0.000 HD
ENDBRANCH  11  27
TORSDOF 4
ENDMDL
MODEL 3
REMARK VINA RESULT:      -7.6      4.145      7.785
REMARK  Name = 
REMARK  5 active torsions:
REMARK  status: ('A' for Active; 'I' for Inactive)
REMARK    1  A    between atoms: C_1  and  C_2
REMARK    2  A    between atoms: C_4  and  C_5
REMARK    3  A    between atoms: C_6  and  C_7
REMARK    4  A    between atoms: C_9  and  N_10
REMARK    5  A    between atoms: C_18  and  O_19
REMARK                            x       y       z     vdW  Elec       q    Type
REMARK                         _______ _______ _______ _____ _____    ______ ____
ROOT
ATOM      1  C   UNL     1       0.341  10.971  20.400  0.00  0.00    +0.000 A 
ATOM      2  C   UNL     1      -0.126  10.793  21.714  0.00  0.00    +0.000 A 
ATOM      3  C   UNL     1       0.076   9.560  22.336  0.00  0.00    +0.000 A 
ATOM      4  N   UNL     1       0.713   8.534  21.737  0.00  0.00    +0.000 NA
ATOM      5  C   UNL     1       1.188   8.694  20.473  0.00  0.00    +0.000 A 
ATOM      6  C   UNL     1       1.021   9.892  19.770  0.00  0.00    +0.000 A 
ATOM      7  C   UNL     1       1.552  10.020  18.362  0.00  0.00    +0.000 C 
ATOM      8  C   UNL     1       2.222   8.813  17.714  0.00  0.00    +0.000 C 
ATOM      9  C   UNL     1       2.371   7.583  18.557  0.00  0.00    +0.000 A 
ATOM     10  C   UNL     1       3.023   6.481  17.973  0.00  0.00    +0.000 A 
ATOM     11  C   UNL     1       3.181   5.305  18.698  0.00  0.00    +0.000 A 
ATOM     12  C   UNL     1       2.705   5.218  19.994  0.00  0.00    +0.000 A 
ATOM     13  C   UNL     1       2.057   6.317  20.576  0.00  0.00    +0.000 A 
ATOM     14  C   UNL     1       1.875   7.526  19.874  0.00  0.00    +0.000 A 
ENDROOT
BRANCH   1  18
ATOM     15  C   UNL     1       1.182  15.526  18.640  0.00  0.00    +0.000 C 
ATOM     16  C   UNL     1       0.551  14.222  18.945  0.00  0.00    +0.000 A 
ATOM     17  N   UNL     1       0.997  13.303  19.772  0.00  0.00    +0.000 NA
ATOM     18  C   UNL     1       0.136  12.233  19.679  0.00  0.00    +0.000 A 
ATOM     19  C   UNL     1      -0.871  12.535  18.787  0.00  0.00    +0.000 A 
ATOM     20  N   UNL     1      -0.616  13.810  18.358  0.00  0.00    +0.000 N 
ATOM     21  H   UNL     1      -1.171  14.344  17.703  0.00  0.00    +0.000 HD
ENDBRANCH   1  18
BRANCH   3  22
ATOM     22  N   UNL     1      -0.462   9.263  23.590  0.00  0.00    +0.000 N 
ATOM     23  H   UNL     1      -1.199   8.566  23.583  0.00  0.00    +0.000 HD
ATOM     24  H   UNL     1      -0.745  10.131  24.038  0.00  0.00    +0.000 HD
ENDBRANCH   3  22
BRANCH   2  25
ATOM     25  C   UNL     1      -0.768  11.838  22.462  0.00  0.00    +0.000 C 
ATOM     26  N   UNL     1      -1.283  12.670  23.084  0.00  0.00    +0.000 NA
ENDBRANCH   2  25
BRANCH  11  27
ATOM     27  O   UNL     1       3.802   4.221  18.154  0.00  0.00    +0.000 OA
ATOM     28  H   UNL     1       3.136   3.664  17.716  0.00  0.00    +0.000 HD
ENDBRANCH  11  27
TORSDOF 4
ENDMDL
MODEL 4
REMARK VINA RESULT:      -7.3      1.511      3.828
REMARK  Name = 
REMARK  5 active torsions:
REMARK  status: ('A' for Active; 'I' for Inactive)
REMARK    1  A    between atoms: C_1  and  C_2
REMARK    2  A    between atoms: C_4  and  C_5
REMARK    3  A    between atoms: C_6  and  C_7
REMARK    4  A    between atoms: C_9  and  N_10
REMARK    5  A    between atoms: C_18  and  O_19
REMARK                            x       y       z     vdW  Elec       q    Type
REMARK                         _______ _______ _______ _____ _____    ______ ____
ROOT
ATOM      1  C   UNL     1       4.072   4.865  18.008  0.00  0.00    +0.000 A 
ATOM      2  C   UNL     1       4.764   5.236  16.842  0.00  0.00    +0.000 A 
ATOM      3  C   UNL     1       4.604   6.533  16.351  0.00  0.00    +0.000 A 
ATOM      4  N   UNL     1       3.825   7.452  16.954  0.00  0.00    +0.000 NA
ATOM      5  C   UNL     1       3.163   7.117  18.094  0.00  0.00    +0.000 A 
ATOM      6  C   UNL     1       3.255   5.837  18.651  0.00  0.00    +0.000 A 
ATOM      7  C   UNL     1       2.490   5.505  19.909  0.00  0.00    +0.000 C 
ATOM      8  C   UNL     1       1.585   6.568  20.525  0.00  0.00    +0.000 C 
ATOM      9  C   UNL     1       1.570   7.913  19.865  0.00  0.00    +0.000 A 
ATOM     10  C   UNL     1       0.764   8.906  20.453  0.00  0.00    +0.000 A 
ATOM     11  C   UNL     1       0.696  10.172  19.882  0.00  0.00    +0.000 A 
ATOM     12  C   UNL     1       1.423  10.459  18.740  0.00  0.00    +0.000 A 
ATOM     13  C   UNL     1       2.226   9.470  18.155  0.00  0.00    +0.000 A 
ATOM     14  C   UNL     1       2.322   8.174  18.703  0.00  0.00    +0.000 A 
ENDROOT
BRANCH   1  18
ATOM     15  C   UNL     1       5.265   1.154  21.068  0.00  0.00    +0.000 C 
ATOM     16  C   UNL     1       4.728   1.929  19.926  0.00  0.00    +0.000 A 
ATOM     17  N   UNL     1       4.925   3.203  19.674  0.00  0.00    +0.000 NA
ATOM     18  C   UNL     1       4.174   3.509  18.561  0.00  0.00    +0.000 A 
ATOM     19  C   UNL     1       3.528   2.373  18.121  0.00  0.00    +0.000 A 
ATOM     20  N   UNL     1       3.916   1.373  18.973  0.00  0.00    +0.000 N 
ATOM     21  H   UNL     1       3.634   0.404  18.926  0.00  0.00    +0.000 HD
ENDBRANCH   1  18
BRANCH   3  22
ATOM     22  N   UNL     1       5.159   6.941  15.136  0.00  0.00    +0.000 N 
ATOM     23  H   UNL     1       5.297   6.196  14.461  0.00  0.00    +0.000 HD
ATOM     24  H   UNL     1       6.009   7.465  15.325  0.00  0.00    +0.000 HD
ENDBRANCH   3  22
BRANCH   2  25
ATOM     25  C   UNL     1       5.662   4.351  16.154  0.00  0.00    +0.000 C 
ATOM     26  N   UNL     1       6.380   3.645  15.579  0.00  0.00    +0.000 NA
ENDBRANCH   2  25
BRANCH  11  27
ATOM     27  O   UNL     1      -0.082  11.149  20.427  0.00  0.00    +0.000 OA
ATOM     28  H   UNL     1       0.028  11.135  21.393  0.00  0.00    +0.000 HD
ENDBRANCH  11  27
TORSDOF 4
ENDMDL
MODEL 5
REMARK VINA RESULT:      -7.0      3.798      5.713
REMARK  Name = 
REMARK  5 active torsions:
REMARK  status: ('A' for Active; 'I' for Inactive)
REMARK    1  A    between atoms: C_1  and  C_2
REMARK    2  A    between atoms: C_4  and  C_5
REMARK    3  A    between atoms: C_6  and  C_7
REMARK    4  A    between atoms: C_9  and  N_10
REMARK    5  A    between atoms: C_18  and  O_19
REMARK                            x       y       z     vdW  Elec       q    Type
REMARK                         _______ _______ _______ _____ _____    ______ ____
ROOT
ATOM      1  C   UNL     1       6.291   5.666  17.055  0.00  0.00    +0.000 A 
ATOM      2  C   UNL     1       6.532   5.054  15.812  0.00  0.00    +0.000 A 
ATOM      3  C   UNL     1       5.659   4.056  15.377  0.00  0.00    +0.000 A 
ATOM      4  N   UNL     1       4.585   3.662  16.088  0.00  0.00    +0.000 NA
ATOM      5  C   UNL     1       4.325   4.256  17.283  0.00  0.00    +0.000 A 
ATOM      6  C   UNL     1       5.153   5.257  17.804  0.00  0.00    +0.000 A 
ATOM      7  C   UNL     1       4.834   5.878  19.143  0.00  0.00    +0.000 C 
ATOM      8  C   UNL     1       3.634   5.362  19.929  0.00  0.00    +0.000 C 
ATOM      9  C   UNL     1       2.799   4.302  19.277  0.00  0.00    +0.000 A 
ATOM     10  C   UNL     1       1.669   3.851  19.985  0.00  0.00    +0.000 A 
ATOM     11  C   UNL     1       0.860   2.860  19.441  0.00  0.00    +0.000 A 
ATOM     12  C   UNL     1       1.160   2.319  18.202  0.00  0.00    +0.000 A 
ATOM     13  C   UNL     1       2.285   2.770  17.497  0.00  0.00    +0.000 A 
ATOM     14  C   UNL     1       3.131   3.773  18.015  0.00  0.00    +0.000 A 
ENDROOT
BRANCH   1  18
ATOM     15  C   UNL     1       8.375  10.104  17.782  0.00  0.00    +0.000 C 
ATOM     16  C   UNL     1       8.062   8.658  17.858  0.00  0.00    +0.000 A 
ATOM     17  N   UNL     1       7.207   7.995  17.113  0.00  0.00    +0.000 NA
ATOM     18  C   UNL     1       7.186   6.702  17.585  0.00  0.00    +0.000 A 
ATOM     19  C   UNL     1       8.078   6.585  18.630  0.00  0.00    +0.000 A 
ATOM     20  N   UNL     1       8.652   7.821  18.768  0.00  0.00    +0.000 N 
ATOM     21  H   UNL     1       9.363   8.080  19.438  0.00  0.00    +0.000 HD
ENDBRANCH   1  18
BRANCH   3  22
ATOM     22  N   UNL     1       5.896   3.318  14.215  0.00  0.00    +0.000 N 
ATOM     23  H   UNL     1       5.063   3.070  13.691  0.00  0.00    +0.000 HD
ATOM     24  H   UNL     1       6.467   2.511  14.451  0.00  0.00    +0.000 HD
ENDBRANCH   3  22
BRANCH   2  25
ATOM     25  C   UNL     1       7.616   5.439  14.951  0.00  0.00    +0.000 C 
ATOM     26  N   UNL     1       8.478   5.743  14.238  0.00  0.00    +0.000 NA
ENDBRANCH   2  25
BRANCH  11  27
ATOM     27  O   UNL     1      -0.235   2.400  20.108  0.00  0.00    +0.000 OA
ATOM     28  H   UNL     1      -0.986   2.988  19.922  0.00  0.00    +0.000 HD
ENDBRANCH  11  27
TORSDOF 4
ENDMDL
MODEL 6
REMARK VINA RESULT:      -6.6      6.722     10.040
REMARK  Name = 
REMARK  5 active torsions:
REMARK  status: ('A' for Active; 'I' for Inactive)
REMARK    1  A    between atoms: C_1  and  C_2
REMARK    2  A    between atoms: C_4  and  C_5
REMARK    3  A    between atoms: C_6  and  C_7
REMARK    4  A    between atoms: C_9  and  N_10
REMARK    5  A    between atoms: C_18  and  O_19
REMARK                            x       y       z     vdW  Elec       q    Type
REMARK                         _______ _______ _______ _____ _____    ______ ____
ROOT
ATOM      1  C   UNL     1      -3.173  11.881  18.926  0.00  0.00    +0.000 A 
ATOM      2  C   UNL     1      -4.003  11.672  17.810  0.00  0.00    +0.000 A 
ATOM      3  C   UNL     1      -5.384  11.798  17.969  0.00  0.00    +0.000 A 
ATOM      4  N   UNL     1      -5.958  12.126  19.142  0.00  0.00    +0.000 NA
ATOM      5  C   UNL     1      -5.171  12.350  20.228  0.00  0.00    +0.000 A 
ATOM      6  C   UNL     1      -3.778  12.235  20.164  0.00  0.00    +0.000 A 
ATOM      7  C   UNL     1      -2.944  12.478  21.398  0.00  0.00    +0.000 C 
ATOM      8  C   UNL     1      -3.647  12.800  22.713  0.00  0.00    +0.000 C 
ATOM      9  C   UNL     1      -5.140  12.921  22.673  0.00  0.00    +0.000 A 
ATOM     10  C   UNL     1      -5.788  13.254  23.878  0.00  0.00    +0.000 A 
ATOM     11  C   UNL     1      -7.173  13.368  23.911  0.00  0.00    +0.000 A 
ATOM     12  C   UNL     1      -7.916  13.161  22.762  0.00  0.00    +0.000 A 
ATOM     13  C   UNL     1      -7.270  12.830  21.562  0.00  0.00    +0.000 A 
ATOM     14  C   UNL     1      -5.867  12.704  21.487  0.00  0.00    +0.000 A 
ENDROOT
BRANCH   1  18
ATOM     15  C   UNL     1       1.301   9.757  18.751  0.00  0.00    +0.000 C 
ATOM     16  C   UNL     1       0.210  10.758  18.771  0.00  0.00    +0.000 A 
ATOM     17  N   UNL     1      -1.066  10.532  18.989  0.00  0.00    +0.000 NA
ATOM     18  C   UNL     1      -1.715  11.736  18.834  0.00  0.00    +0.000 A 
ATOM     19  C   UNL     1      -0.792  12.717  18.540  0.00  0.00    +0.000 A 
ATOM     20  N   UNL     1       0.426  12.091  18.539  0.00  0.00    +0.000 N 
ATOM     21  H   UNL     1       1.323  12.526  18.370  0.00  0.00    +0.000 HD
ENDBRANCH   1  18
BRANCH   3  22
ATOM     22  N   UNL     1      -6.280  11.490  16.943  0.00  0.00    +0.000 N 
ATOM     23  H   UNL     1      -6.117  11.984  16.072  0.00  0.00    +0.000 HD
ATOM     24  H   UNL     1      -7.228  11.607  17.291  0.00  0.00    +0.000 HD
ENDBRANCH   3  22
BRANCH   2  25
ATOM     25  C   UNL     1      -3.490  11.373  16.502  0.00  0.00    +0.000 C 
ATOM     26  N   UNL     1      -3.058  11.147  15.450  0.00  0.00    +0.000 NA
ENDBRANCH   2  25
BRANCH  11  27
ATOM     27  O   UNL     1      -7.826  13.682  25.065  0.00  0.00    +0.000 OA
ATOM     28  H   UNL     1      -8.220  14.567  24.972  0.00  0.00    +0.000 HD
ENDBRANCH  11  27
TORSDOF 4
ENDMDL
MODEL 7
REMARK VINA RESULT:      -6.5      7.254     10.018
REMARK  Name = 
REMARK  5 active torsions:
REMARK  status: ('A' for Active; 'I' for Inactive)
REMARK    1  A    between atoms: C_1  and  C_2
REMARK    2  A    between atoms: C_4  and  C_5
REMARK    3  A    between atoms: C_6  and  C_7
REMARK    4  A    between atoms: C_9  and  N_10
REMARK    5  A    between atoms: C_18  and  O_19
REMARK                            x       y       z     vdW  Elec       q    Type
REMARK                         _______ _______ _______ _____ _____    ______ ____
ROOT
ATOM      1  C   UNL     1      -2.913  11.863  19.119  0.00  0.00    +0.000 A 
ATOM      2  C   UNL     1      -3.685  11.551  17.986  0.00  0.00    +0.000 A 
ATOM      3  C   UNL     1      -5.076  11.592  18.090  0.00  0.00    +0.000 A 
ATOM      4  N   UNL     1      -5.714  11.931  19.227  0.00  0.00    +0.000 NA
ATOM      5  C   UNL     1      -4.985  12.254  20.328  0.00  0.00    +0.000 A 
ATOM      6  C   UNL     1      -3.587  12.229  20.318  0.00  0.00    +0.000 A 
ATOM      7  C   UNL     1      -2.818  12.581  21.569  0.00  0.00    +0.000 C 
ATOM      8  C   UNL     1      -3.590  12.911  22.842  0.00  0.00    +0.000 C 
ATOM      9  C   UNL     1      -5.085  12.930  22.744  0.00  0.00    +0.000 A 
ATOM     10  C   UNL     1      -5.799  13.270  23.909  0.00  0.00    +0.000 A 
ATOM     11  C   UNL     1      -7.189  13.293  23.888  0.00  0.00    +0.000 A 
ATOM     12  C   UNL     1      -7.872  12.987  22.724  0.00  0.00    +0.000 A 
ATOM     13  C   UNL     1      -7.161  12.649  21.565  0.00  0.00    +0.000 A 
ATOM     14  C   UNL     1      -5.751  12.614  21.544  0.00  0.00    +0.000 A 
ENDROOT
BRANCH   1  18
ATOM     15  C   UNL     1       1.796  13.351  18.716  0.00  0.00    +0.000 C 
ATOM     16  C   UNL     1       0.587  12.515  18.893  0.00  0.00    +0.000 A 
ATOM     17  N   UNL     1      -0.663  12.892  18.744  0.00  0.00    +0.000 NA
ATOM     18  C   UNL     1      -1.447  11.813  19.086  0.00  0.00    +0.000 A 
ATOM     19  C   UNL     1      -0.637  10.750  19.424  0.00  0.00    +0.000 A 
ATOM     20  N   UNL     1       0.648  11.197  19.263  0.00  0.00    +0.000 N 
ATOM     21  H   UNL     1       1.492  10.662  19.415  0.00  0.00    +0.000 HD
ENDBRANCH   1  18
BRANCH   3  22
ATOM     22  N   UNL     1      -5.910  11.180  17.049  0.00  0.00    +0.000 N 
ATOM     23  H   UNL     1      -6.810  10.813  17.344  0.00  0.00    +0.000 HD
ATOM     24  H   UNL     1      -5.398  10.535  16.454  0.00  0.00    +0.000 HD
ENDBRANCH   3  22
BRANCH   2  25
ATOM     25  C   UNL     1      -3.103  11.232  16.712  0.00  0.00    +0.000 C 
ATOM     26  N   UNL     1      -2.651  10.986  15.673  0.00  0.00    +0.000 NA
ENDBRANCH   2  25
BRANCH  11  27
ATOM     27  O   UNL     1      -7.904  13.612  25.003  0.00  0.00    +0.000 OA
ATOM     28  H   UNL     1      -7.779  14.556  25.198  0.00  0.00    +0.000 HD
ENDBRANCH  11  27
TORSDOF 4
ENDMDL
MODEL 8
REMARK VINA RESULT:      -6.3      7.557     11.506
REMARK  Name = 
REMARK  5 active torsions:
REMARK  status: ('A' for Active; 'I' for Inactive)
REMARK    1  A    between atoms: C_1  and  C_2
REMARK    2  A    between atoms: C_4  and  C_5
REMARK    3  A    between atoms: C_6  and  C_7
REMARK    4  A    between atoms: C_9  and  N_10
REMARK    5  A    between atoms: C_18  and  O_19
REMARK                            x       y       z     vdW  Elec       q    Type
REMARK                         _______ _______ _______ _____ _____    ______ ____
ROOT
ATOM      1  C   UNL     1      -4.183  13.741  21.868  0.00  0.00    +0.000 A 
ATOM      2  C   UNL     1      -4.748  13.656  23.153  0.00  0.00    +0.000 A 
ATOM      3  C   UNL     1      -4.202  12.752  24.066  0.00  0.00    +0.000 A 
ATOM      4  N   UNL     1      -3.147  11.967  23.776  0.00  0.00    +0.000 NA
ATOM      5  C   UNL     1      -2.576  12.049  22.545  0.00  0.00    +0.000 A 
ATOM      6  C   UNL     1      -3.064  12.918  21.563  0.00  0.00    +0.000 A 
ATOM      7  C   UNL     1      -2.407  12.965  20.205  0.00  0.00    +0.000 C 
ATOM      8  C   UNL     1      -1.246  12.020  19.913  0.00  0.00    +0.000 C 
ATOM      9  C   UNL     1      -0.785  11.143  21.036  0.00  0.00    +0.000 A 
ATOM     10  C   UNL     1       0.311  10.296  20.780  0.00  0.00    +0.000 A 
ATOM     11  C   UNL     1       0.779   9.448  21.777  0.00  0.00    +0.000 A 
ATOM     12  C   UNL     1       0.175   9.436  23.022  0.00  0.00    +0.000 A 
ATOM     13  C   UNL     1      -0.916  10.280  23.277  0.00  0.00    +0.000 A 
ATOM     14  C   UNL     1      -1.421  11.155  22.293  0.00  0.00    +0.000 A 
ENDROOT
BRANCH   1  18
ATOM     15  C   UNL     1      -7.088  15.498  18.258  0.00  0.00    +0.000 C 
ATOM     16  C   UNL     1      -6.019  15.363  19.274  0.00  0.00    +0.000 A 
ATOM     17  N   UNL     1      -5.737  14.295  19.986  0.00  0.00    +0.000 NA
ATOM     18  C   UNL     1      -4.727  14.649  20.851  0.00  0.00    +0.000 A 
ATOM     19  C   UNL     1      -4.378  15.965  20.630  0.00  0.00    +0.000 A 
ATOM     20  N   UNL     1      -5.179  16.393  19.605  0.00  0.00    +0.000 N 
ATOM     21  H   UNL     1      -5.173  17.312  19.184  0.00  0.00    +0.000 HD
ENDBRANCH   1  18
BRANCH   3  22
ATOM     22  N   UNL     1      -4.779  12.521  25.317  0.00  0.00    +0.000 N 
ATOM     23  H   UNL     1      -5.609  13.074  25.512  0.00  0.00    +0.000 HD
ATOM     24  H   UNL     1      -4.063  12.622  26.031  0.00  0.00    +0.000 HD
ENDBRANCH   3  22
BRANCH   2  25
ATOM     25  C   UNL     1      -5.838  14.487  23.582  0.00  0.00    +0.000 C 
ATOM     26  N   UNL     1      -6.732  15.141  23.924  0.00  0.00    +0.000 NA
ENDBRANCH   2  25
BRANCH  11  27
ATOM     27  O   UNL     1       1.833   8.613  21.553  0.00  0.00    +0.000 OA
ATOM     28  H   UNL     1       2.523   9.101  21.071  0.00  0.00    +0.000 HD
ENDBRANCH  11  27
TORSDOF 4
ENDMDL
MODEL 9
REMARK VINA RESULT:      -6.2      4.656      9.036
REMARK  Name = 
REMARK  5 active torsions:
REMARK  status: ('A' for Active; 'I' for Inactive)
REMARK    1  A    between atoms: C_1  and  C_2
REMARK    2  A    between atoms: C_4  and  C_5
REMARK    3  A    between atoms: C_6  and  C_7
REMARK    4  A    between atoms: C_9  and  N_10
REMARK    5  A    between atoms: C_18  and  O_19
REMARK                            x       y       z     vdW  Elec       q    Type
REMARK                         _______ _______ _______ _____ _____    ______ ____
ROOT
ATOM      1  C   UNL     1       0.223  11.848  20.264  0.00  0.00    +0.000 A 
ATOM      2  C   UNL     1       0.773  12.612  19.219  0.00  0.00    +0.000 A 
ATOM      3  C   UNL     1       1.633  11.989  18.314  0.00  0.00    +0.000 A 
ATOM      4  N   UNL     1       1.951  10.682  18.388  0.00  0.00    +0.000 NA
ATOM      5  C   UNL     1       1.414   9.923  19.380  0.00  0.00    +0.000 A 
ATOM      6  C   UNL     1       0.551  10.466  20.338  0.00  0.00    +0.000 A 
ATOM      7  C   UNL     1      -0.010   9.588  21.431  0.00  0.00    +0.000 C 
ATOM      8  C   UNL     1       0.420   8.126  21.498  0.00  0.00    +0.000 C 
ATOM      9  C   UNL     1       1.332   7.636  20.414  0.00  0.00    +0.000 A 
ATOM     10  C   UNL     1       1.700   6.278  20.453  0.00  0.00    +0.000 A 
ATOM     11  C   UNL     1       2.554   5.763  19.484  0.00  0.00    +0.000 A 
ATOM     12  C   UNL     1       3.039   6.582  18.479  0.00  0.00    +0.000 A 
ATOM     13  C   UNL     1       2.671   7.934  18.441  0.00  0.00    +0.000 A 
ATOM     14  C   UNL     1       1.808   8.495  19.405  0.00  0.00    +0.000 A 
ENDROOT
BRANCH   1  18
ATOM     15  C   UNL     1      -1.290  14.509  24.161  0.00  0.00    +0.000 C 
ATOM     16  C   UNL     1      -1.270  13.617  22.979  0.00  0.00    +0.000 A 
ATOM     17  N   UNL     1      -0.209  13.174  22.341  0.00  0.00    +0.000 NA
ATOM     18  C   UNL     1      -0.667  12.448  21.265  0.00  0.00    +0.000 A 
ATOM     19  C   UNL     1      -2.045  12.436  21.277  0.00  0.00    +0.000 A 
ATOM     20  N   UNL     1      -2.413  13.149  22.387  0.00  0.00    +0.000 N 
ATOM     21  H   UNL     1      -3.358  13.325  22.700  0.00  0.00    +0.000 HD
ENDBRANCH   1  18
BRANCH   3  22
ATOM     22  N   UNL     1       2.313  12.703  17.325  0.00  0.00    +0.000 N 
ATOM     23  H   UNL     1       1.762  12.916  16.499  0.00  0.00    +0.000 HD
ATOM     24  H   UNL     1       3.178  12.216  17.106  0.00  0.00    +0.000 HD
ENDBRANCH   3  22
BRANCH   2  25
ATOM     25  C   UNL     1       0.455  13.999  19.017  0.00  0.00    +0.000 C 
ATOM     26  N   UNL     1       0.204  15.115  18.832  0.00  0.00    +0.000 NA
ENDBRANCH   2  25
BRANCH  11  27
ATOM     27  O   UNL     1       2.931   4.454  19.502  0.00  0.00    +0.000 OA
ATOM     28  H   UNL     1       2.918   4.136  20.421  0.00  0.00    +0.000 HD
ENDBRANCH  11  27
TORSDOF 4
ENDMDL
