MODEL 1
REMARK VINA RESULT:      -8.7      0.000      0.000
REMARK  Name = 
REMARK  6 active torsions:
REMARK  status: ('A' for Active; 'I' for Inactive)
REMARK    1  A    between atoms: C_2  and  C_4
REMARK    2  A    between atoms: C_7  and  C_8
REMARK    3  A    between atoms: C_8  and  N_9
REMARK    4  A    between atoms: N_13  and  C_14
REMARK    5  A    between atoms: C_14  and  C_15
REMARK    6  A    between atoms: C_22  and  C_23
REMARK                            x       y       z     vdW  Elec       q    Type
REMARK                         _______ _______ _______ _____ _____    ______ ____
ROOT
ATOM      1  N   UNL     1       8.105   7.397  17.290  0.00  0.00    +0.000 N 
ATOM      2  C   UNL     1       6.983   6.662  16.960  0.00  0.00    +0.000 A 
ATOM      3  N   UNL     1       6.984   6.134  15.742  0.00  0.00    +0.000 NA
ATOM      4  C   UNL     1       5.908   5.442  15.338  0.00  0.00    +0.000 A 
ATOM      5  N   UNL     1       6.006   5.019  14.036  0.00  0.00    +0.000 N 
ATOM      6  C   UNL     1       4.808   5.243  16.151  0.00  0.00    +0.000 A 
ATOM      7  C   UNL     1       4.850   5.866  17.378  0.00  0.00    +0.000 A 
ATOM      8  N   UNL     1       5.952   6.542  17.790  0.00  0.00    +0.000 NA
ATOM      9  H   UNL     1       8.909   6.815  17.082  0.00  0.00    +0.000 HD
ATOM     10  H   UNL     1       6.270   5.797  13.440  0.00  0.00    +0.000 HD
ENDROOT
BRANCH   7  11
ATOM     11  C   UNL     1       3.762   5.830  18.382  0.00  0.00    +0.000 A 
ATOM     12  C   UNL     1       2.996   6.981  18.515  0.00  0.00    +0.000 A 
ATOM     13  S   UNL     1       2.127   7.008  19.967  0.00  0.00    +0.000 S 
ATOM     14  C   UNL     1       2.110   5.295  19.982  0.00  0.00    +0.000 A 
ATOM     15  C   UNL     1       1.206   4.514  20.725  0.00  0.00    +0.000 A 
ATOM     16  C   UNL     1       1.181   3.145  20.502  0.00  0.00    +0.000 A 
ATOM     17  C   UNL     1       2.128   2.560  19.672  0.00  0.00    +0.000 A 
ATOM     18  C   UNL     1       3.106   3.338  19.019  0.00  0.00    +0.000 A 
ATOM     19  C   UNL     1       3.071   4.757  19.104  0.00  0.00    +0.000 A 
ENDBRANCH   7  11
BRANCH   1  20
ATOM     20  C   UNL     1       8.174   8.166  18.517  0.00  0.00    +0.000 C 
BRANCH  20  24
ATOM     21  C   UNL     1       9.238  12.489  18.839  0.00  0.00    +0.000 C 
ATOM     22  C   UNL     1       8.575  11.979  17.552  0.00  0.00    +0.000 C 
ATOM     23  C   UNL     1       7.874  10.624  17.738  0.00  0.00    +0.000 C 
ATOM     24  C   UNL     1       8.821   9.562  18.330  0.00  0.00    +0.000 C 
ATOM     25  C   UNL     1       9.459  10.090  19.621  0.00  0.00    +0.000 C 
ATOM     26  C   UNL     1      10.171  11.416  19.415  0.00  0.00    +0.000 C 
BRANCH  21  28
ATOM     27  N   UNL     1      10.039  14.263  17.348  0.00  0.00    +0.000 N 
ATOM     28  C   UNL     1      10.018  13.783  18.623  0.00  0.00    +0.000 C 
ATOM     29  O   UNL     1      10.575  14.415  19.516  0.00  0.00    +0.000 OA
ATOM     30  H   UNL     1      10.495  15.153  17.204  0.00  0.00    +0.000 HD
ATOM     31  H   UNL     1       9.515  13.852  16.592  0.00  0.00    +0.000 HD
ENDBRANCH  21  28
ENDBRANCH  20  24
ENDBRANCH   1  20
BRANCH   5  32
ATOM     32  C   UNL     1       5.172   4.009  13.445  0.00  0.00    +0.000 C 
BRANCH  32  33
ATOM     33  C   UNL     1       5.922   3.189  12.403  0.00  0.00    +0.000 A 
ATOM     34  C   UNL     1       7.261   3.454  12.052  0.00  0.00    +0.000 A 
ATOM     35  C   UNL     1       7.924   2.633  11.139  0.00  0.00    +0.000 A 
ATOM     36  C   UNL     1       7.277   1.532  10.587  0.00  0.00    +0.000 A 
ATOM     37  C   UNL     1       5.953   1.252  10.936  0.00  0.00    +0.000 A 
ATOM     38  C   UNL     1       5.292   2.061  11.856  0.00  0.00    +0.000 A 
ENDBRANCH  32  33
ENDBRANCH   5  32
TORSDOF 6
ENDMDL
MODEL 2
REMARK VINA RESULT:      -8.7      7.799     12.585
REMARK  Name = 
REMARK  6 active torsions:
REMARK  status: ('A' for Active; 'I' for Inactive)
REMARK    1  A    between atoms: C_2  and  C_4
REMARK    2  A    between atoms: C_7  and  C_8
REMARK    3  A    between atoms: C_8  and  N_9
REMARK    4  A    between atoms: N_13  and  C_14
REMARK    5  A    between atoms: C_14  and  C_15
REMARK    6  A    between atoms: C_22  and  C_23
REMARK                            x       y       z     vdW  Elec       q    Type
REMARK                         _______ _______ _______ _____ _____    ______ ____
ROOT
ATOM      1  N   UNL     1       0.960   9.283  19.468  0.00  0.00    +0.000 N 
ATOM      2  C   UNL     1       0.612  10.536  19.933  0.00  0.00    +0.000 A 
ATOM      3  N   UNL     1      -0.347  10.557  20.852  0.00  0.00    +0.000 NA
ATOM      4  C   UNL     1      -0.765  11.742  21.320  0.00  0.00    +0.000 A 
ATOM      5  N   UNL     1      -1.810  11.626  22.203  0.00  0.00    +0.000 N 
ATOM      6  C   UNL     1      -0.223  12.939  20.893  0.00  0.00    +0.000 A 
ATOM      7  C   UNL     1       0.725  12.847  19.899  0.00  0.00    +0.000 A 
ATOM      8  N   UNL     1       1.162  11.644  19.450  0.00  0.00    +0.000 NA
ATOM      9  H   UNL     1       1.143   8.707  20.282  0.00  0.00    +0.000 HD
ATOM     10  H   UNL     1      -2.534  11.037  21.805  0.00  0.00    +0.000 HD
ENDROOT
BRANCH   7  11
ATOM     11  C   UNL     1       1.396  14.002  19.262  0.00  0.00    +0.000 A 
ATOM     12  C   UNL     1       2.613  13.752  18.638  0.00  0.00    +0.000 A 
ATOM     13  S   UNL     1       3.499  15.170  18.373  0.00  0.00    +0.000 S 
ATOM     14  C   UNL     1       2.039  16.064  18.305  0.00  0.00    +0.000 A 
ATOM     15  C   UNL     1       1.911  17.335  17.717  0.00  0.00    +0.000 A 
ATOM     16  C   UNL     1       0.638  17.864  17.565  0.00  0.00    +0.000 A 
ATOM     17  C   UNL     1      -0.456  17.209  18.116  0.00  0.00    +0.000 A 
ATOM     18  C   UNL     1      -0.305  15.990  18.807  0.00  0.00    +0.000 A 
ATOM     19  C   UNL     1       0.961  15.342  18.852  0.00  0.00    +0.000 A 
ENDBRANCH   7  11
BRANCH   1  20
ATOM     20  C   UNL     1       1.870   9.115  18.351  0.00  0.00    +0.000 C 
BRANCH  20  24
ATOM     21  C   UNL     1       4.104   5.267  18.711  0.00  0.00    +0.000 C 
ATOM     22  C   UNL     1       4.214   6.073  17.409  0.00  0.00    +0.000 C 
ATOM     23  C   UNL     1       3.781   7.539  17.576  0.00  0.00    +0.000 C 
ATOM     24  C   UNL     1       2.370   7.657  18.182  0.00  0.00    +0.000 C 
ATOM     25  C   UNL     1       2.290   6.856  19.487  0.00  0.00    +0.000 C 
ATOM     26  C   UNL     1       2.695   5.403  19.300  0.00  0.00    +0.000 C 
BRANCH  21  28
ATOM     27  N   UNL     1       5.538   3.333  19.175  0.00  0.00    +0.000 N 
ATOM     28  C   UNL     1       4.436   3.790  18.515  0.00  0.00    +0.000 C 
ATOM     29  O   UNL     1       3.763   3.009  17.850  0.00  0.00    +0.000 OA
ATOM     30  H   UNL     1       5.731   2.343  19.108  0.00  0.00    +0.000 HD
ATOM     31  H   UNL     1       6.071   3.894  19.820  0.00  0.00    +0.000 HD
ENDBRANCH  21  28
ENDBRANCH  20  24
ENDBRANCH   1  20
BRANCH   5  32
ATOM     32  C   UNL     1      -2.245  12.671  23.088  0.00  0.00    +0.000 C 
BRANCH  32  33
ATOM     33  C   UNL     1      -3.764  12.758  23.163  0.00  0.00    +0.000 A 
ATOM     34  C   UNL     1      -4.574  12.850  22.014  0.00  0.00    +0.000 A 
ATOM     35  C   UNL     1      -5.965  12.863  22.132  0.00  0.00    +0.000 A 
ATOM     36  C   UNL     1      -6.562  12.760  23.384  0.00  0.00    +0.000 A 
ATOM     37  C   UNL     1      -5.770  12.656  24.531  0.00  0.00    +0.000 A 
ATOM     38  C   UNL     1      -4.383  12.630  24.416  0.00  0.00    +0.000 A 
ENDBRANCH  32  33
ENDBRANCH   5  32
TORSDOF 6
ENDMDL
MODEL 3
REMARK VINA RESULT:      -8.6      7.037     11.032
REMARK  Name = 
REMARK  6 active torsions:
REMARK  status: ('A' for Active; 'I' for Inactive)
REMARK    1  A    between atoms: C_2  and  C_4
REMARK    2  A    between atoms: C_7  and  C_8
REMARK    3  A    between atoms: C_8  and  N_9
REMARK    4  A    between atoms: N_13  and  C_14
REMARK    5  A    between atoms: C_14  and  C_15
REMARK    6  A    between atoms: C_22  and  C_23
REMARK                            x       y       z     vdW  Elec       q    Type
REMARK                         _______ _______ _______ _____ _____    ______ ____
ROOT
ATOM      1  N   UNL     1       2.157  10.370  17.578  0.00  0.00    +0.000 N 
ATOM      2  C   UNL     1       1.819  11.391  18.444  0.00  0.00    +0.000 A 
ATOM      3  N   UNL     1       2.461  12.538  18.253  0.00  0.00    +0.000 NA
ATOM      4  C   UNL     1       2.213  13.561  19.084  0.00  0.00    +0.000 A 
ATOM      5  N   UNL     1       2.998  14.657  18.825  0.00  0.00    +0.000 N 
ATOM      6  C   UNL     1       1.301  13.471  20.118  0.00  0.00    +0.000 A 
ATOM      7  C   UNL     1       0.715  12.238  20.294  0.00  0.00    +0.000 A 
ATOM      8  N   UNL     1       0.950  11.215  19.434  0.00  0.00    +0.000 NA
ATOM      9  H   UNL     1       2.082  10.745  16.638  0.00  0.00    +0.000 HD
ATOM     10  H   UNL     1       3.972  14.377  18.762  0.00  0.00    +0.000 HD
ENDROOT
BRANCH   7  11
ATOM     11  C   UNL     1      -0.249  11.906  21.368  0.00  0.00    +0.000 A 
ATOM     12  C   UNL     1       0.146  10.938  22.284  0.00  0.00    +0.000 A 
ATOM     13  S   UNL     1      -1.163  10.305  23.150  0.00  0.00    +0.000 S 
ATOM     14  C   UNL     1      -2.012  11.777  22.934  0.00  0.00    +0.000 A 
ATOM     15  C   UNL     1      -3.100  12.193  23.723  0.00  0.00    +0.000 A 
ATOM     16  C   UNL     1      -3.573  13.487  23.562  0.00  0.00    +0.000 A 
ATOM     17  C   UNL     1      -3.074  14.286  22.542  0.00  0.00    +0.000 A 
ATOM     18  C   UNL     1      -2.061  13.820  21.679  0.00  0.00    +0.000 A 
ATOM     19  C   UNL     1      -1.446  12.558  21.908  0.00  0.00    +0.000 A 
ENDBRANCH   7  11
BRANCH   1  20
ATOM     20  C   UNL     1       1.661   9.020  17.767  0.00  0.00    +0.000 C 
BRANCH  20  24
ATOM     21  C   UNL     1       4.184   5.418  18.533  0.00  0.00    +0.000 C 
ATOM     22  C   UNL     1       3.312   5.971  19.669  0.00  0.00    +0.000 C 
ATOM     23  C   UNL     1       2.194   6.899  19.166  0.00  0.00    +0.000 C 
ATOM     24  C   UNL     1       2.743   8.037  18.284  0.00  0.00    +0.000 C 
ATOM     25  C   UNL     1       3.598   7.458  17.151  0.00  0.00    +0.000 C 
ATOM     26  C   UNL     1       4.715   6.566  17.666  0.00  0.00    +0.000 C 
BRANCH  21  28
ATOM     27  N   UNL     1       5.177   3.230  19.023  0.00  0.00    +0.000 N 
ATOM     28  C   UNL     1       5.353   4.581  19.047  0.00  0.00    +0.000 C 
ATOM     29  O   UNL     1       6.423   5.045  19.429  0.00  0.00    +0.000 OA
ATOM     30  H   UNL     1       5.968   2.663  19.297  0.00  0.00    +0.000 HD
ATOM     31  H   UNL     1       4.368   2.783  18.623  0.00  0.00    +0.000 HD
ENDBRANCH  21  28
ENDBRANCH  20  24
ENDBRANCH   1  20
BRANCH   5  32
ATOM     32  C   UNL     1       2.741  15.978  19.330  0.00  0.00    +0.000 C 
BRANCH  32  33
ATOM     33  C   UNL     1       1.839  16.778  18.399  0.00  0.00    +0.000 A 
ATOM     34  C   UNL     1       2.323  17.410  17.236  0.00  0.00    +0.000 A 
ATOM     35  C   UNL     1       1.445  18.077  16.380  0.00  0.00    +0.000 A 
ATOM     36  C   UNL     1       0.082  18.103  16.657  0.00  0.00    +0.000 A 
ATOM     37  C   UNL     1      -0.412  17.471  17.801  0.00  0.00    +0.000 A 
ATOM     38  C   UNL     1       0.459  16.793  18.649  0.00  0.00    +0.000 A 
ENDBRANCH  32  33
ENDBRANCH   5  32
TORSDOF 6
ENDMDL
MODEL 4
REMARK VINA RESULT:      -8.6      7.021     10.944
REMARK  Name = 
REMARK  6 active torsions:
REMARK  status: ('A' for Active; 'I' for Inactive)
REMARK    1  A    between atoms: C_2  and  C_4
REMARK    2  A    between atoms: C_7  and  C_8
REMARK    3  A    between atoms: C_8  and  N_9
REMARK    4  A    between atoms: N_13  and  C_14
REMARK    5  A    between atoms: C_14  and  C_15
REMARK    6  A    between atoms: C_22  and  C_23
REMARK                            x       y       z     vdW  Elec       q    Type
REMARK                         _______ _______ _______ _____ _____    ______ ____
ROOT
ATOM      1  N   UNL     1       1.888   9.493  18.497  0.00  0.00    +0.000 N 
ATOM      2  C   UNL     1       1.068  10.596  18.625  0.00  0.00    +0.000 A 
ATOM      3  N   UNL     1       1.604  11.637  19.251  0.00  0.00    +0.000 NA
ATOM      4  C   UNL     1       0.851  12.729  19.448  0.00  0.00    +0.000 A 
ATOM      5  N   UNL     1       1.498  13.698  20.173  0.00  0.00    +0.000 N 
ATOM      6  C   UNL     1      -0.457  12.815  19.007  0.00  0.00    +0.000 A 
ATOM      7  C   UNL     1      -0.967  11.680  18.419  0.00  0.00    +0.000 A 
ATOM      8  N   UNL     1      -0.191  10.589  18.199  0.00  0.00    +0.000 NA
ATOM      9  H   UNL     1       2.762   9.821  18.099  0.00  0.00    +0.000 HD
ATOM     10  H   UNL     1       1.899  13.291  21.012  0.00  0.00    +0.000 HD
ENDROOT
BRANCH   7  11
ATOM     11  C   UNL     1      -2.354  11.536  17.924  0.00  0.00    +0.000 A 
ATOM     12  C   UNL     1      -2.548  10.676  16.849  0.00  0.00    +0.000 A 
ATOM     13  S   UNL     1      -4.030  10.941  16.076  0.00  0.00    +0.000 S 
ATOM     14  C   UNL     1      -4.686  11.528  17.547  0.00  0.00    +0.000 A 
ATOM     15  C   UNL     1      -6.062  11.611  17.828  0.00  0.00    +0.000 A 
ATOM     16  C   UNL     1      -6.450  11.927  19.122  0.00  0.00    +0.000 A 
ATOM     17  C   UNL     1      -5.497  12.292  20.063  0.00  0.00    +0.000 A 
ATOM     18  C   UNL     1      -4.125  12.319  19.740  0.00  0.00    +0.000 A 
ATOM     19  C   UNL     1      -3.676  11.857  18.471  0.00  0.00    +0.000 A 
ENDBRANCH   7  11
BRANCH   1  20
ATOM     20  C   UNL     1       1.389   8.231  17.986  0.00  0.00    +0.000 C 
BRANCH  20  24
ATOM     21  C   UNL     1       4.965   5.720  18.898  0.00  0.00    +0.000 C 
ATOM     22  C   UNL     1       4.780   6.261  17.474  0.00  0.00    +0.000 C 
ATOM     23  C   UNL     1       3.792   7.437  17.406  0.00  0.00    +0.000 C 
ATOM     24  C   UNL     1       2.435   7.088  18.046  0.00  0.00    +0.000 C 
ATOM     25  C   UNL     1       2.647   6.563  19.472  0.00  0.00    +0.000 C 
ATOM     26  C   UNL     1       3.603   5.383  19.518  0.00  0.00    +0.000 C 
BRANCH  21  28
ATOM     27  N   UNL     1       5.248   3.305  19.221  0.00  0.00    +0.000 N 
ATOM     28  C   UNL     1       5.866   4.488  18.944  0.00  0.00    +0.000 C 
ATOM     29  O   UNL     1       7.071   4.500  18.711  0.00  0.00    +0.000 OA
ATOM     30  H   UNL     1       5.821   2.473  19.188  0.00  0.00    +0.000 HD
ATOM     31  H   UNL     1       4.249   3.209  19.316  0.00  0.00    +0.000 HD
ENDBRANCH  21  28
ENDBRANCH  20  24
ENDBRANCH   1  20
BRANCH   5  32
ATOM     32  C   UNL     1       1.071  15.067  20.263  0.00  0.00    +0.000 C 
BRANCH  32  33
ATOM     33  C   UNL     1       1.508  15.882  19.052  0.00  0.00    +0.000 A 
ATOM     34  C   UNL     1       0.752  16.962  18.555  0.00  0.00    +0.000 A 
ATOM     35  C   UNL     1       1.227  17.718  17.483  0.00  0.00    +0.000 A 
ATOM     36  C   UNL     1       2.463  17.427  16.912  0.00  0.00    +0.000 A 
ATOM     37  C   UNL     1       3.226  16.365  17.404  0.00  0.00    +0.000 A 
ATOM     38  C   UNL     1       2.762  15.617  18.482  0.00  0.00    +0.000 A 
ENDBRANCH  32  33
ENDBRANCH   5  32
TORSDOF 6
ENDMDL
MODEL 5
REMARK VINA RESULT:      -8.5      6.786     11.085
REMARK  Name = 
REMARK  6 active torsions:
REMARK  status: ('A' for Active; 'I' for Inactive)
REMARK    1  A    between atoms: C_2  and  C_4
REMARK    2  A    between atoms: C_7  and  C_8
REMARK    3  A    between atoms: C_8  and  N_9
REMARK    4  A    between atoms: N_13  and  C_14
REMARK    5  A    between atoms: C_14  and  C_15
REMARK    6  A    between atoms: C_22  and  C_23
REMARK                            x       y       z     vdW  Elec       q    Type
REMARK                         _______ _______ _______ _____ _____    ______ ____
ROOT
ATOM      1  N   UNL     1       1.444   9.217  21.281  0.00  0.00    +0.000 N 
ATOM      2  C   UNL     1       0.847  10.350  20.763  0.00  0.00    +0.000 A 
ATOM      3  N   UNL     1       1.274  11.502  21.267  0.00  0.00    +0.000 NA
ATOM      4  C   UNL     1       0.708  12.641  20.841  0.00  0.00    +0.000 A 
ATOM      5  N   UNL     1       1.185  13.748  21.497  0.00  0.00    +0.000 N 
ATOM      6  C   UNL     1      -0.289  12.659  19.884  0.00  0.00    +0.000 A 
ATOM      7  C   UNL     1      -0.723  11.428  19.447  0.00  0.00    +0.000 A 
ATOM      8  N   UNL     1      -0.128  10.282  19.863  0.00  0.00    +0.000 NA
ATOM      9  H   UNL     1       2.447   9.360  21.219  0.00  0.00    +0.000 HD
ATOM     10  H   UNL     1       1.151  13.596  22.500  0.00  0.00    +0.000 HD
ENDROOT
BRANCH   7  11
ATOM     11  C   UNL     1      -1.811  11.215  18.467  0.00  0.00    +0.000 A 
ATOM     12  C   UNL     1      -1.623  10.202  17.534  0.00  0.00    +0.000 A 
ATOM     13  S   UNL     1      -2.665  10.351  16.208  0.00  0.00    +0.000 S 
ATOM     14  C   UNL     1      -3.805  11.158  17.201  0.00  0.00    +0.000 A 
ATOM     15  C   UNL     1      -5.173  11.287  16.900  0.00  0.00    +0.000 A 
ATOM     16  C   UNL     1      -6.016  11.798  17.875  0.00  0.00    +0.000 A 
ATOM     17  C   UNL     1      -5.486  12.299  19.057  0.00  0.00    +0.000 A 
ATOM     18  C   UNL     1      -4.098  12.271  19.305  0.00  0.00    +0.000 A 
ATOM     19  C   UNL     1      -3.219  11.620  18.396  0.00  0.00    +0.000 A 
ENDBRANCH   7  11
BRANCH   1  20
ATOM     20  C   UNL     1       0.968   7.889  20.948  0.00  0.00    +0.000 C 
BRANCH  20  24
ATOM     21  C   UNL     1       3.253   4.914  18.529  0.00  0.00    +0.000 C 
ATOM     22  C   UNL     1       2.954   4.603  20.002  0.00  0.00    +0.000 C 
ATOM     23  C   UNL     1       1.817   5.464  20.575  0.00  0.00    +0.000 C 
ATOM     24  C   UNL     1       2.073   6.969  20.367  0.00  0.00    +0.000 C 
ATOM     25  C   UNL     1       2.355   7.254  18.887  0.00  0.00    +0.000 C 
ATOM     26  C   UNL     1       3.499   6.416  18.343  0.00  0.00    +0.000 C 
BRANCH  21  28
ATOM     27  N   UNL     1       5.335   3.681  18.931  0.00  0.00    +0.000 N 
ATOM     28  C   UNL     1       4.450   4.129  17.996  0.00  0.00    +0.000 C 
ATOM     29  O   UNL     1       4.630   3.856  16.813  0.00  0.00    +0.000 OA
ATOM     30  H   UNL     1       6.094   3.104  18.598  0.00  0.00    +0.000 HD
ATOM     31  H   UNL     1       5.190   3.778  19.923  0.00  0.00    +0.000 HD
ENDBRANCH  21  28
ENDBRANCH  20  24
ENDBRANCH   1  20
BRANCH   5  32
ATOM     32  C   UNL     1       1.005  15.100  21.045  0.00  0.00    +0.000 C 
BRANCH  32  33
ATOM     33  C   UNL     1       2.008  15.477  19.962  0.00  0.00    +0.000 A 
ATOM     34  C   UNL     1       1.649  16.238  18.831  0.00  0.00    +0.000 A 
ATOM     35  C   UNL     1       2.618  16.612  17.899  0.00  0.00    +0.000 A 
ATOM     36  C   UNL     1       3.950  16.259  18.092  0.00  0.00    +0.000 A 
ATOM     37  C   UNL     1       4.320  15.515  19.216  0.00  0.00    +0.000 A 
ATOM     38  C   UNL     1       3.358  15.151  20.154  0.00  0.00    +0.000 A 
ENDBRANCH  32  33
ENDBRANCH   5  32
TORSDOF 6
ENDMDL
MODEL 6
REMARK VINA RESULT:      -8.5      8.056     11.798
REMARK  Name = 
REMARK  6 active torsions:
REMARK  status: ('A' for Active; 'I' for Inactive)
REMARK    1  A    between atoms: C_2  and  C_4
REMARK    2  A    between atoms: C_7  and  C_8
REMARK    3  A    between atoms: C_8  and  N_9
REMARK    4  A    between atoms: N_13  and  C_14
REMARK    5  A    between atoms: C_14  and  C_15
REMARK    6  A    between atoms: C_22  and  C_23
REMARK                            x       y       z     vdW  Elec       q    Type
REMARK                         _______ _______ _______ _____ _____    ______ ____
ROOT
ATOM      1  N   UNL     1       0.037   9.610  17.799  0.00  0.00    +0.000 N 
ATOM      2  C   UNL     1      -0.891  10.529  18.247  0.00  0.00    +0.000 A 
ATOM      3  N   UNL     1      -1.997  10.626  17.517  0.00  0.00    +0.000 NA
ATOM      4  C   UNL     1      -2.925  11.528  17.870  0.00  0.00    +0.000 A 
ATOM      5  N   UNL     1      -3.977  11.579  16.990  0.00  0.00    +0.000 N 
ATOM      6  C   UNL     1      -2.780  12.345  18.975  0.00  0.00    +0.000 A 
ATOM      7  C   UNL     1      -1.586  12.233  19.651  0.00  0.00    +0.000 A 
ATOM      8  N   UNL     1      -0.664  11.300  19.305  0.00  0.00    +0.000 NA
ATOM      9  H   UNL     1      -0.457   8.735  17.662  0.00  0.00    +0.000 HD
ATOM     10  H   UNL     1      -3.628  11.665  16.040  0.00  0.00    +0.000 HD
ENDROOT
BRANCH   7  11
ATOM     11  C   UNL     1      -1.201  13.045  20.827  0.00  0.00    +0.000 A 
ATOM     12  C   UNL     1      -0.242  14.029  20.620  0.00  0.00    +0.000 A 
ATOM     13  S   UNL     1       0.456  14.558  22.068  0.00  0.00    +0.000 S 
ATOM     14  C   UNL     1      -0.981  14.145  22.905  0.00  0.00    +0.000 A 
ATOM     15  C   UNL     1      -1.341  14.652  24.167  0.00  0.00    +0.000 A 
ATOM     16  C   UNL     1      -2.615  14.383  24.645  0.00  0.00    +0.000 A 
ATOM     17  C   UNL     1      -3.446  13.512  23.952  0.00  0.00    +0.000 A 
ATOM     18  C   UNL     1      -3.033  12.915  22.744  0.00  0.00    +0.000 A 
ATOM     19  C   UNL     1      -1.796  13.284  22.146  0.00  0.00    +0.000 A 
ENDBRANCH   7  11
BRANCH   1  20
ATOM     20  C   UNL     1       1.355   9.511  18.395  0.00  0.00    +0.000 C 
BRANCH  20  24
ATOM     21  C   UNL     1       3.794   5.860  19.196  0.00  0.00    +0.000 C 
ATOM     22  C   UNL     1       3.681   6.378  17.756  0.00  0.00    +0.000 C 
ATOM     23  C   UNL     1       3.208   7.839  17.682  0.00  0.00    +0.000 C 
ATOM     24  C   UNL     1       1.894   8.058  18.455  0.00  0.00    +0.000 C 
ATOM     25  C   UNL     1       2.037   7.546  19.893  0.00  0.00    +0.000 C 
ATOM     26  C   UNL     1       2.478   6.093  19.948  0.00  0.00    +0.000 C 
BRANCH  21  28
ATOM     27  N   UNL     1       3.120   3.503  19.273  0.00  0.00    +0.000 N 
ATOM     28  C   UNL     1       4.164   4.380  19.259  0.00  0.00    +0.000 C 
ATOM     29  O   UNL     1       5.314   3.951  19.256  0.00  0.00    +0.000 OA
ATOM     30  H   UNL     1       3.352   2.519  19.246  0.00  0.00    +0.000 HD
ATOM     31  H   UNL     1       2.158   3.783  19.169  0.00  0.00    +0.000 HD
ENDBRANCH  21  28
ENDBRANCH  20  24
ENDBRANCH   1  20
BRANCH   5  32
ATOM     32  C   UNL     1      -5.240  12.204  17.270  0.00  0.00    +0.000 C 
BRANCH  32  33
ATOM     33  C   UNL     1      -5.946  11.556  18.454  0.00  0.00    +0.000 A 
ATOM     34  C   UNL     1      -6.386  12.296  19.570  0.00  0.00    +0.000 A 
ATOM     35  C   UNL     1      -7.085  11.667  20.601  0.00  0.00    +0.000 A 
ATOM     36  C   UNL     1      -7.376  10.308  20.523  0.00  0.00    +0.000 A 
ATOM     37  C   UNL     1      -6.955   9.566  19.416  0.00  0.00    +0.000 A 
ATOM     38  C   UNL     1      -6.269  10.193  18.380  0.00  0.00    +0.000 A 
ENDBRANCH  32  33
ENDBRANCH   5  32
TORSDOF 6
ENDMDL
MODEL 7
REMARK VINA RESULT:      -8.5      7.673     11.930
REMARK  Name = 
REMARK  6 active torsions:
REMARK  status: ('A' for Active; 'I' for Inactive)
REMARK    1  A    between atoms: C_2  and  C_4
REMARK    2  A    between atoms: C_7  and  C_8
REMARK    3  A    between atoms: C_8  and  N_9
REMARK    4  A    between atoms: N_13  and  C_14
REMARK    5  A    between atoms: C_14  and  C_15
REMARK    6  A    between atoms: C_22  and  C_23
REMARK                            x       y       z     vdW  Elec       q    Type
REMARK                         _______ _______ _______ _____ _____    ______ ____
ROOT
ATOM      1  N   UNL     1       0.478   9.200  17.914  0.00  0.00    +0.000 N 
ATOM      2  C   UNL     1      -0.171  10.370  18.255  0.00  0.00    +0.000 A 
ATOM      3  N   UNL     1      -1.480  10.383  18.031  0.00  0.00    +0.000 NA
ATOM      4  C   UNL     1      -2.169  11.502  18.300  0.00  0.00    +0.000 A 
ATOM      5  N   UNL     1      -3.493  11.408  17.949  0.00  0.00    +0.000 N 
ATOM      6  C   UNL     1      -1.569  12.634  18.819  0.00  0.00    +0.000 A 
ATOM      7  C   UNL     1      -0.202  12.570  18.972  0.00  0.00    +0.000 A 
ATOM      8  N   UNL     1       0.484  11.427  18.724  0.00  0.00    +0.000 NA
ATOM      9  H   UNL     1      -0.033   8.441  18.352  0.00  0.00    +0.000 HD
ATOM     10  H   UNL     1      -3.574  11.067  16.996  0.00  0.00    +0.000 HD
ENDROOT
BRANCH   7  11
ATOM     11  C   UNL     1       0.645  13.681  19.462  0.00  0.00    +0.000 A 
ATOM     12  C   UNL     1       1.916  13.346  19.912  0.00  0.00    +0.000 A 
ATOM     13  S   UNL     1       2.601  14.566  20.864  0.00  0.00    +0.000 S 
ATOM     14  C   UNL     1       1.664  15.734  20.032  0.00  0.00    +0.000 A 
ATOM     15  C   UNL     1       1.955  17.110  19.996  0.00  0.00    +0.000 A 
ATOM     16  C   UNL     1       1.225  17.915  19.134  0.00  0.00    +0.000 A 
ATOM     17  C   UNL     1       0.143  17.387  18.442  0.00  0.00    +0.000 A 
ATOM     18  C   UNL     1      -0.215  16.030  18.572  0.00  0.00    +0.000 A 
ATOM     19  C   UNL     1       0.599  15.140  19.327  0.00  0.00    +0.000 A 
ENDBRANCH   7  11
BRANCH   1  20
ATOM     20  C   UNL     1       1.924   9.097  17.948  0.00  0.00    +0.000 C 
BRANCH  20  24
ATOM     21  C   UNL     1       4.169   5.441  19.180  0.00  0.00    +0.000 C 
ATOM     22  C   UNL     1       4.288   5.935  17.731  0.00  0.00    +0.000 C 
ATOM     23  C   UNL     1       3.848   7.398  17.561  0.00  0.00    +0.000 C 
ATOM     24  C   UNL     1       2.431   7.641  18.115  0.00  0.00    +0.000 C 
ATOM     25  C   UNL     1       2.343   7.152  19.565  0.00  0.00    +0.000 C 
ATOM     26  C   UNL     1       2.754   5.697  19.712  0.00  0.00    +0.000 C 
BRANCH  21  28
ATOM     27  N   UNL     1       5.696   3.563  18.784  0.00  0.00    +0.000 N 
ATOM     28  C   UNL     1       4.509   3.959  19.323  0.00  0.00    +0.000 C 
ATOM     29  O   UNL     1       3.811   3.141  19.914  0.00  0.00    +0.000 OA
ATOM     30  H   UNL     1       5.964   2.600  18.930  0.00  0.00    +0.000 HD
ATOM     31  H   UNL     1       6.363   4.202  18.380  0.00  0.00    +0.000 HD
ENDBRANCH  21  28
ENDBRANCH  20  24
ENDBRANCH   1  20
BRANCH   5  32
ATOM     32  C   UNL     1      -4.518  12.308  18.401  0.00  0.00    +0.000 C 
BRANCH  32  33
ATOM     33  C   UNL     1      -5.648  11.573  19.111  0.00  0.00    +0.000 A 
ATOM     34  C   UNL     1      -6.112  10.311  18.691  0.00  0.00    +0.000 A 
ATOM     35  C   UNL     1      -7.106   9.650  19.414  0.00  0.00    +0.000 A 
ATOM     36  C   UNL     1      -7.630  10.221  20.569  0.00  0.00    +0.000 A 
ATOM     37  C   UNL     1      -7.170  11.467  21.003  0.00  0.00    +0.000 A 
ATOM     38  C   UNL     1      -6.169  12.124  20.292  0.00  0.00    +0.000 A 
ENDBRANCH  32  33
ENDBRANCH   5  32
TORSDOF 6
ENDMDL
MODEL 8
REMARK VINA RESULT:      -8.4      7.174     11.096
REMARK  Name = 
REMARK  6 active torsions:
REMARK  status: ('A' for Active; 'I' for Inactive)
REMARK    1  A    between atoms: C_2  and  C_4
REMARK    2  A    between atoms: C_7  and  C_8
REMARK    3  A    between atoms: C_8  and  N_9
REMARK    4  A    between atoms: N_13  and  C_14
REMARK    5  A    between atoms: C_14  and  C_15
REMARK    6  A    between atoms: C_22  and  C_23
REMARK                            x       y       z     vdW  Elec       q    Type
REMARK                         _______ _______ _______ _____ _____    ______ ____
ROOT
ATOM      1  N   UNL     1       1.959   9.808  18.592  0.00  0.00    +0.000 N 
ATOM      2  C   UNL     1       1.074  10.864  18.684  0.00  0.00    +0.000 A 
ATOM      3  N   UNL     1       1.547  11.955  19.277  0.00  0.00    +0.000 NA
ATOM      4  C   UNL     1       0.730  13.006  19.439  0.00  0.00    +0.000 A 
ATOM      5  N   UNL     1       1.318  14.033  20.133  0.00  0.00    +0.000 N 
ATOM      6  C   UNL     1      -0.579  13.001  18.995  0.00  0.00    +0.000 A 
ATOM      7  C   UNL     1      -1.020  11.820  18.442  0.00  0.00    +0.000 A 
ATOM      8  N   UNL     1      -0.180  10.770  18.257  0.00  0.00    +0.000 NA
ATOM      9  H   UNL     1       2.813  10.174  18.184  0.00  0.00    +0.000 HD
ATOM     10  H   UNL     1       1.740  13.677  20.985  0.00  0.00    +0.000 HD
ENDROOT
BRANCH   7  11
ATOM     11  C   UNL     1      -2.395  11.578  17.950  0.00  0.00    +0.000 A 
ATOM     12  C   UNL     1      -2.535  10.675  16.903  0.00  0.00    +0.000 A 
ATOM     13  S   UNL     1      -4.028  10.828  16.121  0.00  0.00    +0.000 S 
ATOM     14  C   UNL     1      -4.721  11.422  17.571  0.00  0.00    +0.000 A 
ATOM     15  C   UNL     1      -6.100  11.433  17.848  0.00  0.00    +0.000 A 
ATOM     16  C   UNL     1      -6.510  11.767  19.130  0.00  0.00    +0.000 A 
ATOM     17  C   UNL     1      -5.583  12.218  20.060  0.00  0.00    +0.000 A 
ATOM     18  C   UNL     1      -4.214  12.314  19.738  0.00  0.00    +0.000 A 
ATOM     19  C   UNL     1      -3.735  11.839  18.486  0.00  0.00    +0.000 A 
ENDBRANCH   7  11
BRANCH   1  20
ATOM     20  C   UNL     1       1.536   8.503  18.120  0.00  0.00    +0.000 C 
BRANCH  20  24
ATOM     21  C   UNL     1       4.461   5.249  17.235  0.00  0.00    +0.000 C 
ATOM     22  C   UNL     1       3.282   4.956  18.174  0.00  0.00    +0.000 C 
ATOM     23  C   UNL     1       2.144   5.981  18.042  0.00  0.00    +0.000 C 
ATOM     24  C   UNL     1       2.647   7.426  18.219  0.00  0.00    +0.000 C 
ATOM     25  C   UNL     1       3.814   7.697  17.262  0.00  0.00    +0.000 C 
ATOM     26  C   UNL     1       4.942   6.693  17.424  0.00  0.00    +0.000 C 
BRANCH  21  28
ATOM     27  N   UNL     1       5.863   3.403  16.436  0.00  0.00    +0.000 N 
ATOM     28  C   UNL     1       5.629   4.289  17.445  0.00  0.00    +0.000 C 
ATOM     29  O   UNL     1       6.370   4.300  18.423  0.00  0.00    +0.000 OA
ATOM     30  H   UNL     1       6.674   2.807  16.532  0.00  0.00    +0.000 HD
ATOM     31  H   UNL     1       5.361   3.412  15.562  0.00  0.00    +0.000 HD
ENDBRANCH  21  28
ENDBRANCH  20  24
ENDBRANCH   1  20
BRANCH   5  32
ATOM     32  C   UNL     1       0.810  15.377  20.180  0.00  0.00    +0.000 C 
BRANCH  32  33
ATOM     33  C   UNL     1       1.311  16.217  19.012  0.00  0.00    +0.000 A 
ATOM     34  C   UNL     1       2.563  15.996  18.404  0.00  0.00    +0.000 A 
ATOM     35  C   UNL     1       2.950  16.750  17.295  0.00  0.00    +0.000 A 
ATOM     36  C   UNL     1       2.092  17.708  16.766  0.00  0.00    +0.000 A 
ATOM     37  C   UNL     1       0.843  17.929  17.353  0.00  0.00    +0.000 A 
ATOM     38  C   UNL     1       0.448  17.170  18.451  0.00  0.00    +0.000 A 
ENDBRANCH  32  33
ENDBRANCH   5  32
TORSDOF 6
ENDMDL
MODEL 9
REMARK VINA RESULT:      -8.4      7.827     12.839
REMARK  Name = 
REMARK  6 active torsions:
REMARK  status: ('A' for Active; 'I' for Inactive)
REMARK    1  A    between atoms: C_2  and  C_4
REMARK    2  A    between atoms: C_7  and  C_8
REMARK    3  A    between atoms: C_8  and  N_9
REMARK    4  A    between atoms: N_13  and  C_14
REMARK    5  A    between atoms: C_14  and  C_15
REMARK    6  A    between atoms: C_22  and  C_23
REMARK                            x       y       z     vdW  Elec       q    Type
REMARK                         _______ _______ _______ _____ _____    ______ ____
ROOT
ATOM      1  N   UNL     1       0.975   8.751  20.618  0.00  0.00    +0.000 N 
ATOM      2  C   UNL     1       0.583  10.046  20.895  0.00  0.00    +0.000 A 
ATOM      3  N   UNL     1      -0.409  10.168  21.770  0.00  0.00    +0.000 NA
ATOM      4  C   UNL     1      -0.869  11.395  22.055  0.00  0.00    +0.000 A 
ATOM      5  N   UNL     1      -1.942  11.374  22.910  0.00  0.00    +0.000 N 
ATOM      6  C   UNL     1      -0.336  12.536  21.486  0.00  0.00    +0.000 A 
ATOM      7  C   UNL     1       0.649  12.333  20.547  0.00  0.00    +0.000 A 
ATOM      8  N   UNL     1       1.128  11.092  20.283  0.00  0.00    +0.000 NA
ATOM      9  H   UNL     1       1.140   8.297  21.510  0.00  0.00    +0.000 HD
ATOM     10  H   UNL     1      -2.640  10.717  22.572  0.00  0.00    +0.000 HD
ENDROOT
BRANCH   7  11
ATOM     11  C   UNL     1       1.320  13.408  19.780  0.00  0.00    +0.000 A 
ATOM     12  C   UNL     1       2.422  13.038  19.019  0.00  0.00    +0.000 A 
ATOM     13  S   UNL     1       3.373  14.367  18.581  0.00  0.00    +0.000 S 
ATOM     14  C   UNL     1       1.991  15.376  18.660  0.00  0.00    +0.000 A 
ATOM     15  C   UNL     1       1.886  16.634  18.038  0.00  0.00    +0.000 A 
ATOM     16  C   UNL     1       0.648  17.260  18.026  0.00  0.00    +0.000 A 
ATOM     17  C   UNL     1      -0.412  16.716  18.739  0.00  0.00    +0.000 A 
ATOM     18  C   UNL     1      -0.267  15.512  19.458  0.00  0.00    +0.000 A 
ATOM     19  C   UNL     1       0.940  14.764  19.371  0.00  0.00    +0.000 A 
ENDBRANCH   7  11
BRANCH   1  20
ATOM     20  C   UNL     1       1.929   8.455  19.567  0.00  0.00    +0.000 C 
BRANCH  20  24
ATOM     21  C   UNL     1       2.173   4.022  19.113  0.00  0.00    +0.000 C 
ATOM     22  C   UNL     1       2.167   4.626  20.524  0.00  0.00    +0.000 C 
ATOM     23  C   UNL     1       1.642   6.071  20.552  0.00  0.00    +0.000 C 
ATOM     24  C   UNL     1       2.400   6.978  19.564  0.00  0.00    +0.000 C 
ATOM     25  C   UNL     1       2.381   6.360  18.161  0.00  0.00    +0.000 C 
ATOM     26  C   UNL     1       2.927   4.942  18.146  0.00  0.00    +0.000 C 
BRANCH  21  28
ATOM     27  N   UNL     1       1.948   1.608  18.740  0.00  0.00    +0.000 N 
ATOM     28  C   UNL     1       2.790   2.626  19.076  0.00  0.00    +0.000 C 
ATOM     29  O   UNL     1       3.975   2.385  19.288  0.00  0.00    +0.000 OA
ATOM     30  H   UNL     1       2.359   0.690  18.647  0.00  0.00    +0.000 HD
ATOM     31  H   UNL     1       0.994   1.751  18.451  0.00  0.00    +0.000 HD
ENDBRANCH  21  28
ENDBRANCH  20  24
ENDBRANCH   1  20
BRANCH   5  32
ATOM     32  C   UNL     1      -2.432  12.519  23.628  0.00  0.00    +0.000 C 
BRANCH  32  33
ATOM     33  C   UNL     1      -3.915  12.760  23.373  0.00  0.00    +0.000 A 
ATOM     34  C   UNL     1      -4.422  13.068  22.095  0.00  0.00    +0.000 A 
ATOM     35  C   UNL     1      -5.796  13.216  21.901  0.00  0.00    +0.000 A 
ATOM     36  C   UNL     1      -6.678  13.036  22.963  0.00  0.00    +0.000 A 
ATOM     37  C   UNL     1      -6.187  12.720  24.232  0.00  0.00    +0.000 A 
ATOM     38  C   UNL     1      -4.818  12.558  24.427  0.00  0.00    +0.000 A 
ENDBRANCH  32  33
ENDBRANCH   5  32
TORSDOF 6
ENDMDL
