MODEL 1
REMARK VINA RESULT:      -7.9      0.000      0.000
REMARK  Name = 
REMARK  14 active torsions:
REMARK  status: ('A' for Active; 'I' for Inactive)
REMARK    1  A    between atoms: C_1  and  N_2
REMARK    2  A    between atoms: N_2  and  C_3
REMARK    3  A    between atoms: N_2  and  C_4
REMARK    4  A    between atoms: C_7  and  C_8
REMARK    5  A    between atoms: C_15  and  O_16
REMARK    6  A    between atoms: O_16  and  C_17
REMARK    7  A    between atoms: C_17  and  C_18
REMARK    8  A    between atoms: C_18  and  C_19
REMARK    9  A    between atoms: C_19  and  C_20
REMARK   10  A    between atoms: C_20  and  C_21
REMARK   11  A    between atoms: C_21  and  C_22
REMARK   12  A    between atoms: C_22  and  C_23
REMARK   13  A    between atoms: C_23  and  C_24
REMARK   14  A    between atoms: C_24  and  N_25
REMARK                            x       y       z     vdW  Elec       q    Type
REMARK                         _______ _______ _______ _____ _____    ______ ____
ROOT
ATOM      1  C   UNL     1       1.820   7.381  20.333  0.00  0.00    +0.000 A 
ATOM      2  C   UNL     1       1.267   6.248  20.758  0.00  0.00    +0.000 A 
ATOM      3  C   UNL     1       2.028   5.018  20.664  0.00  0.00    +0.000 A 
ATOM      4  O   UNL     1       1.894   4.114  21.460  0.00  0.00    +0.000 OA
ATOM      5  C   UNL     1       2.928   4.965  19.520  0.00  0.00    +0.000 A 
ATOM      6  C   UNL     1       3.233   3.704  19.027  0.00  0.00    +0.000 A 
ATOM      7  C   UNL     1       3.884   3.618  17.820  0.00  0.00    +0.000 A 
ATOM      8  C   UNL     1       4.263   4.769  17.113  0.00  0.00    +0.000 A 
ATOM      9  C   UNL     1       3.997   6.050  17.651  0.00  0.00    +0.000 A 
ATOM     10  C   UNL     1       3.296   6.153  18.879  0.00  0.00    +0.000 A 
ATOM     11  O   UNL     1       2.928   7.394  19.438  0.00  0.00    +0.000 OA
ENDROOT
BRANCH   1  15
ATOM     12  C   UNL     1      -0.684  10.785  21.483  0.00  0.00    +0.000 A 
ATOM     13  C   UNL     1      -0.387   9.752  22.376  0.00  0.00    +0.000 A 
ATOM     14  C   UNL     1       0.509   8.722  22.028  0.00  0.00    +0.000 A 
ATOM     15  C   UNL     1       1.138   8.642  20.760  0.00  0.00    +0.000 A 
ATOM     16  C   UNL     1       0.984   9.750  19.941  0.00  0.00    +0.000 A 
ATOM     17  C   UNL     1       0.090  10.787  20.299  0.00  0.00    +0.000 A 
BRANCH  12  19
ATOM     18  C   UNL     1      -2.414  12.361  20.639  0.00  0.00    +0.000 C 
ATOM     19  N   UNL     1      -1.660  11.748  21.736  0.00  0.00    +0.000 N 
ATOM     20  C   UNL     1      -1.547  12.544  22.956  0.00  0.00    +0.000 C 
ENDBRANCH  12  19
ENDBRANCH   1  15
BRANCH   8  21
ATOM     21  O   UNL     1       4.850   4.395  15.942  0.00  0.00    +0.000 OA
BRANCH  21  22
ATOM     22  C   UNL     1       6.063   3.677  15.852  0.00  0.00    +0.000 C 
BRANCH  22  23
ATOM     23  C   UNL     1       7.200   4.666  16.201  0.00  0.00    +0.000 C 
BRANCH  23  24
ATOM     24  C   UNL     1       7.585   4.751  17.690  0.00  0.00    +0.000 C 
BRANCH  24  25
ATOM     25  C   UNL     1       7.628   6.176  18.244  0.00  0.00    +0.000 C 
BRANCH  25  26
ATOM     26  C   UNL     1       7.542   7.252  17.149  0.00  0.00    +0.000 C 
BRANCH  26  27
ATOM     27  C   UNL     1       7.520   8.699  17.666  0.00  0.00    +0.000 C 
BRANCH  27  28
ATOM     28  C   UNL     1       8.688   8.979  18.615  0.00  0.00    +0.000 C 
BRANCH  28  29
ATOM     29  C   UNL     1       9.404  10.303  18.325  0.00  0.00    +0.000 C 
BRANCH  29  30
ATOM     30  N   UNL     1       9.129  11.328  19.355  0.00  0.00    +0.000 NA
ATOM     31  C   UNL     1      10.184  11.380  20.381  0.00  0.00    +0.000 C 
ATOM     32  C   UNL     1       9.915  12.455  21.436  0.00  0.00    +0.000 C 
ATOM     33  C   UNL     1       9.728  13.822  20.796  0.00  0.00    +0.000 C 
ATOM     34  C   UNL     1       8.646  13.747  19.727  0.00  0.00    +0.000 C 
ATOM     35  C   UNL     1       8.947  12.642  18.712  0.00  0.00    +0.000 C 
ENDBRANCH  29  30
ENDBRANCH  28  29
ENDBRANCH  27  28
ENDBRANCH  26  27
ENDBRANCH  25  26
ENDBRANCH  24  25
ENDBRANCH  23  24
ENDBRANCH  22  23
ENDBRANCH  21  22
ENDBRANCH   8  21
TORSDOF 12
ENDMDL
MODEL 2
REMARK VINA RESULT:      -7.2      5.068     11.245
REMARK  Name = 
REMARK  14 active torsions:
REMARK  status: ('A' for Active; 'I' for Inactive)
REMARK    1  A    between atoms: C_1  and  N_2
REMARK    2  A    between atoms: N_2  and  C_3
REMARK    3  A    between atoms: N_2  and  C_4
REMARK    4  A    between atoms: C_7  and  C_8
REMARK    5  A    between atoms: C_15  and  O_16
REMARK    6  A    between atoms: O_16  and  C_17
REMARK    7  A    between atoms: C_17  and  C_18
REMARK    8  A    between atoms: C_18  and  C_19
REMARK    9  A    between atoms: C_19  and  C_20
REMARK   10  A    between atoms: C_20  and  C_21
REMARK   11  A    between atoms: C_21  and  C_22
REMARK   12  A    between atoms: C_22  and  C_23
REMARK   13  A    between atoms: C_23  and  C_24
REMARK   14  A    between atoms: C_24  and  N_25
REMARK                            x       y       z     vdW  Elec       q    Type
REMARK                         _______ _______ _______ _____ _____    ______ ____
ROOT
ATOM      1  C   UNL     1       1.158   8.864  20.525  0.00  0.00    +0.000 A 
ATOM      2  C   UNL     1       1.071   9.707  19.498  0.00  0.00    +0.000 A 
ATOM      3  C   UNL     1       0.852  11.115  19.763  0.00  0.00    +0.000 A 
ATOM      4  O   UNL     1       1.289  11.983  19.039  0.00  0.00    +0.000 OA
ATOM      5  C   UNL     1       0.043  11.375  20.945  0.00  0.00    +0.000 A 
ATOM      6  C   UNL     1      -0.679  12.561  20.955  0.00  0.00    +0.000 A 
ATOM      7  C   UNL     1      -1.627  12.737  21.936  0.00  0.00    +0.000 A 
ATOM      8  C   UNL     1      -1.843  11.765  22.923  0.00  0.00    +0.000 A 
ATOM      9  C   UNL     1      -1.063  10.584  22.937  0.00  0.00    +0.000 A 
ATOM     10  C   UNL     1      -0.105  10.375  21.912  0.00  0.00    +0.000 A 
ATOM     11  O   UNL     1       0.654   9.191  21.817  0.00  0.00    +0.000 OA
ENDROOT
BRANCH   1  15
ATOM     12  C   UNL     1       2.344   4.855  19.222  0.00  0.00    +0.000 A 
ATOM     13  C   UNL     1       2.725   6.002  18.521  0.00  0.00    +0.000 A 
ATOM     14  C   UNL     1       2.430   7.289  19.011  0.00  0.00    +0.000 A 
ATOM     15  C   UNL     1       1.713   7.511  20.214  0.00  0.00    +0.000 A 
ATOM     16  C   UNL     1       1.489   6.389  20.998  0.00  0.00    +0.000 A 
ATOM     17  C   UNL     1       1.795   5.098  20.503  0.00  0.00    +0.000 A 
BRANCH  12  19
ATOM     18  C   UNL     1       2.577   3.336  17.267  0.00  0.00    +0.000 C 
ATOM     19  N   UNL     1       2.498   3.567  18.711  0.00  0.00    +0.000 N 
ATOM     20  C   UNL     1       2.019   2.443  19.512  0.00  0.00    +0.000 C 
ENDBRANCH  12  19
ENDBRANCH   1  15
BRANCH   8  21
ATOM     21  O   UNL     1      -2.856  12.176  23.734  0.00  0.00    +0.000 OA
BRANCH  21  22
ATOM     22  C   UNL     1      -3.056  13.513  24.145  0.00  0.00    +0.000 C 
BRANCH  22  23
ATOM     23  C   UNL     1      -4.510  13.887  23.773  0.00  0.00    +0.000 C 
BRANCH  23  24
ATOM     24  C   UNL     1      -5.576  12.816  24.067  0.00  0.00    +0.000 C 
BRANCH  24  25
ATOM     25  C   UNL     1      -6.796  12.879  23.147  0.00  0.00    +0.000 C 
BRANCH  25  26
ATOM     26  C   UNL     1      -6.481  12.471  21.698  0.00  0.00    +0.000 C 
BRANCH  26  27
ATOM     27  C   UNL     1      -6.073  13.631  20.775  0.00  0.00    +0.000 C 
BRANCH  27  28
ATOM     28  C   UNL     1      -5.249  13.141  19.582  0.00  0.00    +0.000 C 
BRANCH  28  29
ATOM     29  C   UNL     1      -5.747  11.812  19.004  0.00  0.00    +0.000 C 
BRANCH  29  30
ATOM     30  N   UNL     1      -4.715  11.128  18.195  0.00  0.00    +0.000 NA
ATOM     31  C   UNL     1      -4.877  11.387  16.755  0.00  0.00    +0.000 C 
ATOM     32  C   UNL     1      -3.798  10.699  15.917  0.00  0.00    +0.000 C 
ATOM     33  C   UNL     1      -2.404  11.099  16.376  0.00  0.00    +0.000 C 
ATOM     34  C   UNL     1      -2.259  10.840  17.869  0.00  0.00    +0.000 C 
ATOM     35  C   UNL     1      -3.374  11.527  18.660  0.00  0.00    +0.000 C 
ENDBRANCH  29  30
ENDBRANCH  28  29
ENDBRANCH  27  28
ENDBRANCH  26  27
ENDBRANCH  25  26
ENDBRANCH  24  25
ENDBRANCH  23  24
ENDBRANCH  22  23
ENDBRANCH  21  22
ENDBRANCH   8  21
TORSDOF 12
ENDMDL
MODEL 3
REMARK VINA RESULT:      -7.0      0.898      1.560
REMARK  Name = 
REMARK  14 active torsions:
REMARK  status: ('A' for Active; 'I' for Inactive)
REMARK    1  A    between atoms: C_1  and  N_2
REMARK    2  A    between atoms: N_2  and  C_3
REMARK    3  A    between atoms: N_2  and  C_4
REMARK    4  A    between atoms: C_7  and  C_8
REMARK    5  A    between atoms: C_15  and  O_16
REMARK    6  A    between atoms: O_16  and  C_17
REMARK    7  A    between atoms: C_17  and  C_18
REMARK    8  A    between atoms: C_18  and  C_19
REMARK    9  A    between atoms: C_19  and  C_20
REMARK   10  A    between atoms: C_20  and  C_21
REMARK   11  A    between atoms: C_21  and  C_22
REMARK   12  A    between atoms: C_22  and  C_23
REMARK   13  A    between atoms: C_23  and  C_24
REMARK   14  A    between atoms: C_24  and  N_25
REMARK                            x       y       z     vdW  Elec       q    Type
REMARK                         _______ _______ _______ _____ _____    ______ ____
ROOT
ATOM      1  C   UNL     1       1.446   7.472  20.441  0.00  0.00    +0.000 A 
ATOM      2  C   UNL     1       1.100   6.266  20.885  0.00  0.00    +0.000 A 
ATOM      3  C   UNL     1       2.060   5.183  20.793  0.00  0.00    +0.000 A 
ATOM      4  O   UNL     1       2.092   4.280  21.599  0.00  0.00    +0.000 OA
ATOM      5  C   UNL     1       2.943   5.272  19.638  0.00  0.00    +0.000 A 
ATOM      6  C   UNL     1       3.454   4.076  19.154  0.00  0.00    +0.000 A 
ATOM      7  C   UNL     1       4.097   4.088  17.938  0.00  0.00    +0.000 A 
ATOM      8  C   UNL     1       4.265   5.278  17.215  0.00  0.00    +0.000 A 
ATOM      9  C   UNL     1       3.789   6.501  17.744  0.00  0.00    +0.000 A 
ATOM     10  C   UNL     1       3.095   6.497  18.981  0.00  0.00    +0.000 A 
ATOM     11  O   UNL     1       2.526   7.663  19.532  0.00  0.00    +0.000 OA
ENDROOT
BRANCH   1  15
ATOM     12  C   UNL     1      -0.697  11.137  21.519  0.00  0.00    +0.000 A 
ATOM     13  C   UNL     1      -0.667  10.657  20.206  0.00  0.00    +0.000 A 
ATOM     14  C   UNL     1      -0.068   9.421  19.894  0.00  0.00    +0.000 A 
ATOM     15  C   UNL     1       0.563   8.602  20.865  0.00  0.00    +0.000 A 
ATOM     16  C   UNL     1       0.383   8.985  22.185  0.00  0.00    +0.000 A 
ATOM     17  C   UNL     1      -0.228  10.225  22.494  0.00  0.00    +0.000 A 
BRANCH  12  19
ATOM     18  C   UNL     1      -0.229  13.465  22.256  0.00  0.00    +0.000 C 
ATOM     19  N   UNL     1      -1.159  12.409  21.851  0.00  0.00    +0.000 N 
ATOM     20  C   UNL     1      -2.528  12.540  22.345  0.00  0.00    +0.000 C 
ENDBRANCH  12  19
ENDBRANCH   1  15
BRANCH   8  21
ATOM     21  O   UNL     1       4.894   4.997  16.041  0.00  0.00    +0.000 OA
BRANCH  21  22
ATOM     22  C   UNL     1       6.246   5.303  15.768  0.00  0.00    +0.000 C 
BRANCH  22  23
ATOM     23  C   UNL     1       7.075   4.801  16.973  0.00  0.00    +0.000 C 
BRANCH  23  24
ATOM     24  C   UNL     1       7.678   5.893  17.876  0.00  0.00    +0.000 C 
BRANCH  24  25
ATOM     25  C   UNL     1       7.159   7.302  17.587  0.00  0.00    +0.000 C 
BRANCH  25  26
ATOM     26  C   UNL     1       8.283   8.344  17.457  0.00  0.00    +0.000 C 
BRANCH  26  27
ATOM     27  C   UNL     1       7.969   9.712  18.084  0.00  0.00    +0.000 C 
BRANCH  27  28
ATOM     28  C   UNL     1       9.164  10.263  18.867  0.00  0.00    +0.000 C 
BRANCH  28  29
ATOM     29  C   UNL     1      10.124  11.091  18.006  0.00  0.00    +0.000 C 
BRANCH  29  30
ATOM     30  N   UNL     1      10.426  12.408  18.608  0.00  0.00    +0.000 NA
ATOM     31  C   UNL     1       9.553  13.471  18.082  0.00  0.00    +0.000 C 
ATOM     32  C   UNL     1       9.846  14.831  18.718  0.00  0.00    +0.000 C 
ATOM     33  C   UNL     1       9.747  14.763  20.234  0.00  0.00    +0.000 C 
ATOM     34  C   UNL     1      10.642  13.650  20.760  0.00  0.00    +0.000 C 
ATOM     35  C   UNL     1      10.327  12.318  20.076  0.00  0.00    +0.000 C 
ENDBRANCH  29  30
ENDBRANCH  28  29
ENDBRANCH  27  28
ENDBRANCH  26  27
ENDBRANCH  25  26
ENDBRANCH  24  25
ENDBRANCH  23  24
ENDBRANCH  22  23
ENDBRANCH  21  22
ENDBRANCH   8  21
TORSDOF 12
ENDMDL
MODEL 4
REMARK VINA RESULT:      -7.0      4.229     11.140
REMARK  Name = 
REMARK  14 active torsions:
REMARK  status: ('A' for Active; 'I' for Inactive)
REMARK    1  A    between atoms: C_1  and  N_2
REMARK    2  A    between atoms: N_2  and  C_3
REMARK    3  A    between atoms: N_2  and  C_4
REMARK    4  A    between atoms: C_7  and  C_8
REMARK    5  A    between atoms: C_15  and  O_16
REMARK    6  A    between atoms: O_16  and  C_17
REMARK    7  A    between atoms: C_17  and  C_18
REMARK    8  A    between atoms: C_18  and  C_19
REMARK    9  A    between atoms: C_19  and  C_20
REMARK   10  A    between atoms: C_20  and  C_21
REMARK   11  A    between atoms: C_21  and  C_22
REMARK   12  A    between atoms: C_22  and  C_23
REMARK   13  A    between atoms: C_23  and  C_24
REMARK   14  A    between atoms: C_24  and  N_25
REMARK                            x       y       z     vdW  Elec       q    Type
REMARK                         _______ _______ _______ _____ _____    ______ ____
ROOT
ATOM      1  C   UNL     1       0.700   9.280  20.458  0.00  0.00    +0.000 A 
ATOM      2  C   UNL     1       1.102   9.391  21.722  0.00  0.00    +0.000 A 
ATOM      3  C   UNL     1       0.211   9.999  22.691  0.00  0.00    +0.000 A 
ATOM      4  O   UNL     1       0.207   9.672  23.857  0.00  0.00    +0.000 OA
ATOM      5  C   UNL     1      -0.639  11.044  22.138  0.00  0.00    +0.000 A 
ATOM      6  C   UNL     1      -1.064  12.029  23.018  0.00  0.00    +0.000 A 
ATOM      7  C   UNL     1      -1.669  13.149  22.498  0.00  0.00    +0.000 A 
ATOM      8  C   UNL     1      -1.884  13.286  21.119  0.00  0.00    +0.000 A 
ATOM      9  C   UNL     1      -1.498  12.251  20.236  0.00  0.00    +0.000 A 
ATOM     10  C   UNL     1      -0.843  11.106  20.756  0.00  0.00    +0.000 A 
ATOM     11  O   UNL     1      -0.360  10.071  19.929  0.00  0.00    +0.000 OA
ENDROOT
BRANCH   1  15
ATOM     12  C   UNL     1       3.514   6.744  18.260  0.00  0.00    +0.000 A 
ATOM     13  C   UNL     1       2.933   6.333  19.463  0.00  0.00    +0.000 A 
ATOM     14  C   UNL     1       1.948   7.111  20.101  0.00  0.00    +0.000 A 
ATOM     15  C   UNL     1       1.502   8.359  19.596  0.00  0.00    +0.000 A 
ATOM     16  C   UNL     1       1.943   8.684  18.323  0.00  0.00    +0.000 A 
ATOM     17  C   UNL     1       2.928   7.894  17.681  0.00  0.00    +0.000 A 
BRANCH  12  19
ATOM     18  C   UNL     1       5.658   6.813  17.002  0.00  0.00    +0.000 C 
ATOM     19  N   UNL     1       4.582   6.074  17.665  0.00  0.00    +0.000 N 
ATOM     20  C   UNL     1       4.367   4.705  17.200  0.00  0.00    +0.000 C 
ENDBRANCH  12  19
ENDBRANCH   1  15
BRANCH   8  21
ATOM     21  O   UNL     1      -2.459  14.497  20.880  0.00  0.00    +0.000 OA
BRANCH  21  22
ATOM     22  C   UNL     1      -2.644  15.499  21.859  0.00  0.00    +0.000 C 
BRANCH  22  23
ATOM     23  C   UNL     1      -3.887  16.317  21.439  0.00  0.00    +0.000 C 
BRANCH  23  24
ATOM     24  C   UNL     1      -4.714  15.736  20.277  0.00  0.00    +0.000 C 
BRANCH  24  25
ATOM     25  C   UNL     1      -6.019  15.067  20.711  0.00  0.00    +0.000 C 
BRANCH  25  26
ATOM     26  C   UNL     1      -5.797  13.759  21.488  0.00  0.00    +0.000 C 
BRANCH  26  27
ATOM     27  C   UNL     1      -6.193  12.482  20.727  0.00  0.00    +0.000 C 
BRANCH  27  28
ATOM     28  C   UNL     1      -5.613  12.464  19.311  0.00  0.00    +0.000 C 
BRANCH  28  29
ATOM     29  C   UNL     1      -5.277  11.055  18.810  0.00  0.00    +0.000 C 
BRANCH  29  30
ATOM     30  N   UNL     1      -4.119  11.047  17.890  0.00  0.00    +0.000 NA
ATOM     31  C   UNL     1      -3.365   9.783  17.959  0.00  0.00    +0.000 C 
ATOM     32  C   UNL     1      -2.179   9.761  16.993  0.00  0.00    +0.000 C 
ATOM     33  C   UNL     1      -2.625  10.037  15.566  0.00  0.00    +0.000 C 
ATOM     34  C   UNL     1      -3.416  11.337  15.515  0.00  0.00    +0.000 C 
ATOM     35  C   UNL     1      -4.574  11.319  16.515  0.00  0.00    +0.000 C 
ENDBRANCH  29  30
ENDBRANCH  28  29
ENDBRANCH  27  28
ENDBRANCH  26  27
ENDBRANCH  25  26
ENDBRANCH  24  25
ENDBRANCH  23  24
ENDBRANCH  22  23
ENDBRANCH  21  22
ENDBRANCH   8  21
TORSDOF 12
ENDMDL
MODEL 5
REMARK VINA RESULT:      -6.9      4.904     11.034
REMARK  Name = 
REMARK  14 active torsions:
REMARK  status: ('A' for Active; 'I' for Inactive)
REMARK    1  A    between atoms: C_1  and  N_2
REMARK    2  A    between atoms: N_2  and  C_3
REMARK    3  A    between atoms: N_2  and  C_4
REMARK    4  A    between atoms: C_7  and  C_8
REMARK    5  A    between atoms: C_15  and  O_16
REMARK    6  A    between atoms: O_16  and  C_17
REMARK    7  A    between atoms: C_17  and  C_18
REMARK    8  A    between atoms: C_18  and  C_19
REMARK    9  A    between atoms: C_19  and  C_20
REMARK   10  A    between atoms: C_20  and  C_21
REMARK   11  A    between atoms: C_21  and  C_22
REMARK   12  A    between atoms: C_22  and  C_23
REMARK   13  A    between atoms: C_23  and  C_24
REMARK   14  A    between atoms: C_24  and  N_25
REMARK                            x       y       z     vdW  Elec       q    Type
REMARK                         _______ _______ _______ _____ _____    ______ ____
ROOT
ATOM      1  C   UNL     1       1.708   8.452  19.828  0.00  0.00    +0.000 A 
ATOM      2  C   UNL     1       1.718   9.131  18.683  0.00  0.00    +0.000 A 
ATOM      3  C   UNL     1       1.679  10.580  18.727  0.00  0.00    +0.000 A 
ATOM      4  O   UNL     1       2.213  11.265  17.883  0.00  0.00    +0.000 OA
ATOM      5  C   UNL     1       0.920  11.117  19.848  0.00  0.00    +0.000 A 
ATOM      6  C   UNL     1       0.352  12.371  19.669  0.00  0.00    +0.000 A 
ATOM      7  C   UNL     1      -0.557  12.812  20.602  0.00  0.00    +0.000 A 
ATOM      8  C   UNL     1      -0.883  12.037  21.724  0.00  0.00    +0.000 A 
ATOM      9  C   UNL     1      -0.256  10.785  21.926  0.00  0.00    +0.000 A 
ATOM     10  C   UNL     1       0.658  10.304  20.955  0.00  0.00    +0.000 A 
ATOM     11  O   UNL     1       1.262   9.033  21.049  0.00  0.00    +0.000 OA
ENDROOT
BRANCH   1  15
ATOM     12  C   UNL     1       2.387   4.179  19.150  0.00  0.00    +0.000 A 
ATOM     13  C   UNL     1       2.935   5.155  18.313  0.00  0.00    +0.000 A 
ATOM     14  C   UNL     1       2.800   6.527  18.607  0.00  0.00    +0.000 A 
ATOM     15  C   UNL     1       2.087   7.009  19.734  0.00  0.00    +0.000 A 
ATOM     16  C   UNL     1       1.695   6.049  20.654  0.00  0.00    +0.000 A 
ATOM     17  C   UNL     1       1.841   4.671  20.358  0.00  0.00    +0.000 A 
BRANCH  12  19
ATOM     18  C   UNL     1       2.908   2.351  17.547  0.00  0.00    +0.000 C 
ATOM     19  N   UNL     1       2.382   2.822  18.830  0.00  0.00    +0.000 N 
ATOM     20  C   UNL     1       1.382   1.965  19.464  0.00  0.00    +0.000 C 
ENDBRANCH  12  19
ENDBRANCH   1  15
BRANCH   8  21
ATOM     21  O   UNL     1      -1.829  12.691  22.453  0.00  0.00    +0.000 OA
BRANCH  21  22
ATOM     22  C   UNL     1      -2.266  14.010  22.192  0.00  0.00    +0.000 C 
BRANCH  22  23
ATOM     23  C   UNL     1      -3.137  14.443  23.395  0.00  0.00    +0.000 C 
BRANCH  23  24
ATOM     24  C   UNL     1      -4.511  15.045  23.049  0.00  0.00    +0.000 C 
BRANCH  24  25
ATOM     25  C   UNL     1      -5.698  14.196  23.507  0.00  0.00    +0.000 C 
BRANCH  25  26
ATOM     26  C   UNL     1      -5.947  12.973  22.609  0.00  0.00    +0.000 C 
BRANCH  26  27
ATOM     27  C   UNL     1      -5.977  13.275  21.101  0.00  0.00    +0.000 C 
BRANCH  27  28
ATOM     28  C   UNL     1      -4.994  12.393  20.328  0.00  0.00    +0.000 C 
BRANCH  28  29
ATOM     29  C   UNL     1      -5.252  12.376  18.817  0.00  0.00    +0.000 C 
BRANCH  29  30
ATOM     30  N   UNL     1      -4.475  11.325  18.125  0.00  0.00    +0.000 NA
ATOM     31  C   UNL     1      -4.543  11.457  16.660  0.00  0.00    +0.000 C 
ATOM     32  C   UNL     1      -3.723  10.385  15.941  0.00  0.00    +0.000 C 
ATOM     33  C   UNL     1      -2.276  10.393  16.408  0.00  0.00    +0.000 C 
ATOM     34  C   UNL     1      -2.223  10.271  17.925  0.00  0.00    +0.000 C 
ATOM     35  C   UNL     1      -3.078  11.348  18.596  0.00  0.00    +0.000 C 
ENDBRANCH  29  30
ENDBRANCH  28  29
ENDBRANCH  27  28
ENDBRANCH  26  27
ENDBRANCH  25  26
ENDBRANCH  24  25
ENDBRANCH  23  24
ENDBRANCH  22  23
ENDBRANCH  21  22
ENDBRANCH   8  21
TORSDOF 12
ENDMDL
MODEL 6
REMARK VINA RESULT:      -6.9      4.239      7.207
REMARK  Name = 
REMARK  14 active torsions:
REMARK  status: ('A' for Active; 'I' for Inactive)
REMARK    1  A    between atoms: C_1  and  N_2
REMARK    2  A    between atoms: N_2  and  C_3
REMARK    3  A    between atoms: N_2  and  C_4
REMARK    4  A    between atoms: C_7  and  C_8
REMARK    5  A    between atoms: C_15  and  O_16
REMARK    6  A    between atoms: O_16  and  C_17
REMARK    7  A    between atoms: C_17  and  C_18
REMARK    8  A    between atoms: C_18  and  C_19
REMARK    9  A    between atoms: C_19  and  C_20
REMARK   10  A    between atoms: C_20  and  C_21
REMARK   11  A    between atoms: C_21  and  C_22
REMARK   12  A    between atoms: C_22  and  C_23
REMARK   13  A    between atoms: C_23  and  C_24
REMARK   14  A    between atoms: C_24  and  N_25
REMARK                            x       y       z     vdW  Elec       q    Type
REMARK                         _______ _______ _______ _____ _____    ______ ____
ROOT
ATOM      1  C   UNL     1      -1.550  12.126  21.535  0.00  0.00    +0.000 A 
ATOM      2  C   UNL     1      -1.514  11.243  22.530  0.00  0.00    +0.000 A 
ATOM      3  C   UNL     1      -0.327  10.428  22.702  0.00  0.00    +0.000 A 
ATOM      4  O   UNL     1       0.038  10.044  23.791  0.00  0.00    +0.000 OA
ATOM      5  C   UNL     1       0.350  10.099  21.456  0.00  0.00    +0.000 A 
ATOM      6  C   UNL     1       1.087   8.923  21.441  0.00  0.00    +0.000 A 
ATOM      7  C   UNL     1       1.547   8.458  20.232  0.00  0.00    +0.000 A 
ATOM      8  C   UNL     1       1.309   9.163  19.043  0.00  0.00    +0.000 A 
ATOM      9  C   UNL     1       0.605  10.389  19.076  0.00  0.00    +0.000 A 
ATOM     10  C   UNL     1       0.096  10.863  20.312  0.00  0.00    +0.000 A 
ATOM     11  O   UNL     1      -0.680  12.035  20.411  0.00  0.00    +0.000 OA
ENDROOT
BRANCH   1  15
ATOM     12  C   UNL     1      -4.940  14.815  22.211  0.00  0.00    +0.000 A 
ATOM     13  C   UNL     1      -3.764  14.907  22.960  0.00  0.00    +0.000 A 
ATOM     14  C   UNL     1      -2.642  14.110  22.658  0.00  0.00    +0.000 A 
ATOM     15  C   UNL     1      -2.635  13.152  21.612  0.00  0.00    +0.000 A 
ATOM     16  C   UNL     1      -3.729  13.182  20.761  0.00  0.00    +0.000 A 
ATOM     17  C   UNL     1      -4.851  13.992  21.064  0.00  0.00    +0.000 A 
BRANCH  12  19
ATOM     18  C   UNL     1      -6.369  16.846  22.074  0.00  0.00    +0.000 C 
ATOM     19  N   UNL     1      -6.112  15.487  22.555  0.00  0.00    +0.000 N 
ATOM     20  C   UNL     1      -6.785  15.111  23.797  0.00  0.00    +0.000 C 
ENDBRANCH  12  19
ENDBRANCH   1  15
BRANCH   8  21
ATOM     21  O   UNL     1       1.836   8.463  18.001  0.00  0.00    +0.000 OA
BRANCH  21  22
ATOM     22  C   UNL     1       2.710   7.361  18.142  0.00  0.00    +0.000 C 
BRANCH  22  23
ATOM     23  C   UNL     1       3.920   7.624  17.215  0.00  0.00    +0.000 C 
BRANCH  23  24
ATOM     24  C   UNL     1       5.217   6.874  17.572  0.00  0.00    +0.000 C 
BRANCH  24  25
ATOM     25  C   UNL     1       5.902   6.208  16.378  0.00  0.00    +0.000 C 
BRANCH  25  26
ATOM     26  C   UNL     1       5.018   5.158  15.684  0.00  0.00    +0.000 C 
BRANCH  26  27
ATOM     27  C   UNL     1       5.380   3.698  16.002  0.00  0.00    +0.000 C 
BRANCH  27  28
ATOM     28  C   UNL     1       4.676   3.203  17.268  0.00  0.00    +0.000 C 
BRANCH  28  29
ATOM     29  C   UNL     1       3.170   3.491  17.277  0.00  0.00    +0.000 C 
BRANCH  29  30
ATOM     30  N   UNL     1       2.544   3.169  18.578  0.00  0.00    +0.000 NA
ATOM     31  C   UNL     1       3.545   2.913  19.627  0.00  0.00    +0.000 C 
ATOM     32  C   UNL     1       2.902   2.601  20.980  0.00  0.00    +0.000 C 
ATOM     33  C   UNL     1       1.955   3.711  21.409  0.00  0.00    +0.000 C 
ATOM     34  C   UNL     1       0.937   3.974  20.307  0.00  0.00    +0.000 C 
ATOM     35  C   UNL     1       1.629   4.255  18.972  0.00  0.00    +0.000 C 
ENDBRANCH  29  30
ENDBRANCH  28  29
ENDBRANCH  27  28
ENDBRANCH  26  27
ENDBRANCH  25  26
ENDBRANCH  24  25
ENDBRANCH  23  24
ENDBRANCH  22  23
ENDBRANCH  21  22
ENDBRANCH   8  21
TORSDOF 12
ENDMDL
MODEL 7
REMARK VINA RESULT:      -6.9      2.958      7.474
REMARK  Name = 
REMARK  14 active torsions:
REMARK  status: ('A' for Active; 'I' for Inactive)
REMARK    1  A    between atoms: C_1  and  N_2
REMARK    2  A    between atoms: N_2  and  C_3
REMARK    3  A    between atoms: N_2  and  C_4
REMARK    4  A    between atoms: C_7  and  C_8
REMARK    5  A    between atoms: C_15  and  O_16
REMARK    6  A    between atoms: O_16  and  C_17
REMARK    7  A    between atoms: C_17  and  C_18
REMARK    8  A    between atoms: C_18  and  C_19
REMARK    9  A    between atoms: C_19  and  C_20
REMARK   10  A    between atoms: C_20  and  C_21
REMARK   11  A    between atoms: C_21  and  C_22
REMARK   12  A    between atoms: C_22  and  C_23
REMARK   13  A    between atoms: C_23  and  C_24
REMARK   14  A    between atoms: C_24  and  N_25
REMARK                            x       y       z     vdW  Elec       q    Type
REMARK                         _______ _______ _______ _____ _____    ______ ____
ROOT
ATOM      1  C   UNL     1       2.017   8.222  18.817  0.00  0.00    +0.000 A 
ATOM      2  C   UNL     1       1.841   7.978  20.113  0.00  0.00    +0.000 A 
ATOM      3  C   UNL     1       0.762   8.650  20.813  0.00  0.00    +0.000 A 
ATOM      4  O   UNL     1       0.183   8.139  21.746  0.00  0.00    +0.000 OA
ATOM      5  C   UNL     1       0.475   9.986  20.311  0.00  0.00    +0.000 A 
ATOM      6  C   UNL     1      -0.079  10.883  21.215  0.00  0.00    +0.000 A 
ATOM      7  C   UNL     1      -0.150  12.208  20.855  0.00  0.00    +0.000 A 
ATOM      8  C   UNL     1       0.291  12.647  19.599  0.00  0.00    +0.000 A 
ATOM      9  C   UNL     1       0.802  11.716  18.663  0.00  0.00    +0.000 A 
ATOM     10  C   UNL     1       0.913  10.352  19.034  0.00  0.00    +0.000 A 
ATOM     11  O   UNL     1       1.482   9.381  18.185  0.00  0.00    +0.000 OA
ENDROOT
BRANCH   1  15
ATOM     12  C   UNL     1       4.885   5.333  17.201  0.00  0.00    +0.000 A 
ATOM     13  C   UNL     1       3.709   4.928  17.840  0.00  0.00    +0.000 A 
ATOM     14  C   UNL     1       2.744   5.867  18.256  0.00  0.00    +0.000 A 
ATOM     15  C   UNL     1       2.905   7.266  18.087  0.00  0.00    +0.000 A 
ATOM     16  C   UNL     1       3.979   7.658  17.303  0.00  0.00    +0.000 A 
ATOM     17  C   UNL     1       4.941   6.709  16.880  0.00  0.00    +0.000 A 
BRANCH  12  19
ATOM     18  C   UNL     1       7.260   4.641  17.458  0.00  0.00    +0.000 C 
ATOM     19  N   UNL     1       5.921   4.453  16.893  0.00  0.00    +0.000 N 
ATOM     20  C   UNL     1       5.859   3.727  15.627  0.00  0.00    +0.000 C 
ENDBRANCH  12  19
ENDBRANCH   1  15
BRANCH   8  21
ATOM     21  O   UNL     1       0.142  13.998  19.524  0.00  0.00    +0.000 OA
BRANCH  21  22
ATOM     22  C   UNL     1       1.057  14.867  18.888  0.00  0.00    +0.000 C 
BRANCH  22  23
ATOM     23  C   UNL     1       2.243  15.064  19.861  0.00  0.00    +0.000 C 
BRANCH  23  24
ATOM     24  C   UNL     1       3.491  14.207  19.584  0.00  0.00    +0.000 C 
BRANCH  24  25
ATOM     25  C   UNL     1       4.751  15.017  19.275  0.00  0.00    +0.000 C 
BRANCH  25  26
ATOM     26  C   UNL     1       5.344  14.705  17.890  0.00  0.00    +0.000 C 
BRANCH  26  27
ATOM     27  C   UNL     1       6.834  15.052  17.733  0.00  0.00    +0.000 C 
BRANCH  27  28
ATOM     28  C   UNL     1       7.734  13.944  18.283  0.00  0.00    +0.000 C 
BRANCH  28  29
ATOM     29  C   UNL     1       8.693  14.427  19.377  0.00  0.00    +0.000 C 
BRANCH  29  30
ATOM     30  N   UNL     1      10.032  13.810  19.264  0.00  0.00    +0.000 NA
ATOM     31  C   UNL     1      10.146  12.580  20.067  0.00  0.00    +0.000 C 
ATOM     32  C   UNL     1      11.523  11.926  19.935  0.00  0.00    +0.000 C 
ATOM     33  C   UNL     1      11.863  11.644  18.480  0.00  0.00    +0.000 C 
ATOM     34  C   UNL     1      11.725  12.921  17.662  0.00  0.00    +0.000 C 
ATOM     35  C   UNL     1      10.342  13.549  17.847  0.00  0.00    +0.000 C 
ENDBRANCH  29  30
ENDBRANCH  28  29
ENDBRANCH  27  28
ENDBRANCH  26  27
ENDBRANCH  25  26
ENDBRANCH  24  25
ENDBRANCH  23  24
ENDBRANCH  22  23
ENDBRANCH  21  22
ENDBRANCH   8  21
TORSDOF 12
ENDMDL
MODEL 8
REMARK VINA RESULT:      -6.9      4.128      6.432
REMARK  Name = 
REMARK  14 active torsions:
REMARK  status: ('A' for Active; 'I' for Inactive)
REMARK    1  A    between atoms: C_1  and  N_2
REMARK    2  A    between atoms: N_2  and  C_3
REMARK    3  A    between atoms: N_2  and  C_4
REMARK    4  A    between atoms: C_7  and  C_8
REMARK    5  A    between atoms: C_15  and  O_16
REMARK    6  A    between atoms: O_16  and  C_17
REMARK    7  A    between atoms: C_17  and  C_18
REMARK    8  A    between atoms: C_18  and  C_19
REMARK    9  A    between atoms: C_19  and  C_20
REMARK   10  A    between atoms: C_20  and  C_21
REMARK   11  A    between atoms: C_21  and  C_22
REMARK   12  A    between atoms: C_22  and  C_23
REMARK   13  A    between atoms: C_23  and  C_24
REMARK   14  A    between atoms: C_24  and  N_25
REMARK                            x       y       z     vdW  Elec       q    Type
REMARK                         _______ _______ _______ _____ _____    ______ ____
ROOT
ATOM      1  C   UNL     1       0.430  11.008  19.831  0.00  0.00    +0.000 A 
ATOM      2  C   UNL     1      -0.076  10.132  20.696  0.00  0.00    +0.000 A 
ATOM      3  C   UNL     1       0.732   8.996  21.096  0.00  0.00    +0.000 A 
ATOM      4  O   UNL     1       0.640   8.495  22.195  0.00  0.00    +0.000 OA
ATOM      5  C   UNL     1       1.623   8.508  20.053  0.00  0.00    +0.000 A 
ATOM      6  C   UNL     1       1.973   7.166  20.113  0.00  0.00    +0.000 A 
ATOM      7  C   UNL     1       2.616   6.612  19.032  0.00  0.00    +0.000 A 
ATOM      8  C   UNL     1       2.944   7.383  17.907  0.00  0.00    +0.000 A 
ATOM      9  C   UNL     1       2.634   8.763  17.879  0.00  0.00    +0.000 A 
ATOM     10  C   UNL     1       1.940   9.339  18.974  0.00  0.00    +0.000 A 
ATOM     11  O   UNL     1       1.529  10.687  18.983  0.00  0.00    +0.000 OA
ENDROOT
BRANCH   1  15
ATOM     12  C   UNL     1      -1.238  15.057  19.793  0.00  0.00    +0.000 A 
ATOM     13  C   UNL     1      -0.304  14.635  18.843  0.00  0.00    +0.000 A 
ATOM     14  C   UNL     1       0.140  13.298  18.801  0.00  0.00    +0.000 A 
ATOM     15  C   UNL     1      -0.297  12.310  19.720  0.00  0.00    +0.000 A 
ATOM     16  C   UNL     1      -1.347  12.679  20.546  0.00  0.00    +0.000 A 
ATOM     17  C   UNL     1      -1.796  14.021  20.579  0.00  0.00    +0.000 A 
BRANCH  12  19
ATOM     18  C   UNL     1      -2.845  16.755  20.643  0.00  0.00    +0.000 C 
ATOM     19  N   UNL     1      -1.604  16.393  19.955  0.00  0.00    +0.000 N 
ATOM     20  C   UNL     1      -1.100  17.369  18.991  0.00  0.00    +0.000 C 
ENDBRANCH  12  19
ENDBRANCH   1  15
BRANCH   8  21
ATOM     21  O   UNL     1       3.535   6.581  16.979  0.00  0.00    +0.000 OA
BRANCH  21  22
ATOM     22  C   UNL     1       4.708   6.917  16.265  0.00  0.00    +0.000 C 
BRANCH  22  23
ATOM     23  C   UNL     1       5.349   5.588  15.801  0.00  0.00    +0.000 C 
BRANCH  23  24
ATOM     24  C   UNL     1       6.879   5.492  15.946  0.00  0.00    +0.000 C 
BRANCH  24  25
ATOM     25  C   UNL     1       7.344   4.557  17.063  0.00  0.00    +0.000 C 
BRANCH  25  26
ATOM     26  C   UNL     1       7.300   5.211  18.454  0.00  0.00    +0.000 C 
BRANCH  26  27
ATOM     27  C   UNL     1       5.923   5.182  19.138  0.00  0.00    +0.000 C 
BRANCH  27  28
ATOM     28  C   UNL     1       5.467   3.751  19.431  0.00  0.00    +0.000 C 
BRANCH  28  29
ATOM     29  C   UNL     1       4.417   3.234  18.442  0.00  0.00    +0.000 C 
BRANCH  29  30
ATOM     30  N   UNL     1       3.185   2.774  19.120  0.00  0.00    +0.000 NA
ATOM     31  C   UNL     1       3.062   3.323  20.481  0.00  0.00    +0.000 C 
ATOM     32  C   UNL     1       1.778   2.868  21.177  0.00  0.00    +0.000 C 
ATOM     33  C   UNL     1       0.550   3.215  20.350  0.00  0.00    +0.000 C 
ATOM     34  C   UNL     1       0.700   2.654  18.943  0.00  0.00    +0.000 C 
ATOM     35  C   UNL     1       2.009   3.117  18.301  0.00  0.00    +0.000 C 
ENDBRANCH  29  30
ENDBRANCH  28  29
ENDBRANCH  27  28
ENDBRANCH  26  27
ENDBRANCH  25  26
ENDBRANCH  24  25
ENDBRANCH  23  24
ENDBRANCH  22  23
ENDBRANCH  21  22
ENDBRANCH   8  21
TORSDOF 12
ENDMDL
MODEL 9
REMARK VINA RESULT:      -6.8      3.290      7.567
REMARK  Name = 
REMARK  14 active torsions:
REMARK  status: ('A' for Active; 'I' for Inactive)
REMARK    1  A    between atoms: C_1  and  N_2
REMARK    2  A    between atoms: N_2  and  C_3
REMARK    3  A    between atoms: N_2  and  C_4
REMARK    4  A    between atoms: C_7  and  C_8
REMARK    5  A    between atoms: C_15  and  O_16
REMARK    6  A    between atoms: O_16  and  C_17
REMARK    7  A    between atoms: C_17  and  C_18
REMARK    8  A    between atoms: C_18  and  C_19
REMARK    9  A    between atoms: C_19  and  C_20
REMARK   10  A    between atoms: C_20  and  C_21
REMARK   11  A    between atoms: C_21  and  C_22
REMARK   12  A    between atoms: C_22  and  C_23
REMARK   13  A    between atoms: C_23  and  C_24
REMARK   14  A    between atoms: C_24  and  N_25
REMARK                            x       y       z     vdW  Elec       q    Type
REMARK                         _______ _______ _______ _____ _____    ______ ____
ROOT
ATOM      1  C   UNL     1       1.261   8.587  20.248  0.00  0.00    +0.000 A 
ATOM      2  C   UNL     1       1.401   8.864  21.542  0.00  0.00    +0.000 A 
ATOM      3  C   UNL     1       0.595   9.919  22.124  0.00  0.00    +0.000 A 
ATOM      4  O   UNL     1       0.232   9.890  23.280  0.00  0.00    +0.000 OA
ATOM      5  C   UNL     1       0.299  11.012  21.208  0.00  0.00    +0.000 A 
ATOM      6  C   UNL     1       0.069  12.256  21.778  0.00  0.00    +0.000 A 
ATOM      7  C   UNL     1       0.017  13.352  20.950  0.00  0.00    +0.000 A 
ATOM      8  C   UNL     1       0.159  13.222  19.561  0.00  0.00    +0.000 A 
ATOM      9  C   UNL     1       0.337  11.942  18.984  0.00  0.00    +0.000 A 
ATOM     10  C   UNL     1       0.426  10.808  19.830  0.00  0.00    +0.000 A 
ATOM     11  O   UNL     1       0.680   9.513  19.334  0.00  0.00    +0.000 OA
ENDROOT
BRANCH   1  15
ATOM     12  C   UNL     1       3.413   4.889  19.313  0.00  0.00    +0.000 A 
ATOM     13  C   UNL     1       2.497   4.964  20.366  0.00  0.00    +0.000 A 
ATOM     14  C   UNL     1       1.732   6.126  20.586  0.00  0.00    +0.000 A 
ATOM     15  C   UNL     1       1.854   7.293  19.789  0.00  0.00    +0.000 A 
ATOM     16  C   UNL     1       2.626   7.163  18.645  0.00  0.00    +0.000 A 
ATOM     17  C   UNL     1       3.387   5.989  18.424  0.00  0.00    +0.000 A 
BRANCH  12  19
ATOM     18  C   UNL     1       4.924   3.566  17.847  0.00  0.00    +0.000 C 
ATOM     19  N   UNL     1       4.282   3.813  19.140  0.00  0.00    +0.000 N 
ATOM     20  C   UNL     1       4.120   2.647  20.006  0.00  0.00    +0.000 C 
ENDBRANCH  12  19
ENDBRANCH   1  15
BRANCH   8  21
ATOM     21  O   UNL     1       0.107  14.458  18.993  0.00  0.00    +0.000 OA
BRANCH  21  22
ATOM     22  C   UNL     1       1.072  15.470  19.198  0.00  0.00    +0.000 C 
BRANCH  22  23
ATOM     23  C   UNL     1       2.294  15.112  18.321  0.00  0.00    +0.000 C 
BRANCH  23  24
ATOM     24  C   UNL     1       3.140  16.301  17.827  0.00  0.00    +0.000 C 
BRANCH  24  25
ATOM     25  C   UNL     1       4.599  16.263  18.285  0.00  0.00    +0.000 C 
BRANCH  25  26
ATOM     26  C   UNL     1       5.282  14.913  18.013  0.00  0.00    +0.000 C 
BRANCH  26  27
ATOM     27  C   UNL     1       6.813  14.976  17.896  0.00  0.00    +0.000 C 
BRANCH  27  28
ATOM     28  C   UNL     1       7.447  15.633  19.125  0.00  0.00    +0.000 C 
BRANCH  28  29
ATOM     29  C   UNL     1       8.770  14.984  19.546  0.00  0.00    +0.000 C 
BRANCH  29  30
ATOM     30  N   UNL     1       9.183  13.901  18.626  0.00  0.00    +0.000 NA
ATOM     31  C   UNL     1      10.472  14.189  17.973  0.00  0.00    +0.000 C 
ATOM     32  C   UNL     1      10.914  13.062  17.039  0.00  0.00    +0.000 C 
ATOM     33  C   UNL     1      10.974  11.730  17.770  0.00  0.00    +0.000 C 
ATOM     34  C   UNL     1       9.641  11.455  18.452  0.00  0.00    +0.000 C 
ATOM     35  C   UNL     1       9.232  12.621  19.355  0.00  0.00    +0.000 C 
ENDBRANCH  29  30
ENDBRANCH  28  29
ENDBRANCH  27  28
ENDBRANCH  26  27
ENDBRANCH  25  26
ENDBRANCH  24  25
ENDBRANCH  23  24
ENDBRANCH  22  23
ENDBRANCH  21  22
ENDBRANCH   8  21
TORSDOF 12
ENDMDL
