MODEL 1
REMARK VINA RESULT:      -6.1      0.000      0.000
REMARK  Name = 
REMARK  5 active torsions:
REMARK  status: ('A' for Active; 'I' for Inactive)
REMARK    1  A    between atoms: C_2  and  O_3
REMARK    2  A    between atoms: C_2  and  C_12
REMARK    3  A    between atoms: O_3  and  C_4
REMARK    4  A    between atoms: C_4  and  C_5
REMARK    5  A    between atoms: C_5  and  N_6
REMARK                            x       y       z     vdW  Elec       q    Type
REMARK                         _______ _______ _______ _____ _____    ______ ____
ROOT
ATOM      1  O   UNL     1       5.883   5.147  18.644  0.00  0.00    +0.000 OA
ATOM      2  C   UNL     1       4.808   5.225  18.062  0.00  0.00    +0.000 C 
ENDROOT
BRANCH   2   3
ATOM      3  C   UNL     1       3.858   6.310  18.381  0.00  0.00    +0.000 A 
ATOM      4  C   UNL     1       3.667   7.389  17.500  0.00  0.00    +0.000 A 
ATOM      5  C   UNL     1       2.712   8.371  17.786  0.00  0.00    +0.000 A 
ATOM      6  C   UNL     1       1.947   8.285  18.953  0.00  0.00    +0.000 A 
ATOM      7 CL   UNL     1       0.737   9.506  19.301  0.00  0.00    +0.000 Cl
ATOM      8  C   UNL     1       2.137   7.221  19.838  0.00  0.00    +0.000 A 
ATOM      9  C   UNL     1       3.085   6.238  19.555  0.00  0.00    +0.000 A 
ENDBRANCH   2   3
BRANCH   2  10
ATOM     10  O   UNL     1       4.534   4.422  17.005  0.00  0.00    +0.000 OA
BRANCH  10  11
ATOM     11  C   UNL     1       3.418   3.616  16.933  0.00  0.00    +0.000 C 
BRANCH  11  12
ATOM     12  C   UNL     1       3.687   2.416  17.856  0.00  0.00    +0.000 C 
BRANCH  12  13
ATOM     13  N   UNL     1       2.771   2.311  19.010  0.00  0.00    +0.000 NA
ATOM     14  C   UNL     1       3.536   2.652  20.236  0.00  0.00    +0.000 C 
ATOM     15  C   UNL     1       2.660   2.513  21.484  0.00  0.00    +0.000 C 
ATOM     16  C   UNL     1       1.441   3.426  21.365  0.00  0.00    +0.000 C 
ATOM     17  C   UNL     1       0.677   3.080  20.088  0.00  0.00    +0.000 C 
ATOM     18  C   UNL     1       1.601   3.212  18.874  0.00  0.00    +0.000 C 
ENDBRANCH  12  13
ENDBRANCH  11  12
ENDBRANCH  10  11
ENDBRANCH   2  10
TORSDOF 5
ENDMDL
MODEL 2
REMARK VINA RESULT:      -6.1      0.982      1.940
REMARK  Name = 
REMARK  5 active torsions:
REMARK  status: ('A' for Active; 'I' for Inactive)
REMARK    1  A    between atoms: C_2  and  O_3
REMARK    2  A    between atoms: C_2  and  C_12
REMARK    3  A    between atoms: O_3  and  C_4
REMARK    4  A    between atoms: C_4  and  C_5
REMARK    5  A    between atoms: C_5  and  N_6
REMARK                            x       y       z     vdW  Elec       q    Type
REMARK                         _______ _______ _______ _____ _____    ______ ____
ROOT
ATOM      1  O   UNL     1       5.029   6.578  17.406  0.00  0.00    +0.000 OA
ATOM      2  C   UNL     1       3.894   6.203  17.674  0.00  0.00    +0.000 C 
ENDROOT
BRANCH   2   3
ATOM      3  C   UNL     1       2.944   7.110  18.350  0.00  0.00    +0.000 A 
ATOM      4  C   UNL     1       2.493   6.846  19.655  0.00  0.00    +0.000 A 
ATOM      5  C   UNL     1       1.648   7.753  20.305  0.00  0.00    +0.000 A 
ATOM      6  C   UNL     1       1.245   8.924  19.657  0.00  0.00    +0.000 A 
ATOM      7 CL   UNL     1       0.202  10.068  20.479  0.00  0.00    +0.000 Cl
ATOM      8  C   UNL     1       1.682   9.189  18.356  0.00  0.00    +0.000 A 
ATOM      9  C   UNL     1       2.527   8.290  17.706  0.00  0.00    +0.000 A 
ENDBRANCH   2   3
BRANCH   2  10
ATOM     10  O   UNL     1       3.432   5.015  17.216  0.00  0.00    +0.000 OA
BRANCH  10  11
ATOM     11  C   UNL     1       4.247   3.936  16.945  0.00  0.00    +0.000 C 
BRANCH  11  12
ATOM     12  C   UNL     1       3.800   2.806  17.888  0.00  0.00    +0.000 C 
BRANCH  12  13
ATOM     13  N   UNL     1       2.962   3.247  19.022  0.00  0.00    +0.000 NA
ATOM     14  C   UNL     1       1.599   2.690  18.830  0.00  0.00    +0.000 C 
ATOM     15  C   UNL     1       0.656   3.153  19.944  0.00  0.00    +0.000 C 
ATOM     16  C   UNL     1       1.207   2.715  21.301  0.00  0.00    +0.000 C 
ATOM     17  C   UNL     1       2.618   3.276  21.475  0.00  0.00    +0.000 C 
ATOM     18  C   UNL     1       3.513   2.805  20.326  0.00  0.00    +0.000 C 
ENDBRANCH  12  13
ENDBRANCH  11  12
ENDBRANCH  10  11
ENDBRANCH   2  10
TORSDOF 5
ENDMDL
MODEL 3
REMARK VINA RESULT:      -6.1      0.946      1.053
REMARK  Name = 
REMARK  5 active torsions:
REMARK  status: ('A' for Active; 'I' for Inactive)
REMARK    1  A    between atoms: C_2  and  O_3
REMARK    2  A    between atoms: C_2  and  C_12
REMARK    3  A    between atoms: O_3  and  C_4
REMARK    4  A    between atoms: C_4  and  C_5
REMARK    5  A    between atoms: C_5  and  N_6
REMARK                            x       y       z     vdW  Elec       q    Type
REMARK                         _______ _______ _______ _____ _____    ______ ____
ROOT
ATOM      1  O   UNL     1       5.208   6.853  16.937  0.00  0.00    +0.000 OA
ATOM      2  C   UNL     1       4.211   6.330  17.420  0.00  0.00    +0.000 C 
ENDROOT
BRANCH   2   3
ATOM      3  C   UNL     1       3.250   7.130  18.207  0.00  0.00    +0.000 A 
ATOM      4  C   UNL     1       2.688   8.308  17.685  0.00  0.00    +0.000 A 
ATOM      5  C   UNL     1       1.727   9.015  18.417  0.00  0.00    +0.000 A 
ATOM      6  C   UNL     1       1.325   8.553  19.673  0.00  0.00    +0.000 A 
ATOM      7 CL   UNL     1       0.106   9.428  20.581  0.00  0.00    +0.000 Cl
ATOM      8  C   UNL     1       1.885   7.387  20.203  0.00  0.00    +0.000 A 
ATOM      9  C   UNL     1       2.840   6.678  19.475  0.00  0.00    +0.000 A 
ENDBRANCH   2   3
BRANCH   2  10
ATOM     10  O   UNL     1       3.881   5.053  17.110  0.00  0.00    +0.000 OA
BRANCH  10  11
ATOM     11  C   UNL     1       4.535   3.954  17.623  0.00  0.00    +0.000 C 
BRANCH  11  12
ATOM     12  C   UNL     1       3.543   2.781  17.544  0.00  0.00    +0.000 C 
BRANCH  12  13
ATOM     13  N   UNL     1       2.740   2.573  18.767  0.00  0.00    +0.000 NA
ATOM     14  C   UNL     1       3.555   3.008  19.930  0.00  0.00    +0.000 C 
ATOM     15  C   UNL     1       2.804   2.770  21.243  0.00  0.00    +0.000 C 
ATOM     16  C   UNL     1       1.480   3.531  21.226  0.00  0.00    +0.000 C 
ATOM     17  C   UNL     1       0.663   3.090  20.012  0.00  0.00    +0.000 C 
ATOM     18  C   UNL     1       1.464   3.327  18.730  0.00  0.00    +0.000 C 
ENDBRANCH  12  13
ENDBRANCH  11  12
ENDBRANCH  10  11
ENDBRANCH   2  10
TORSDOF 5
ENDMDL
MODEL 4
REMARK VINA RESULT:      -6.0      0.729      1.343
REMARK  Name = 
REMARK  5 active torsions:
REMARK  status: ('A' for Active; 'I' for Inactive)
REMARK    1  A    between atoms: C_2  and  O_3
REMARK    2  A    between atoms: C_2  and  C_12
REMARK    3  A    between atoms: O_3  and  C_4
REMARK    4  A    between atoms: C_4  and  C_5
REMARK    5  A    between atoms: C_5  and  N_6
REMARK                            x       y       z     vdW  Elec       q    Type
REMARK                         _______ _______ _______ _____ _____    ______ ____
ROOT
ATOM      1  O   UNL     1       5.544   6.051  17.350  0.00  0.00    +0.000 OA
ATOM      2  C   UNL     1       4.368   5.734  17.481  0.00  0.00    +0.000 C 
ENDROOT
BRANCH   2   3
ATOM      3  C   UNL     1       3.406   6.660  18.115  0.00  0.00    +0.000 A 
ATOM      4  C   UNL     1       2.914   6.421  19.409  0.00  0.00    +0.000 A 
ATOM      5  C   UNL     1       2.059   7.345  20.020  0.00  0.00    +0.000 A 
ATOM      6  C   UNL     1       1.688   8.510  19.342  0.00  0.00    +0.000 A 
ATOM      7 CL   UNL     1       0.632   9.677  20.115  0.00  0.00    +0.000 Cl
ATOM      8  C   UNL     1       2.166   8.751  18.051  0.00  0.00    +0.000 A 
ATOM      9  C   UNL     1       3.022   7.834  17.440  0.00  0.00    +0.000 A 
ENDBRANCH   2   3
BRANCH   2  10
ATOM     10  O   UNL     1       3.888   4.604  16.908  0.00  0.00    +0.000 OA
BRANCH  10  11
ATOM     11  C   UNL     1       4.214   3.336  17.339  0.00  0.00    +0.000 C 
BRANCH  11  12
ATOM     12  C   UNL     1       2.888   2.569  17.478  0.00  0.00    +0.000 C 
BRANCH  12  13
ATOM     13  N   UNL     1       2.401   2.432  18.865  0.00  0.00    +0.000 NA
ATOM     14  C   UNL     1       3.530   2.735  19.781  0.00  0.00    +0.000 C 
ATOM     15  C   UNL     1       3.111   2.559  21.243  0.00  0.00    +0.000 C 
ATOM     16  C   UNL     1       1.932   3.479  21.556  0.00  0.00    +0.000 C 
ATOM     17  C   UNL     1       0.786   3.173  20.592  0.00  0.00    +0.000 C 
ATOM     18  C   UNL     1       1.262   3.339  19.147  0.00  0.00    +0.000 C 
ENDBRANCH  12  13
ENDBRANCH  11  12
ENDBRANCH  10  11
ENDBRANCH   2  10
TORSDOF 5
ENDMDL
MODEL 5
REMARK VINA RESULT:      -6.0      3.091      4.400
REMARK  Name = 
REMARK  5 active torsions:
REMARK  status: ('A' for Active; 'I' for Inactive)
REMARK    1  A    between atoms: C_2  and  O_3
REMARK    2  A    between atoms: C_2  and  C_12
REMARK    3  A    between atoms: O_3  and  C_4
REMARK    4  A    between atoms: C_4  and  C_5
REMARK    5  A    between atoms: C_5  and  N_6
REMARK                            x       y       z     vdW  Elec       q    Type
REMARK                         _______ _______ _______ _____ _____    ______ ____
ROOT
ATOM      1  O   UNL     1       6.794   4.930  19.471  0.00  0.00    +0.000 OA
ATOM      2  C   UNL     1       5.889   5.232  18.702  0.00  0.00    +0.000 C 
ENDROOT
BRANCH   2   3
ATOM      3  C   UNL     1       5.985   4.907  17.264  0.00  0.00    +0.000 A 
ATOM      4  C   UNL     1       6.965   5.500  16.451  0.00  0.00    +0.000 A 
ATOM      5  C   UNL     1       7.086   5.128  15.107  0.00  0.00    +0.000 A 
ATOM      6  C   UNL     1       6.229   4.165  14.567  0.00  0.00    +0.000 A 
ATOM      7 CL   UNL     1       6.394   3.684  12.889  0.00  0.00    +0.000 Cl
ATOM      8  C   UNL     1       5.246   3.576  15.368  0.00  0.00    +0.000 A 
ATOM      9  C   UNL     1       5.124   3.942  16.708  0.00  0.00    +0.000 A 
ENDBRANCH   2   3
BRANCH   2  10
ATOM     10  O   UNL     1       4.716   5.719  19.173  0.00  0.00    +0.000 OA
BRANCH  10  11
ATOM     11  C   UNL     1       3.949   6.643  18.495  0.00  0.00    +0.000 C 
BRANCH  11  12
ATOM     12  C   UNL     1       2.484   6.214  18.682  0.00  0.00    +0.000 C 
BRANCH  12  13
ATOM     13  N   UNL     1       2.302   4.796  19.054  0.00  0.00    +0.000 NA
ATOM     14  C   UNL     1       1.439   4.747  20.262  0.00  0.00    +0.000 C 
ATOM     15  C   UNL     1       1.250   3.304  20.740  0.00  0.00    +0.000 C 
ATOM     16  C   UNL     1       0.625   2.468  19.624  0.00  0.00    +0.000 C 
ATOM     17  C   UNL     1       1.510   2.548  18.381  0.00  0.00    +0.000 C 
ATOM     18  C   UNL     1       1.687   4.008  17.959  0.00  0.00    +0.000 C 
ENDBRANCH  12  13
ENDBRANCH  11  12
ENDBRANCH  10  11
ENDBRANCH   2  10
TORSDOF 5
ENDMDL
MODEL 6
REMARK VINA RESULT:      -6.0      2.612      3.381
REMARK  Name = 
REMARK  5 active torsions:
REMARK  status: ('A' for Active; 'I' for Inactive)
REMARK    1  A    between atoms: C_2  and  O_3
REMARK    2  A    between atoms: C_2  and  C_12
REMARK    3  A    between atoms: O_3  and  C_4
REMARK    4  A    between atoms: C_4  and  C_5
REMARK    5  A    between atoms: C_5  and  N_6
REMARK                            x       y       z     vdW  Elec       q    Type
REMARK                         _______ _______ _______ _____ _____    ______ ____
ROOT
ATOM      1  O   UNL     1       5.266   3.181  19.178  0.00  0.00    +0.000 OA
ATOM      2  C   UNL     1       5.182   3.877  18.172  0.00  0.00    +0.000 C 
ENDROOT
BRANCH   2   3
ATOM      3  C   UNL     1       5.992   5.106  18.040  0.00  0.00    +0.000 A 
ATOM      4  C   UNL     1       5.594   6.148  17.186  0.00  0.00    +0.000 A 
ATOM      5  C   UNL     1       6.337   7.333  17.127  0.00  0.00    +0.000 A 
ATOM      6  C   UNL     1       7.481   7.482  17.915  0.00  0.00    +0.000 A 
ATOM      7 CL   UNL     1       8.400   8.974  17.854  0.00  0.00    +0.000 Cl
ATOM      8  C   UNL     1       7.889   6.447  18.760  0.00  0.00    +0.000 A 
ATOM      9  C   UNL     1       7.149   5.266  18.825  0.00  0.00    +0.000 A 
ENDBRANCH   2   3
BRANCH   2  10
ATOM     10  O   UNL     1       4.474   3.456  17.097  0.00  0.00    +0.000 OA
BRANCH  10  11
ATOM     11  C   UNL     1       3.251   2.829  17.191  0.00  0.00    +0.000 C 
BRANCH  11  12
ATOM     12  C   UNL     1       2.213   3.935  17.444  0.00  0.00    +0.000 C 
BRANCH  12  13
ATOM     13  N   UNL     1       1.693   3.984  18.826  0.00  0.00    +0.000 NA
ATOM     14  C   UNL     1       1.897   2.648  19.442  0.00  0.00    +0.000 C 
ATOM     15  C   UNL     1       1.331   2.608  20.864  0.00  0.00    +0.000 C 
ATOM     16  C   UNL     1       2.006   3.679  21.719  0.00  0.00    +0.000 C 
ATOM     17  C   UNL     1       1.808   5.045  21.062  0.00  0.00    +0.000 C 
ATOM     18  C   UNL     1       2.368   5.026  19.638  0.00  0.00    +0.000 C 
ENDBRANCH  12  13
ENDBRANCH  11  12
ENDBRANCH  10  11
ENDBRANCH   2  10
TORSDOF 5
ENDMDL
MODEL 7
REMARK VINA RESULT:      -5.9      2.578      3.554
REMARK  Name = 
REMARK  5 active torsions:
REMARK  status: ('A' for Active; 'I' for Inactive)
REMARK    1  A    between atoms: C_2  and  O_3
REMARK    2  A    between atoms: C_2  and  C_12
REMARK    3  A    between atoms: O_3  and  C_4
REMARK    4  A    between atoms: C_4  and  C_5
REMARK    5  A    between atoms: C_5  and  N_6
REMARK                            x       y       z     vdW  Elec       q    Type
REMARK                         _______ _______ _______ _____ _____    ______ ____
ROOT
ATOM      1  O   UNL     1       2.138   9.407  17.221  0.00  0.00    +0.000 OA
ATOM      2  C   UNL     1       2.042   8.631  18.165  0.00  0.00    +0.000 C 
ENDROOT
BRANCH   2   3
ATOM      3  C   UNL     1       1.362   9.042  19.410  0.00  0.00    +0.000 A 
ATOM      4  C   UNL     1       0.495  10.147  19.431  0.00  0.00    +0.000 A 
ATOM      5  C   UNL     1      -0.195  10.480  20.603  0.00  0.00    +0.000 A 
ATOM      6  C   UNL     1      -0.020   9.714  21.759  0.00  0.00    +0.000 A 
ATOM      7 CL   UNL     1      -0.899  10.119  23.222  0.00  0.00    +0.000 Cl
ATOM      8  C   UNL     1       0.847   8.618  21.748  0.00  0.00    +0.000 A 
ATOM      9  C   UNL     1       1.533   8.281  20.582  0.00  0.00    +0.000 A 
ENDBRANCH   2   3
BRANCH   2  10
ATOM     10  O   UNL     1       2.409   7.333  18.032  0.00  0.00    +0.000 OA
BRANCH  10  11
ATOM     11  C   UNL     1       3.694   6.933  17.735  0.00  0.00    +0.000 C 
BRANCH  11  12
ATOM     12  C   UNL     1       3.871   5.538  18.357  0.00  0.00    +0.000 C 
BRANCH  12  13
ATOM     13  N   UNL     1       2.622   4.924  18.853  0.00  0.00    +0.000 NA
ATOM     14  C   UNL     1       2.435   3.631  18.148  0.00  0.00    +0.000 C 
ATOM     15  C   UNL     1       1.126   2.959  18.573  0.00  0.00    +0.000 C 
ATOM     16  C   UNL     1       1.133   2.728  20.083  0.00  0.00    +0.000 C 
ATOM     17  C   UNL     1       1.349   4.062  20.795  0.00  0.00    +0.000 C 
ATOM     18  C   UNL     1       2.655   4.703  20.319  0.00  0.00    +0.000 C 
ENDBRANCH  12  13
ENDBRANCH  11  12
ENDBRANCH  10  11
ENDBRANCH   2  10
TORSDOF 5
ENDMDL
MODEL 8
REMARK VINA RESULT:      -5.9      3.340      4.746
REMARK  Name = 
REMARK  5 active torsions:
REMARK  status: ('A' for Active; 'I' for Inactive)
REMARK    1  A    between atoms: C_2  and  O_3
REMARK    2  A    between atoms: C_2  and  C_12
REMARK    3  A    between atoms: O_3  and  C_4
REMARK    4  A    between atoms: C_4  and  C_5
REMARK    5  A    between atoms: C_5  and  N_6
REMARK                            x       y       z     vdW  Elec       q    Type
REMARK                         _______ _______ _______ _____ _____    ______ ____
ROOT
ATOM      1  O   UNL     1       7.209   4.862  18.776  0.00  0.00    +0.000 OA
ATOM      2  C   UNL     1       6.264   5.108  18.035  0.00  0.00    +0.000 C 
ENDROOT
BRANCH   2   3
ATOM      3  C   UNL     1       6.285   4.676  16.622  0.00  0.00    +0.000 A 
ATOM      4  C   UNL     1       5.320   3.785  16.122  0.00  0.00    +0.000 A 
ATOM      5  C   UNL     1       5.314   3.442  14.765  0.00  0.00    +0.000 A 
ATOM      6  C   UNL     1       6.272   3.981  13.902  0.00  0.00    +0.000 A 
ATOM      7 CL   UNL     1       6.252   3.566  12.199  0.00  0.00    +0.000 Cl
ATOM      8  C   UNL     1       7.240   4.861  14.394  0.00  0.00    +0.000 A 
ATOM      9  C   UNL     1       7.247   5.209  15.744  0.00  0.00    +0.000 A 
ENDBRANCH   2   3
BRANCH   2  10
ATOM     10  O   UNL     1       5.117   5.633  18.529  0.00  0.00    +0.000 OA
BRANCH  10  11
ATOM     11  C   UNL     1       4.415   6.644  17.910  0.00  0.00    +0.000 C 
BRANCH  11  12
ATOM     12  C   UNL     1       2.928   6.388  18.207  0.00  0.00    +0.000 C 
BRANCH  12  13
ATOM     13  N   UNL     1       2.638   5.063  18.791  0.00  0.00    +0.000 NA
ATOM     14  C   UNL     1       2.048   5.274  20.137  0.00  0.00    +0.000 C 
ATOM     15  C   UNL     1       1.770   3.936  20.829  0.00  0.00    +0.000 C 
ATOM     16  C   UNL     1       0.818   3.102  19.973  0.00  0.00    +0.000 C 
ATOM     17  C   UNL     1       1.426   2.912  18.584  0.00  0.00    +0.000 C 
ATOM     18  C   UNL     1       1.707   4.275  17.947  0.00  0.00    +0.000 C 
ENDBRANCH  12  13
ENDBRANCH  11  12
ENDBRANCH  10  11
ENDBRANCH   2  10
TORSDOF 5
ENDMDL
MODEL 9
REMARK VINA RESULT:      -5.9      3.772      5.272
REMARK  Name = 
REMARK  5 active torsions:
REMARK  status: ('A' for Active; 'I' for Inactive)
REMARK    1  A    between atoms: C_2  and  O_3
REMARK    2  A    between atoms: C_2  and  C_12
REMARK    3  A    between atoms: O_3  and  C_4
REMARK    4  A    between atoms: C_4  and  C_5
REMARK    5  A    between atoms: C_5  and  N_6
REMARK                            x       y       z     vdW  Elec       q    Type
REMARK                         _______ _______ _______ _____ _____    ______ ____
ROOT
ATOM      1  O   UNL     1       7.769   6.707  16.771  0.00  0.00    +0.000 OA
ATOM      2  C   UNL     1       6.697   6.126  16.644  0.00  0.00    +0.000 C 
ENDROOT
BRANCH   2   3
ATOM      3  C   UNL     1       6.457   5.235  15.491  0.00  0.00    +0.000 A 
ATOM      4  C   UNL     1       5.310   4.426  15.425  0.00  0.00    +0.000 A 
ATOM      5  C   UNL     1       5.065   3.640  14.293  0.00  0.00    +0.000 A 
ATOM      6  C   UNL     1       5.965   3.655  13.223  0.00  0.00    +0.000 A 
ATOM      7 CL   UNL     1       5.648   2.685  11.797  0.00  0.00    +0.000 Cl
ATOM      8  C   UNL     1       7.112   4.450  13.284  0.00  0.00    +0.000 A 
ATOM      9  C   UNL     1       7.358   5.237  14.409  0.00  0.00    +0.000 A 
ENDBRANCH   2   3
BRANCH   2  10
ATOM     10  O   UNL     1       5.772   6.158  17.634  0.00  0.00    +0.000 OA
BRANCH  10  11
ATOM     11  C   UNL     1       5.872   5.417  18.791  0.00  0.00    +0.000 C 
BRANCH  11  12
ATOM     12  C   UNL     1       4.505   5.514  19.490  0.00  0.00    +0.000 C 
BRANCH  12  13
ATOM     13  N   UNL     1       3.626   4.345  19.284  0.00  0.00    +0.000 NA
ATOM     14  C   UNL     1       2.605   4.711  18.270  0.00  0.00    +0.000 C 
ATOM     15  C   UNL     1       1.621   3.560  18.044  0.00  0.00    +0.000 C 
ATOM     16  C   UNL     1       2.379   2.315  17.587  0.00  0.00    +0.000 C 
ATOM     17  C   UNL     1       3.441   1.963  18.629  0.00  0.00    +0.000 C 
ATOM     18  C   UNL     1       4.383   3.152  18.835  0.00  0.00    +0.000 C 
ENDBRANCH  12  13
ENDBRANCH  11  12
ENDBRANCH  10  11
ENDBRANCH   2  10
TORSDOF 5
ENDMDL
