MODEL 1
REMARK VINA RESULT:      -7.7      0.000      0.000
REMARK  Name = 
REMARK  6 active torsions:
REMARK  status: ('A' for Active; 'I' for Inactive)
REMARK    1  A    between atoms: C_1  and  C_2
REMARK    2  A    between atoms: C_2  and  C_3
REMARK    3  A    between atoms: C_3  and  C_4
REMARK    4  A    between atoms: C_4  and  N_5
REMARK    5  A    between atoms: N_5  and  C_6
REMARK    6  A    between atoms: C_11  and  C_12
REMARK                            x       y       z     vdW  Elec       q    Type
REMARK                         _______ _______ _______ _____ _____    ______ ____
ROOT
ATOM      1  C   UNL     1       1.000   9.027  19.867  0.00  0.00    +0.000 A 
ATOM      2  C   UNL     1       1.433   9.832  18.809  0.00  0.00    +0.000 A 
ATOM      3  C   UNL     1       2.337   9.354  17.862  0.00  0.00    +0.000 A 
ATOM      4  C   UNL     1       2.850   8.063  17.973  0.00  0.00    +0.000 A 
ATOM      5  C   UNL     1       3.821   7.596  16.988  0.00  0.00    +0.000 A 
ATOM      6  C   UNL     1       4.352   6.369  17.084  0.00  0.00    +0.000 A 
ATOM      7  C   UNL     1       3.964   5.496  18.139  0.00  0.00    +0.000 A 
ATOM      8  N   UNL     1       4.366   4.268  18.381  0.00  0.00    +0.000 NA
ATOM      9  C   UNL     1       3.689   3.868  19.494  0.00  0.00    +0.000 A 
ATOM     10  C   UNL     1       3.768   2.625  20.147  0.00  0.00    +0.000 A 
ATOM     11  C   UNL     1       2.987   2.395  21.279  0.00  0.00    +0.000 A 
ATOM     12  C   UNL     1       2.138   3.387  21.754  0.00  0.00    +0.000 A 
ATOM     13  C   UNL     1       2.046   4.632  21.114  0.00  0.00    +0.000 A 
ATOM     14  C   UNL     1       2.838   4.868  19.973  0.00  0.00    +0.000 A 
ATOM     15  N   UNL     1       3.027   5.931  19.089  0.00  0.00    +0.000 N 
ATOM     16  C   UNL     1       2.447   7.236  19.037  0.00  0.00    +0.000 A 
ATOM     17  C   UNL     1       1.534   7.730  19.977  0.00  0.00    +0.000 A 
ENDROOT
BRANCH   1  18
ATOM     18  N   UNL     1       0.156   9.486  20.886  0.00  0.00    +0.000 N 
ATOM     19  H   UNL     1      -0.134  10.451  20.739  0.00  0.00    +0.000 HD
BRANCH  18  20
ATOM     20  C   UNL     1       0.480   9.168  22.272  0.00  0.00    +0.000 C 
BRANCH  20  21
ATOM     21  C   UNL     1      -0.480   9.872  23.228  0.00  0.00    +0.000 C 
BRANCH  21  23
ATOM     22  C   UNL     1      -2.166  11.751  23.221  0.00  0.00    +0.000 C 
ATOM     23  C   UNL     1      -0.829  11.262  22.695  0.00  0.00    +0.000 C 
ENDBRANCH  21  23
ENDBRANCH  20  21
ENDBRANCH  18  20
ENDBRANCH   1  18
BRANCH   6  24
ATOM     24  C   UNL     1       5.366   5.922  16.045  0.00  0.00    +0.000 C 
ATOM     25  N   UNL     1       6.208   5.550  15.181  0.00  0.00    +0.000 NA
ENDBRANCH   6  24
TORSDOF 5
ENDMDL
MODEL 2
REMARK VINA RESULT:      -7.7      2.164      7.059
REMARK  Name = 
REMARK  6 active torsions:
REMARK  status: ('A' for Active; 'I' for Inactive)
REMARK    1  A    between atoms: C_1  and  C_2
REMARK    2  A    between atoms: C_2  and  C_3
REMARK    3  A    between atoms: C_3  and  C_4
REMARK    4  A    between atoms: C_4  and  N_5
REMARK    5  A    between atoms: N_5  and  C_6
REMARK    6  A    between atoms: C_11  and  C_12
REMARK                            x       y       z     vdW  Elec       q    Type
REMARK                         _______ _______ _______ _____ _____    ______ ____
ROOT
ATOM      1  C   UNL     1       5.613   4.850  15.826  0.00  0.00    +0.000 A 
ATOM      2  C   UNL     1       5.499   6.125  15.265  0.00  0.00    +0.000 A 
ATOM      3  C   UNL     1       4.725   7.114  15.869  0.00  0.00    +0.000 A 
ATOM      4  C   UNL     1       4.020   6.833  17.039  0.00  0.00    +0.000 A 
ATOM      5  C   UNL     1       3.188   7.874  17.635  0.00  0.00    +0.000 A 
ATOM      6  C   UNL     1       2.478   7.625  18.745  0.00  0.00    +0.000 A 
ATOM      7  C   UNL     1       2.539   6.347  19.368  0.00  0.00    +0.000 A 
ATOM      8  N   UNL     1       1.928   5.932  20.455  0.00  0.00    +0.000 NA
ATOM      9  C   UNL     1       2.326   4.641  20.636  0.00  0.00    +0.000 A 
ATOM     10  C   UNL     1       1.952   3.763  21.669  0.00  0.00    +0.000 A 
ATOM     11  C   UNL     1       2.473   2.470  21.691  0.00  0.00    +0.000 A 
ATOM     12  C   UNL     1       3.353   2.056  20.700  0.00  0.00    +0.000 A 
ATOM     13  C   UNL     1       3.739   2.919  19.663  0.00  0.00    +0.000 A 
ATOM     14  C   UNL     1       3.210   4.224  19.636  0.00  0.00    +0.000 A 
ATOM     15  N   UNL     1       3.339   5.340  18.808  0.00  0.00    +0.000 N 
ATOM     16  C   UNL     1       4.100   5.553  17.617  0.00  0.00    +0.000 A 
ATOM     17  C   UNL     1       4.887   4.574  17.000  0.00  0.00    +0.000 A 
ENDROOT
BRANCH   1  18
ATOM     18  N   UNL     1       6.314   3.802  15.216  0.00  0.00    +0.000 N 
ATOM     19  H   UNL     1       7.184   3.589  15.700  0.00  0.00    +0.000 HD
BRANCH  18  20
ATOM     20  C   UNL     1       6.418   3.770  13.762  0.00  0.00    +0.000 C 
BRANCH  20  21
ATOM     21  C   UNL     1       5.034   3.716  13.120  0.00  0.00    +0.000 C 
BRANCH  21  23
ATOM     22  C   UNL     1       3.890   3.304  10.908  0.00  0.00    +0.000 C 
ATOM     23  C   UNL     1       5.108   3.012  11.764  0.00  0.00    +0.000 C 
ENDBRANCH  21  23
ENDBRANCH  20  21
ENDBRANCH  18  20
ENDBRANCH   1  18
BRANCH   6  24
ATOM     24  C   UNL     1       1.618   8.731  19.331  0.00  0.00    +0.000 C 
ATOM     25  N   UNL     1       0.902   9.649  19.818  0.00  0.00    +0.000 NA
ENDBRANCH   6  24
TORSDOF 5
ENDMDL
MODEL 3
REMARK VINA RESULT:      -7.6      2.179      7.837
REMARK  Name = 
REMARK  6 active torsions:
REMARK  status: ('A' for Active; 'I' for Inactive)
REMARK    1  A    between atoms: C_1  and  C_2
REMARK    2  A    between atoms: C_2  and  C_3
REMARK    3  A    between atoms: C_3  and  C_4
REMARK    4  A    between atoms: C_4  and  N_5
REMARK    5  A    between atoms: N_5  and  C_6
REMARK    6  A    between atoms: C_11  and  C_12
REMARK                            x       y       z     vdW  Elec       q    Type
REMARK                         _______ _______ _______ _____ _____    ______ ____
ROOT
ATOM      1  C   UNL     1       5.321   4.964  15.821  0.00  0.00    +0.000 A 
ATOM      2  C   UNL     1       5.536   3.629  16.174  0.00  0.00    +0.000 A 
ATOM      3  C   UNL     1       4.920   3.070  17.292  0.00  0.00    +0.000 A 
ATOM      4  C   UNL     1       4.095   3.851  18.101  0.00  0.00    +0.000 A 
ATOM      5  C   UNL     1       3.488   3.252  19.285  0.00  0.00    +0.000 A 
ATOM      6  C   UNL     1       2.711   3.984  20.096  0.00  0.00    +0.000 A 
ATOM      7  C   UNL     1       2.453   5.353  19.803  0.00  0.00    +0.000 A 
ATOM      8  N   UNL     1       1.715   6.212  20.471  0.00  0.00    +0.000 NA
ATOM      9  C   UNL     1       1.781   7.381  19.773  0.00  0.00    +0.000 A 
ATOM     10  C   UNL     1       1.152   8.601  20.078  0.00  0.00    +0.000 A 
ATOM     11  C   UNL     1       1.335   9.696  19.234  0.00  0.00    +0.000 A 
ATOM     12  C   UNL     1       2.131   9.578  18.102  0.00  0.00    +0.000 A 
ATOM     13  C   UNL     1       2.764   8.368  17.781  0.00  0.00    +0.000 A 
ATOM     14  C   UNL     1       2.585   7.263  18.635  0.00  0.00    +0.000 A 
ATOM     15  N   UNL     1       3.026   5.939  18.665  0.00  0.00    +0.000 N 
ATOM     16  C   UNL     1       3.875   5.202  17.781  0.00  0.00    +0.000 A 
ATOM     17  C   UNL     1       4.497   5.747  16.651  0.00  0.00    +0.000 A 
ENDROOT
BRANCH   1  18
ATOM     18  N   UNL     1       5.977   5.593  14.755  0.00  0.00    +0.000 N 
ATOM     19  H   UNL     1       5.325   6.027  14.105  0.00  0.00    +0.000 HD
BRANCH  18  20
ATOM     20  C   UNL     1       7.096   4.914  14.111  0.00  0.00    +0.000 C 
BRANCH  20  21
ATOM     21  C   UNL     1       6.789   4.638  12.642  0.00  0.00    +0.000 C 
BRANCH  21  23
ATOM     22  C   UNL     1       4.765   3.402  11.776  0.00  0.00    +0.000 C 
ATOM     23  C   UNL     1       6.096   3.282  12.494  0.00  0.00    +0.000 C 
ENDBRANCH  21  23
ENDBRANCH  20  21
ENDBRANCH  18  20
ENDBRANCH   1  18
BRANCH   6  24
ATOM     24  C   UNL     1       2.103   3.328  21.324  0.00  0.00    +0.000 C 
ATOM     25  N   UNL     1       1.598   2.783  22.343  0.00  0.00    +0.000 NA
ENDBRANCH   6  24
TORSDOF 5
ENDMDL
MODEL 4
REMARK VINA RESULT:      -7.6      2.124      4.511
REMARK  Name = 
REMARK  6 active torsions:
REMARK  status: ('A' for Active; 'I' for Inactive)
REMARK    1  A    between atoms: C_1  and  C_2
REMARK    2  A    between atoms: C_2  and  C_3
REMARK    3  A    between atoms: C_3  and  C_4
REMARK    4  A    between atoms: C_4  and  N_5
REMARK    5  A    between atoms: N_5  and  C_6
REMARK    6  A    between atoms: C_11  and  C_12
REMARK                            x       y       z     vdW  Elec       q    Type
REMARK                         _______ _______ _______ _____ _____    ______ ____
ROOT
ATOM      1  C   UNL     1       1.838   9.642  18.646  0.00  0.00    +0.000 A 
ATOM      2  C   UNL     1       1.072   9.537  19.811  0.00  0.00    +0.000 A 
ATOM      3  C   UNL     1       1.037   8.354  20.547  0.00  0.00    +0.000 A 
ATOM      4  C   UNL     1       1.750   7.237  20.112  0.00  0.00    +0.000 A 
ATOM      5  C   UNL     1       1.671   6.000  20.883  0.00  0.00    +0.000 A 
ATOM      6  C   UNL     1       2.323   4.902  20.475  0.00  0.00    +0.000 A 
ATOM      7  C   UNL     1       3.117   4.932  19.294  0.00  0.00    +0.000 A 
ATOM      8  N   UNL     1       3.828   3.967  18.756  0.00  0.00    +0.000 NA
ATOM      9  C   UNL     1       4.408   4.505  17.646  0.00  0.00    +0.000 A 
ATOM     10  C   UNL     1       5.271   3.872  16.734  0.00  0.00    +0.000 A 
ATOM     11  C   UNL     1       5.773   4.595  15.652  0.00  0.00    +0.000 A 
ATOM     12  C   UNL     1       5.425   5.929  15.482  0.00  0.00    +0.000 A 
ATOM     13  C   UNL     1       4.567   6.576  16.384  0.00  0.00    +0.000 A 
ATOM     14  C   UNL     1       4.054   5.847  17.474  0.00  0.00    +0.000 A 
ATOM     15  N   UNL     1       3.205   6.117  18.548  0.00  0.00    +0.000 N 
ATOM     16  C   UNL     1       2.513   7.307  18.934  0.00  0.00    +0.000 A 
ATOM     17  C   UNL     1       2.542   8.504  18.209  0.00  0.00    +0.000 A 
ENDROOT
BRANCH   1  18
ATOM     18  N   UNL     1       1.843  10.780  17.830  0.00  0.00    +0.000 N 
ATOM     19  H   UNL     1       2.635  10.790  17.191  0.00  0.00    +0.000 HD
BRANCH  18  20
ATOM     20  C   UNL     1       1.538  12.078  18.420  0.00  0.00    +0.000 C 
BRANCH  20  21
ATOM     21  C   UNL     1       2.686  13.059  18.195  0.00  0.00    +0.000 C 
BRANCH  21  23
ATOM     22  C   UNL     1       2.208  13.329  20.659  0.00  0.00    +0.000 C 
ATOM     23  C   UNL     1       2.899  13.917  19.442  0.00  0.00    +0.000 C 
ENDBRANCH  21  23
ENDBRANCH  20  21
ENDBRANCH  18  20
ENDBRANCH   1  18
BRANCH   6  24
ATOM     24  C   UNL     1       2.210   3.630  21.298  0.00  0.00    +0.000 C 
ATOM     25  N   UNL     1       2.118   2.574  21.982  0.00  0.00    +0.000 NA
ENDBRANCH   6  24
TORSDOF 5
ENDMDL
MODEL 5
REMARK VINA RESULT:      -7.5      1.978      4.346
REMARK  Name = 
REMARK  6 active torsions:
REMARK  status: ('A' for Active; 'I' for Inactive)
REMARK    1  A    between atoms: C_1  and  C_2
REMARK    2  A    between atoms: C_2  and  C_3
REMARK    3  A    between atoms: C_3  and  C_4
REMARK    4  A    between atoms: C_4  and  N_5
REMARK    5  A    between atoms: N_5  and  C_6
REMARK    6  A    between atoms: C_11  and  C_12
REMARK                            x       y       z     vdW  Elec       q    Type
REMARK                         _______ _______ _______ _____ _____    ______ ____
ROOT
ATOM      1  C   UNL     1       1.730   9.641  18.652  0.00  0.00    +0.000 A 
ATOM      2  C   UNL     1       0.985   9.521  19.828  0.00  0.00    +0.000 A 
ATOM      3  C   UNL     1       1.000   8.344  20.575  0.00  0.00    +0.000 A 
ATOM      4  C   UNL     1       1.744   7.249  20.139  0.00  0.00    +0.000 A 
ATOM      5  C   UNL     1       1.719   6.016  20.921  0.00  0.00    +0.000 A 
ATOM      6  C   UNL     1       2.402   4.938  20.514  0.00  0.00    +0.000 A 
ATOM      7  C   UNL     1       3.178   4.984  19.321  0.00  0.00    +0.000 A 
ATOM      8  N   UNL     1       3.914   4.039  18.781  0.00  0.00    +0.000 NA
ATOM      9  C   UNL     1       4.460   4.587  17.659  0.00  0.00    +0.000 A 
ATOM     10  C   UNL     1       5.331   3.975  16.740  0.00  0.00    +0.000 A 
ATOM     11  C   UNL     1       5.794   4.705  15.645  0.00  0.00    +0.000 A 
ATOM     12  C   UNL     1       5.397   6.024  15.468  0.00  0.00    +0.000 A 
ATOM     13  C   UNL     1       4.531   6.651  16.377  0.00  0.00    +0.000 A 
ATOM     14  C   UNL     1       4.058   5.914  17.480  0.00  0.00    +0.000 A 
ATOM     15  N   UNL     1       3.215   6.165  18.564  0.00  0.00    +0.000 N 
ATOM     16  C   UNL     1       2.489   7.334  18.950  0.00  0.00    +0.000 A 
ATOM     17  C   UNL     1       2.467   8.525  18.214  0.00  0.00    +0.000 A 
ENDROOT
BRANCH   1  18
ATOM     18  N   UNL     1       1.685  10.772  17.826  0.00  0.00    +0.000 N 
ATOM     19  H   UNL     1       1.980  10.564  16.874  0.00  0.00    +0.000 HD
BRANCH  18  20
ATOM     20  C   UNL     1       2.180  12.045  18.337  0.00  0.00    +0.000 C 
BRANCH  20  21
ATOM     21  C   UNL     1       1.087  13.108  18.294  0.00  0.00    +0.000 C 
BRANCH  21  23
ATOM     22  C   UNL     1      -1.124  12.548  19.376  0.00  0.00    +0.000 C 
ATOM     23  C   UNL     1       0.278  13.086  19.592  0.00  0.00    +0.000 C 
ENDBRANCH  21  23
ENDBRANCH  20  21
ENDBRANCH  18  20
ENDBRANCH   1  18
BRANCH   6  24
ATOM     24  C   UNL     1       2.345   3.670  21.349  0.00  0.00    +0.000 C 
ATOM     25  N   UNL     1       2.296   2.618  22.044  0.00  0.00    +0.000 NA
ENDBRANCH   6  24
TORSDOF 5
ENDMDL
MODEL 6
REMARK VINA RESULT:      -7.2      0.801      1.086
REMARK  Name = 
REMARK  6 active torsions:
REMARK  status: ('A' for Active; 'I' for Inactive)
REMARK    1  A    between atoms: C_1  and  C_2
REMARK    2  A    between atoms: C_2  and  C_3
REMARK    3  A    between atoms: C_3  and  C_4
REMARK    4  A    between atoms: C_4  and  N_5
REMARK    5  A    between atoms: N_5  and  C_6
REMARK    6  A    between atoms: C_11  and  C_12
REMARK                            x       y       z     vdW  Elec       q    Type
REMARK                         _______ _______ _______ _____ _____    ______ ____
ROOT
ATOM      1  C   UNL     1       1.362   8.801  19.171  0.00  0.00    +0.000 A 
ATOM      2  C   UNL     1       1.993   9.490  18.132  0.00  0.00    +0.000 A 
ATOM      3  C   UNL     1       3.020   8.903  17.395  0.00  0.00    +0.000 A 
ATOM      4  C   UNL     1       3.457   7.616  17.707  0.00  0.00    +0.000 A 
ATOM      5  C   UNL     1       4.557   7.034  16.942  0.00  0.00    +0.000 A 
ATOM      6  C   UNL     1       5.016   5.810  17.237  0.00  0.00    +0.000 A 
ATOM      7  C   UNL     1       4.427   5.052  18.287  0.00  0.00    +0.000 A 
ATOM      8  N   UNL     1       4.735   3.843  18.703  0.00  0.00    +0.000 NA
ATOM      9  C   UNL     1       3.871   3.568  19.721  0.00  0.00    +0.000 A 
ATOM     10  C   UNL     1       3.794   2.392  20.487  0.00  0.00    +0.000 A 
ATOM     11  C   UNL     1       2.830   2.291  21.490  0.00  0.00    +0.000 A 
ATOM     12  C   UNL     1       1.955   3.344  21.726  0.00  0.00    +0.000 A 
ATOM     13  C   UNL     1       2.017   4.523  20.969  0.00  0.00    +0.000 A 
ATOM     14  C   UNL     1       2.993   4.629  19.959  0.00  0.00    +0.000 A 
ATOM     15  N   UNL     1       3.366   5.598  19.025  0.00  0.00    +0.000 N 
ATOM     16  C   UNL     1       2.854   6.905  18.759  0.00  0.00    +0.000 A 
ATOM     17  C   UNL     1       1.820   7.508  19.486  0.00  0.00    +0.000 A 
ENDROOT
BRANCH   1  18
ATOM     18  N   UNL     1       0.382   9.376  19.991  0.00  0.00    +0.000 N 
ATOM     19  H   UNL     1      -0.415   9.714  19.456  0.00  0.00    +0.000 HD
BRANCH  18  20
ATOM     20  C   UNL     1       0.793  10.265  21.071  0.00  0.00    +0.000 C 
BRANCH  20  21
ATOM     21  C   UNL     1      -0.379  11.121  21.544  0.00  0.00    +0.000 C 
BRANCH  21  23
ATOM     22  C   UNL     1      -0.034   9.481  23.432  0.00  0.00    +0.000 C 
ATOM     23  C   UNL     1      -0.866  10.639  22.911  0.00  0.00    +0.000 C 
ENDBRANCH  21  23
ENDBRANCH  20  21
ENDBRANCH  18  20
ENDBRANCH   1  18
BRANCH   6  24
ATOM     24  C   UNL     1       6.168   5.241  16.425  0.00  0.00    +0.000 C 
ATOM     25  N   UNL     1       7.123   4.767  15.751  0.00  0.00    +0.000 NA
ENDBRANCH   6  24
TORSDOF 5
ENDMDL
MODEL 7
REMARK VINA RESULT:      -7.2      1.413      1.904
REMARK  Name = 
REMARK  6 active torsions:
REMARK  status: ('A' for Active; 'I' for Inactive)
REMARK    1  A    between atoms: C_1  and  C_2
REMARK    2  A    between atoms: C_2  and  C_3
REMARK    3  A    between atoms: C_3  and  C_4
REMARK    4  A    between atoms: C_4  and  N_5
REMARK    5  A    between atoms: N_5  and  C_6
REMARK    6  A    between atoms: C_11  and  C_12
REMARK                            x       y       z     vdW  Elec       q    Type
REMARK                         _______ _______ _______ _____ _____    ______ ____
ROOT
ATOM      1  C   UNL     1       1.417   8.840  19.343  0.00  0.00    +0.000 A 
ATOM      2  C   UNL     1       1.968   9.516  18.251  0.00  0.00    +0.000 A 
ATOM      3  C   UNL     1       2.899   8.900  17.415  0.00  0.00    +0.000 A 
ATOM      4  C   UNL     1       3.320   7.597  17.677  0.00  0.00    +0.000 A 
ATOM      5  C   UNL     1       4.320   6.985  16.808  0.00  0.00    +0.000 A 
ATOM      6  C   UNL     1       4.764   5.743  17.051  0.00  0.00    +0.000 A 
ATOM      7  C   UNL     1       4.253   4.997  18.150  0.00  0.00    +0.000 A 
ATOM      8  N   UNL     1       4.559   3.776  18.528  0.00  0.00    +0.000 NA
ATOM      9  C   UNL     1       3.788   3.521  19.623  0.00  0.00    +0.000 A 
ATOM     10  C   UNL     1       3.745   2.342  20.388  0.00  0.00    +0.000 A 
ATOM     11  C   UNL     1       2.879   2.266  21.479  0.00  0.00    +0.000 A 
ATOM     12  C   UNL     1       2.068   3.345  21.803  0.00  0.00    +0.000 A 
ATOM     13  C   UNL     1       2.096   4.528  21.049  0.00  0.00    +0.000 A 
ATOM     14  C   UNL     1       2.973   4.610  19.950  0.00  0.00    +0.000 A 
ATOM     15  N   UNL     1       3.287   5.572  18.989  0.00  0.00    +0.000 N 
ATOM     16  C   UNL     1       2.797   6.898  18.780  0.00  0.00    +0.000 A 
ATOM     17  C   UNL     1       1.859   7.530  19.606  0.00  0.00    +0.000 A 
ENDROOT
BRANCH   1  18
ATOM     18  N   UNL     1       0.541   9.441  20.256  0.00  0.00    +0.000 N 
ATOM     19  H   UNL     1      -0.276   8.862  20.441  0.00  0.00    +0.000 HD
BRANCH  18  20
ATOM     20  C   UNL     1       0.245  10.863  20.125  0.00  0.00    +0.000 C 
BRANCH  20  21
ATOM     21  C   UNL     1      -1.202  11.076  19.685  0.00  0.00    +0.000 C 
BRANCH  21  23
ATOM     22  C   UNL     1      -1.787  10.088  17.437  0.00  0.00    +0.000 C 
ATOM     23  C   UNL     1      -1.265  11.308  18.175  0.00  0.00    +0.000 C 
ENDBRANCH  21  23
ENDBRANCH  20  21
ENDBRANCH  18  20
ENDBRANCH   1  18
BRANCH   6  24
ATOM     24  C   UNL     1       5.812   5.143  16.129  0.00  0.00    +0.000 C 
ATOM     25  N   UNL     1       6.682   4.645  15.362  0.00  0.00    +0.000 NA
ENDBRANCH   6  24
TORSDOF 5
ENDMDL
MODEL 8
REMARK VINA RESULT:      -7.0      1.074      1.280
REMARK  Name = 
REMARK  6 active torsions:
REMARK  status: ('A' for Active; 'I' for Inactive)
REMARK    1  A    between atoms: C_1  and  C_2
REMARK    2  A    between atoms: C_2  and  C_3
REMARK    3  A    between atoms: C_3  and  C_4
REMARK    4  A    between atoms: C_4  and  N_5
REMARK    5  A    between atoms: N_5  and  C_6
REMARK    6  A    between atoms: C_11  and  C_12
REMARK                            x       y       z     vdW  Elec       q    Type
REMARK                         _______ _______ _______ _____ _____    ______ ____
ROOT
ATOM      1  C   UNL     1       1.000   9.011  19.872  0.00  0.00    +0.000 A 
ATOM      2  C   UNL     1       1.427   9.814  18.811  0.00  0.00    +0.000 A 
ATOM      3  C   UNL     1       2.331   9.338  17.863  0.00  0.00    +0.000 A 
ATOM      4  C   UNL     1       2.850   8.048  17.977  0.00  0.00    +0.000 A 
ATOM      5  C   UNL     1       3.821   7.583  16.991  0.00  0.00    +0.000 A 
ATOM      6  C   UNL     1       4.357   6.359  17.090  0.00  0.00    +0.000 A 
ATOM      7  C   UNL     1       3.974   5.487  18.149  0.00  0.00    +0.000 A 
ATOM      8  N   UNL     1       4.382   4.262  18.393  0.00  0.00    +0.000 NA
ATOM      9  C   UNL     1       3.709   3.862  19.510  0.00  0.00    +0.000 A 
ATOM     10  C   UNL     1       3.795   2.621  20.166  0.00  0.00    +0.000 A 
ATOM     11  C   UNL     1       3.017   2.392  21.301  0.00  0.00    +0.000 A 
ATOM     12  C   UNL     1       2.166   3.382  21.775  0.00  0.00    +0.000 A 
ATOM     13  C   UNL     1       2.067   4.625  21.131  0.00  0.00    +0.000 A 
ATOM     14  C   UNL     1       2.855   4.860  19.988  0.00  0.00    +0.000 A 
ATOM     15  N   UNL     1       3.038   5.921  19.099  0.00  0.00    +0.000 N 
ATOM     16  C   UNL     1       2.453   7.224  19.045  0.00  0.00    +0.000 A 
ATOM     17  C   UNL     1       1.540   7.716  19.985  0.00  0.00    +0.000 A 
ENDROOT
BRANCH   1  18
ATOM     18  N   UNL     1       0.157   9.470  20.892  0.00  0.00    +0.000 N 
ATOM     19  H   UNL     1      -0.400   8.720  21.296  0.00  0.00    +0.000 HD
BRANCH  18  20
ATOM     20  C   UNL     1      -0.576  10.716  20.700  0.00  0.00    +0.000 C 
BRANCH  20  21
ATOM     21  C   UNL     1      -0.109  11.777  21.694  0.00  0.00    +0.000 C 
BRANCH  21  23
ATOM     22  C   UNL     1      -0.096  13.177  19.593  0.00  0.00    +0.000 C 
ATOM     23  C   UNL     1       0.541  12.945  20.951  0.00  0.00    +0.000 C 
ENDBRANCH  21  23
ENDBRANCH  20  21
ENDBRANCH  18  20
ENDBRANCH   1  18
BRANCH   6  24
ATOM     24  C   UNL     1       5.370   5.912  16.050  0.00  0.00    +0.000 C 
ATOM     25  N   UNL     1       6.212   5.541  15.186  0.00  0.00    +0.000 NA
ENDBRANCH   6  24
TORSDOF 5
ENDMDL
MODEL 9
REMARK VINA RESULT:      -6.9      4.544      7.905
REMARK  Name = 
REMARK  6 active torsions:
REMARK  status: ('A' for Active; 'I' for Inactive)
REMARK    1  A    between atoms: C_1  and  C_2
REMARK    2  A    between atoms: C_2  and  C_3
REMARK    3  A    between atoms: C_3  and  C_4
REMARK    4  A    between atoms: C_4  and  N_5
REMARK    5  A    between atoms: N_5  and  C_6
REMARK    6  A    between atoms: C_11  and  C_12
REMARK                            x       y       z     vdW  Elec       q    Type
REMARK                         _______ _______ _______ _____ _____    ______ ____
ROOT
ATOM      1  C   UNL     1       5.467   4.179  13.776  0.00  0.00    +0.000 A 
ATOM      2  C   UNL     1       6.821   4.524  13.776  0.00  0.00    +0.000 A 
ATOM      3  C   UNL     1       7.506   4.760  14.967  0.00  0.00    +0.000 A 
ATOM      4  C   UNL     1       6.835   4.683  16.187  0.00  0.00    +0.000 A 
ATOM      5  C   UNL     1       7.566   4.967  17.419  0.00  0.00    +0.000 A 
ATOM      6  C   UNL     1       6.942   4.928  18.604  0.00  0.00    +0.000 A 
ATOM      7  C   UNL     1       5.561   4.591  18.681  0.00  0.00    +0.000 A 
ATOM      8  N   UNL     1       4.796   4.492  19.745  0.00  0.00    +0.000 NA
ATOM      9  C   UNL     1       3.564   4.133  19.287  0.00  0.00    +0.000 A 
ATOM     10  C   UNL     1       2.401   3.896  20.041  0.00  0.00    +0.000 A 
ATOM     11  C   UNL     1       1.225   3.527  19.389  0.00  0.00    +0.000 A 
ATOM     12  C   UNL     1       1.206   3.395  18.006  0.00  0.00    +0.000 A 
ATOM     13  C   UNL     1       2.357   3.625  17.238  0.00  0.00    +0.000 A 
ATOM     14  C   UNL     1       3.545   4.003  17.894  0.00  0.00    +0.000 A 
ATOM     15  N   UNL     1       4.850   4.310  17.505  0.00  0.00    +0.000 N 
ATOM     16  C   UNL     1       5.468   4.357  16.217  0.00  0.00    +0.000 A 
ATOM     17  C   UNL     1       4.797   4.118  15.012  0.00  0.00    +0.000 A 
ENDROOT
BRANCH   1  18
ATOM     18  N   UNL     1       4.717   4.011  12.605  0.00  0.00    +0.000 N 
ATOM     19  H   UNL     1       3.716   4.088  12.776  0.00  0.00    +0.000 HD
BRANCH  18  20
ATOM     20  C   UNL     1       5.082   2.948  11.675  0.00  0.00    +0.000 C 
BRANCH  20  21
ATOM     21  C   UNL     1       3.944   2.672  10.696  0.00  0.00    +0.000 C 
BRANCH  21  23
ATOM     22  C   UNL     1       2.934   4.240   8.994  0.00  0.00    +0.000 C 
ATOM     23  C   UNL     1       3.122   3.942  10.470  0.00  0.00    +0.000 C 
ENDBRANCH  21  23
ENDBRANCH  20  21
ENDBRANCH  18  20
ENDBRANCH   1  18
BRANCH   6  24
ATOM     24  C   UNL     1       7.733   5.237  19.864  0.00  0.00    +0.000 C 
ATOM     25  N   UNL     1       8.391   5.494  20.909  0.00  0.00    +0.000 NA
ENDBRANCH   6  24
TORSDOF 5
ENDMDL
