MODEL 1
REMARK VINA RESULT:      -8.3      0.000      0.000
REMARK  Name = 
REMARK  10 active torsions:
REMARK  status: ('A' for Active; 'I' for Inactive)
REMARK    1  A    between atoms: C_1  and  N_2
REMARK    2  A    between atoms: N_2  and  C_3
REMARK    3  A    between atoms: N_2  and  C_29
REMARK    4  A    between atoms: C_3  and  C_4
REMARK    5  A    between atoms: C_4  and  C_5
REMARK    6  A    between atoms: C_5  and  N_6
REMARK    7  A    between atoms: N_9  and  C_10
REMARK    8  A    between atoms: C_10  and  C_11
REMARK    9  A    between atoms: C_11  and  N_12
REMARK   10  A    between atoms: N_12  and  C_13
REMARK                            x       y       z     vdW  Elec       q    Type
REMARK                         _______ _______ _______ _____ _____    ______ ____
ROOT
ATOM      1  C   UNL     1       1.499   8.789  20.675  0.00  0.00    +0.000 C 
ENDROOT
BRANCH   1   5
ATOM      2  N   UNL     1      -0.349  10.987  22.998  0.00  0.00    +0.000 NA
ATOM      3  C   UNL     1       0.034   9.572  23.199  0.00  0.00    +0.000 C 
ATOM      4  C   UNL     1      -0.453   8.639  22.066  0.00  0.00    +0.000 C 
ATOM      5  N   UNL     1       0.041   9.055  20.736  0.00  0.00    +0.000 NA
ATOM      6  C   UNL     1      -0.315  10.482  20.524  0.00  0.00    +0.000 C 
ATOM      7  C   UNL     1       0.119  11.430  21.669  0.00  0.00    +0.000 C 
BRANCH   2   8
ATOM      8  C   UNL     1      -1.801  11.198  23.123  0.00  0.00    +0.000 C 
BRANCH   8   9
ATOM      9  C   UNL     1      -2.231  12.656  22.960  0.00  0.00    +0.000 C 
BRANCH   9  10
ATOM     10  C   UNL     1      -3.181  12.811  21.774  0.00  0.00    +0.000 C 
BRANCH  10  12
ATOM     11  C   UNL     1      -4.688  14.628  21.287  0.00  0.00    +0.000 C 
ATOM     12  N   UNL     1      -4.462  13.451  22.129  0.00  0.00    +0.000 NA
BRANCH  12  13
ATOM     13  C   UNL     1      -4.525  13.753  23.586  0.00  0.00    +0.000 C 
ATOM     14  C   UNL     1      -5.257  15.082  23.889  0.00  0.00    +0.000 C 
ATOM     15  C   UNL     1      -6.733  15.038  23.480  0.00  0.00    +0.000 C 
ATOM     16  C   UNL     1      -7.471  13.861  24.117  0.00  0.00    +0.000 C 
ATOM     17  C   UNL     1      -6.736  12.539  23.916  0.00  0.00    +0.000 C 
ATOM     18  C   UNL     1      -5.287  12.663  24.390  0.00  0.00    +0.000 C 
ENDBRANCH  12  13
ENDBRANCH  10  12
ENDBRANCH   9  10
ENDBRANCH   8   9
ENDBRANCH   2   8
ENDBRANCH   1   5
BRANCH   1  19
ATOM     19  C   UNL     1       1.854   7.823  19.558  0.00  0.00    +0.000 C 
BRANCH  19  20
ATOM     20  N   UNL     1       2.931   6.910  19.906  0.00  0.00    +0.000 N 
ATOM     21  H   UNL     1       2.999   6.691  20.898  0.00  0.00    +0.000 HD
BRANCH  20  22
ATOM     22  C   UNL     1       3.125   5.767  19.093  0.00  0.00    +0.000 A 
ATOM     23  C   UNL     1       3.878   5.764  17.889  0.00  0.00    +0.000 A 
ATOM     24  C   UNL     1       4.096   4.527  17.267  0.00  0.00    +0.000 A 
ATOM     25  N   UNL     1       3.544   3.361  17.706  0.00  0.00    +0.000 NA
ATOM     26  C   UNL     1       2.765   3.387  18.789  0.00  0.00    +0.000 A 
ATOM     27  C   UNL     1       2.205   2.182  19.195  0.00  0.00    +0.000 A 
ATOM     28  C   UNL     1       1.366   2.089  20.305  0.00  0.00    +0.000 A 
ATOM     29  C   UNL     1       1.082   3.230  21.041  0.00  0.00    +0.000 A 
ATOM     30  C   UNL     1       1.646   4.450  20.660  0.00  0.00    +0.000 A 
ATOM     31  C   UNL     1       2.496   4.554  19.525  0.00  0.00    +0.000 A 
ATOM     32  C   UNL     1       4.918   4.389  16.009  0.00  0.00    +0.000 C 
ATOM     33  C   UNL     1       5.762   5.610  15.662  0.00  0.00    +0.000 C 
ATOM     34  C   UNL     1       4.931   6.866  15.814  0.00  0.00    +0.000 C 
ATOM     35  C   UNL     1       4.478   7.003  17.263  0.00  0.00    +0.000 C 
ENDBRANCH  20  22
ENDBRANCH  19  20
ENDBRANCH   1  19
TORSDOF 9
ENDMDL
MODEL 2
REMARK VINA RESULT:      -8.2      1.463      3.649
REMARK  Name = 
REMARK  10 active torsions:
REMARK  status: ('A' for Active; 'I' for Inactive)
REMARK    1  A    between atoms: C_1  and  N_2
REMARK    2  A    between atoms: N_2  and  C_3
REMARK    3  A    between atoms: N_2  and  C_29
REMARK    4  A    between atoms: C_3  and  C_4
REMARK    5  A    between atoms: C_4  and  C_5
REMARK    6  A    between atoms: C_5  and  N_6
REMARK    7  A    between atoms: N_9  and  C_10
REMARK    8  A    between atoms: C_10  and  C_11
REMARK    9  A    between atoms: C_11  and  N_12
REMARK   10  A    between atoms: N_12  and  C_13
REMARK                            x       y       z     vdW  Elec       q    Type
REMARK                         _______ _______ _______ _____ _____    ______ ____
ROOT
ATOM      1  C   UNL     1       1.519   9.035  18.923  0.00  0.00    +0.000 C 
ENDROOT
BRANCH   1   5
ATOM      2  N   UNL     1      -0.351  11.794  20.514  0.00  0.00    +0.000 NA
ATOM      3  C   UNL     1      -0.879  10.497  20.035  0.00  0.00    +0.000 C 
ATOM      4  C   UNL     1      -0.543  10.209  18.554  0.00  0.00    +0.000 C 
ATOM      5  N   UNL     1       0.911  10.229  18.287  0.00  0.00    +0.000 NA
ATOM      6  C   UNL     1       1.466  11.516  18.782  0.00  0.00    +0.000 C 
ATOM      7  C   UNL     1       1.102  11.852  20.248  0.00  0.00    +0.000 C 
BRANCH   2   8
ATOM      8  C   UNL     1      -1.028  12.942  19.888  0.00  0.00    +0.000 C 
BRANCH   8   9
ATOM      9  C   UNL     1      -2.546  12.943  20.072  0.00  0.00    +0.000 C 
BRANCH   9  10
ATOM     10  C   UNL     1      -2.992  14.158  20.883  0.00  0.00    +0.000 C 
BRANCH  10  12
ATOM     11  C   UNL     1      -5.386  14.419  20.768  0.00  0.00    +0.000 C 
ATOM     12  N   UNL     1      -4.269  13.952  21.593  0.00  0.00    +0.000 NA
BRANCH  12  13
ATOM     13  C   UNL     1      -4.238  14.575  22.944  0.00  0.00    +0.000 C 
ATOM     14  C   UNL     1      -5.618  14.554  23.643  0.00  0.00    +0.000 C 
ATOM     15  C   UNL     1      -6.102  13.129  23.929  0.00  0.00    +0.000 C 
ATOM     16  C   UNL     1      -5.081  12.326  24.735  0.00  0.00    +0.000 C 
ATOM     17  C   UNL     1      -3.682  12.392  24.126  0.00  0.00    +0.000 C 
ATOM     18  C   UNL     1      -3.266  13.849  23.916  0.00  0.00    +0.000 C 
ENDBRANCH  12  13
ENDBRANCH  10  12
ENDBRANCH   9  10
ENDBRANCH   8   9
ENDBRANCH   2   8
ENDBRANCH   1   5
BRANCH   1  19
ATOM     19  C   UNL     1       2.166   8.116  17.901  0.00  0.00    +0.000 C 
BRANCH  19  20
ATOM     20  N   UNL     1       3.333   7.415  18.413  0.00  0.00    +0.000 N 
ATOM     21  H   UNL     1       3.600   7.671  19.363  0.00  0.00    +0.000 HD
BRANCH  20  22
ATOM     22  C   UNL     1       3.423   6.020  18.191  0.00  0.00    +0.000 A 
ATOM     23  C   UNL     1       2.727   5.045  18.954  0.00  0.00    +0.000 A 
ATOM     24  C   UNL     1       2.808   3.712  18.528  0.00  0.00    +0.000 A 
ATOM     25  N   UNL     1       3.591   3.305  17.489  0.00  0.00    +0.000 NA
ATOM     26  C   UNL     1       4.311   4.216  16.831  0.00  0.00    +0.000 A 
ATOM     27  C   UNL     1       5.111   3.761  15.791  0.00  0.00    +0.000 A 
ATOM     28  C   UNL     1       5.915   4.619  15.041  0.00  0.00    +0.000 A 
ATOM     29  C   UNL     1       5.916   5.975  15.329  0.00  0.00    +0.000 A 
ATOM     30  C   UNL     1       5.107   6.459  16.361  0.00  0.00    +0.000 A 
ATOM     31  C   UNL     1       4.291   5.589  17.136  0.00  0.00    +0.000 A 
ATOM     32  C   UNL     1       2.078   2.593  19.228  0.00  0.00    +0.000 C 
ATOM     33  C   UNL     1       0.995   3.050  20.200  0.00  0.00    +0.000 C 
ATOM     34  C   UNL     1       1.522   4.180  21.058  0.00  0.00    +0.000 C 
ATOM     35  C   UNL     1       1.888   5.364  20.170  0.00  0.00    +0.000 C 
ENDBRANCH  20  22
ENDBRANCH  19  20
ENDBRANCH   1  19
TORSDOF 9
ENDMDL
MODEL 3
REMARK VINA RESULT:      -8.2      1.676      2.510
REMARK  Name = 
REMARK  10 active torsions:
REMARK  status: ('A' for Active; 'I' for Inactive)
REMARK    1  A    between atoms: C_1  and  N_2
REMARK    2  A    between atoms: N_2  and  C_3
REMARK    3  A    between atoms: N_2  and  C_29
REMARK    4  A    between atoms: C_3  and  C_4
REMARK    5  A    between atoms: C_4  and  C_5
REMARK    6  A    between atoms: C_5  and  N_6
REMARK    7  A    between atoms: N_9  and  C_10
REMARK    8  A    between atoms: C_10  and  C_11
REMARK    9  A    between atoms: C_11  and  N_12
REMARK   10  A    between atoms: N_12  and  C_13
REMARK                            x       y       z     vdW  Elec       q    Type
REMARK                         _______ _______ _______ _____ _____    ______ ____
ROOT
ATOM      1  C   UNL     1       2.110   9.474  18.513  0.00  0.00    +0.000 C 
ENDROOT
BRANCH   1   5
ATOM      2  N   UNL     1       0.947  11.650  21.261  0.00  0.00    +0.000 NA
ATOM      3  C   UNL     1       0.791  10.184  21.136  0.00  0.00    +0.000 C 
ATOM      4  C   UNL     1       0.112   9.751  19.816  0.00  0.00    +0.000 C 
ATOM      5  N   UNL     1       0.839  10.230  18.621  0.00  0.00    +0.000 NA
ATOM      6  C   UNL     1       1.026  11.700  18.737  0.00  0.00    +0.000 C 
ATOM      7  C   UNL     1       1.659  12.163  20.072  0.00  0.00    +0.000 C 
BRANCH   2   8
ATOM      8  C   UNL     1      -0.344  12.341  21.419  0.00  0.00    +0.000 C 
BRANCH   8   9
ATOM      9  C   UNL     1      -1.249  11.729  22.487  0.00  0.00    +0.000 C 
BRANCH   9  10
ATOM     10  C   UNL     1      -2.628  12.386  22.469  0.00  0.00    +0.000 C 
BRANCH  10  12
ATOM     11  C   UNL     1      -4.034  12.387  24.427  0.00  0.00    +0.000 C 
ATOM     12  N   UNL     1      -2.958  13.089  23.723  0.00  0.00    +0.000 NA
BRANCH  12  13
ATOM     13  C   UNL     1      -3.264  14.524  23.469  0.00  0.00    +0.000 C 
ATOM     14  C   UNL     1      -3.558  15.310  24.769  0.00  0.00    +0.000 C 
ATOM     15  C   UNL     1      -2.341  15.374  25.697  0.00  0.00    +0.000 C 
ATOM     16  C   UNL     1      -1.110  15.943  24.993  0.00  0.00    +0.000 C 
ATOM     17  C   UNL     1      -0.833  15.251  23.660  0.00  0.00    +0.000 C 
ATOM     18  C   UNL     1      -2.088  15.273  22.784  0.00  0.00    +0.000 C 
ENDBRANCH  12  13
ENDBRANCH  10  12
ENDBRANCH   9  10
ENDBRANCH   8   9
ENDBRANCH   2   8
ENDBRANCH   1   5
BRANCH   1  19
ATOM     19  C   UNL     1       1.873   7.981  18.370  0.00  0.00    +0.000 C 
BRANCH  19  20
ATOM     20  N   UNL     1       2.860   7.171  19.066  0.00  0.00    +0.000 N 
ATOM     21  H   UNL     1       2.747   7.139  20.078  0.00  0.00    +0.000 HD
BRANCH  20  22
ATOM     22  C   UNL     1       3.183   5.903  18.525  0.00  0.00    +0.000 A 
ATOM     23  C   UNL     1       4.071   5.705  17.435  0.00  0.00    +0.000 A 
ATOM     24  C   UNL     1       4.399   4.383  17.101  0.00  0.00    +0.000 A 
ATOM     25  N   UNL     1       3.837   3.298  17.704  0.00  0.00    +0.000 NA
ATOM     26  C   UNL     1       2.937   3.493  18.670  0.00  0.00    +0.000 A 
ATOM     27  C   UNL     1       2.373   2.362  19.247  0.00  0.00    +0.000 A 
ATOM     28  C   UNL     1       1.413   2.444  20.257  0.00  0.00    +0.000 A 
ATOM     29  C   UNL     1       1.010   3.690  20.713  0.00  0.00    +0.000 A 
ATOM     30  C   UNL     1       1.575   4.840  20.158  0.00  0.00    +0.000 A 
ATOM     31  C   UNL     1       2.547   4.766  19.122  0.00  0.00    +0.000 A 
ATOM     32  C   UNL     1       5.365   4.045  15.992  0.00  0.00    +0.000 C 
ATOM     33  C   UNL     1       6.204   5.219  15.499  0.00  0.00    +0.000 C 
ATOM     34  C   UNL     1       5.321   6.434  15.305  0.00  0.00    +0.000 C 
ATOM     35  C   UNL     1       4.699   6.827  16.641  0.00  0.00    +0.000 C 
ENDBRANCH  20  22
ENDBRANCH  19  20
ENDBRANCH   1  19
TORSDOF 9
ENDMDL
MODEL 4
REMARK VINA RESULT:      -8.2      0.841      3.296
REMARK  Name = 
REMARK  10 active torsions:
REMARK  status: ('A' for Active; 'I' for Inactive)
REMARK    1  A    between atoms: C_1  and  N_2
REMARK    2  A    between atoms: N_2  and  C_3
REMARK    3  A    between atoms: N_2  and  C_29
REMARK    4  A    between atoms: C_3  and  C_4
REMARK    5  A    between atoms: C_4  and  C_5
REMARK    6  A    between atoms: C_5  and  N_6
REMARK    7  A    between atoms: N_9  and  C_10
REMARK    8  A    between atoms: C_10  and  C_11
REMARK    9  A    between atoms: C_11  and  N_12
REMARK   10  A    between atoms: N_12  and  C_13
REMARK                            x       y       z     vdW  Elec       q    Type
REMARK                         _______ _______ _______ _____ _____    ______ ____
ROOT
ATOM      1  C   UNL     1       1.563   8.280  20.762  0.00  0.00    +0.000 C 
ENDROOT
BRANCH   1   5
ATOM      2  N   UNL     1       0.093  11.080  22.669  0.00  0.00    +0.000 NA
ATOM      3  C   UNL     1       0.099   9.644  23.025  0.00  0.00    +0.000 C 
ATOM      4  C   UNL     1      -0.490   8.737  21.920  0.00  0.00    +0.000 C 
ATOM      5  N   UNL     1       0.216   8.883  20.629  0.00  0.00    +0.000 NA
ATOM      6  C   UNL     1       0.240  10.324  20.264  0.00  0.00    +0.000 C 
ATOM      7  C   UNL     1       0.780  11.259  21.373  0.00  0.00    +0.000 C 
BRANCH   2   8
ATOM      8  C   UNL     1      -1.269  11.637  22.604  0.00  0.00    +0.000 C 
BRANCH   8   9
ATOM      9  C   UNL     1      -1.324  13.159  22.737  0.00  0.00    +0.000 C 
BRANCH   9  10
ATOM     10  C   UNL     1      -2.196  13.767  21.641  0.00  0.00    +0.000 C 
BRANCH  10  12
ATOM     11  C   UNL     1      -4.100  13.027  20.361  0.00  0.00    +0.000 C 
ATOM     12  N   UNL     1      -3.605  13.333  21.705  0.00  0.00    +0.000 NA
BRANCH  12  13
ATOM     13  C   UNL     1      -4.441  14.334  22.423  0.00  0.00    +0.000 C 
ATOM     14  C   UNL     1      -5.953  14.155  22.146  0.00  0.00    +0.000 C 
ATOM     15  C   UNL     1      -6.486  12.818  22.669  0.00  0.00    +0.000 C 
ATOM     16  C   UNL     1      -6.186  12.621  24.154  0.00  0.00    +0.000 C 
ATOM     17  C   UNL     1      -4.718  12.872  24.488  0.00  0.00    +0.000 C 
ATOM     18  C   UNL     1      -4.286  14.245  23.967  0.00  0.00    +0.000 C 
ENDBRANCH  12  13
ENDBRANCH  10  12
ENDBRANCH   9  10
ENDBRANCH   8   9
ENDBRANCH   2   8
ENDBRANCH   1   5
BRANCH   1  19
ATOM     19  C   UNL     1       2.048   7.678  19.454  0.00  0.00    +0.000 C 
BRANCH  19  20
ATOM     20  N   UNL     1       3.257   6.882  19.598  0.00  0.00    +0.000 N 
ATOM     21  H   UNL     1       3.589   6.784  20.556  0.00  0.00    +0.000 HD
BRANCH  20  22
ATOM     22  C   UNL     1       3.345   5.669  18.874  0.00  0.00    +0.000 A 
ATOM     23  C   UNL     1       2.539   4.529  19.130  0.00  0.00    +0.000 A 
ATOM     24  C   UNL     1       2.645   3.449  18.242  0.00  0.00    +0.000 A 
ATOM     25  N   UNL     1       3.545   3.409  17.218  0.00  0.00    +0.000 NA
ATOM     26  C   UNL     1       4.360   4.449  17.038  0.00  0.00    +0.000 A 
ATOM     27  C   UNL     1       5.276   4.363  15.996  0.00  0.00    +0.000 A 
ATOM     28  C   UNL     1       6.186   5.384  15.721  0.00  0.00    +0.000 A 
ATOM     29  C   UNL     1       6.178   6.531  16.500  0.00  0.00    +0.000 A 
ATOM     30  C   UNL     1       5.256   6.646  17.543  0.00  0.00    +0.000 A 
ATOM     31  C   UNL     1       4.331   5.607  17.836  0.00  0.00    +0.000 A 
ATOM     32  C   UNL     1       1.809   2.201  18.382  0.00  0.00    +0.000 C 
ATOM     33  C   UNL     1       0.622   2.332  19.329  0.00  0.00    +0.000 C 
ATOM     34  C   UNL     1       1.060   3.022  20.604  0.00  0.00    +0.000 C 
ATOM     35  C   UNL     1       1.559   4.425  20.277  0.00  0.00    +0.000 C 
ENDBRANCH  20  22
ENDBRANCH  19  20
ENDBRANCH   1  19
TORSDOF 9
ENDMDL
MODEL 5
REMARK VINA RESULT:      -8.2      0.903      1.193
REMARK  Name = 
REMARK  10 active torsions:
REMARK  status: ('A' for Active; 'I' for Inactive)
REMARK    1  A    between atoms: C_1  and  N_2
REMARK    2  A    between atoms: N_2  and  C_3
REMARK    3  A    between atoms: N_2  and  C_29
REMARK    4  A    between atoms: C_3  and  C_4
REMARK    5  A    between atoms: C_4  and  C_5
REMARK    6  A    between atoms: C_5  and  N_6
REMARK    7  A    between atoms: N_9  and  C_10
REMARK    8  A    between atoms: C_10  and  C_11
REMARK    9  A    between atoms: C_11  and  N_12
REMARK   10  A    between atoms: N_12  and  C_13
REMARK                            x       y       z     vdW  Elec       q    Type
REMARK                         _______ _______ _______ _____ _____    ______ ____
ROOT
ATOM      1  C   UNL     1       1.317   8.933  20.175  0.00  0.00    +0.000 C 
ENDROOT
BRANCH   1   5
ATOM      2  N   UNL     1      -0.171  10.905  22.920  0.00  0.00    +0.000 NA
ATOM      3  C   UNL     1       0.194   9.471  22.927  0.00  0.00    +0.000 C 
ATOM      4  C   UNL     1      -0.454   8.669  21.775  0.00  0.00    +0.000 C 
ATOM      5  N   UNL     1      -0.114   9.213  20.443  0.00  0.00    +0.000 NA
ATOM      6  C   UNL     1      -0.453  10.661  20.422  0.00  0.00    +0.000 C 
ATOM      7  C   UNL     1       0.143  11.477  21.594  0.00  0.00    +0.000 C 
BRANCH   2   8
ATOM      8  C   UNL     1      -1.591  11.126  23.245  0.00  0.00    +0.000 C 
BRANCH   8   9
ATOM      9  C   UNL     1      -2.093  12.529  22.907  0.00  0.00    +0.000 C 
BRANCH   9  10
ATOM     10  C   UNL     1      -3.572  12.675  23.263  0.00  0.00    +0.000 C 
BRANCH  10  12
ATOM     11  C   UNL     1      -3.681  12.705  20.855  0.00  0.00    +0.000 C 
ATOM     12  N   UNL     1      -4.465  12.621  22.090  0.00  0.00    +0.000 NA
BRANCH  12  13
ATOM     13  C   UNL     1      -5.529  13.659  22.179  0.00  0.00    +0.000 C 
ATOM     14  C   UNL     1      -6.724  13.368  21.240  0.00  0.00    +0.000 C 
ATOM     15  C   UNL     1      -7.462  12.081  21.620  0.00  0.00    +0.000 C 
ATOM     16  C   UNL     1      -7.915  12.088  23.080  0.00  0.00    +0.000 C 
ATOM     17  C   UNL     1      -6.784  12.455  24.036  0.00  0.00    +0.000 C 
ATOM     18  C   UNL     1      -6.135  13.773  23.605  0.00  0.00    +0.000 C 
ENDBRANCH  12  13
ENDBRANCH  10  12
ENDBRANCH   9  10
ENDBRANCH   8   9
ENDBRANCH   2   8
ENDBRANCH   1   5
BRANCH   1  19
ATOM     19  C   UNL     1       1.549   7.483  19.789  0.00  0.00    +0.000 C 
BRANCH  19  20
ATOM     20  N   UNL     1       2.953   7.106  19.776  0.00  0.00    +0.000 N 
ATOM     21  H   UNL     1       3.440   7.249  20.660  0.00  0.00    +0.000 HD
BRANCH  20  22
ATOM     22  C   UNL     1       3.310   5.881  19.162  0.00  0.00    +0.000 A 
ATOM     23  C   UNL     1       4.087   5.780  17.978  0.00  0.00    +0.000 A 
ATOM     24  C   UNL     1       4.475   4.496  17.568  0.00  0.00    +0.000 A 
ATOM     25  N   UNL     1       4.064   3.356  18.192  0.00  0.00    +0.000 NA
ATOM     26  C   UNL     1       3.262   3.456  19.253  0.00  0.00    +0.000 A 
ATOM     27  C   UNL     1       2.850   2.271  19.849  0.00  0.00    +0.000 A 
ATOM     28  C   UNL     1       2.001   2.253  20.957  0.00  0.00    +0.000 A 
ATOM     29  C   UNL     1       1.557   3.452  21.494  0.00  0.00    +0.000 A 
ATOM     30  C   UNL     1       1.972   4.657  20.920  0.00  0.00    +0.000 A 
ATOM     31  C   UNL     1       2.829   4.684  19.786  0.00  0.00    +0.000 A 
ATOM     32  C   UNL     1       5.338   4.262  16.353  0.00  0.00    +0.000 C 
ATOM     33  C   UNL     1       6.029   5.509  15.813  0.00  0.00    +0.000 C 
ATOM     34  C   UNL     1       5.042   6.656  15.753  0.00  0.00    +0.000 C 
ATOM     35  C   UNL     1       4.540   6.967  17.159  0.00  0.00    +0.000 C 
ENDBRANCH  20  22
ENDBRANCH  19  20
ENDBRANCH   1  19
TORSDOF 9
ENDMDL
MODEL 6
REMARK VINA RESULT:      -8.2      1.645      2.217
REMARK  Name = 
REMARK  10 active torsions:
REMARK  status: ('A' for Active; 'I' for Inactive)
REMARK    1  A    between atoms: C_1  and  N_2
REMARK    2  A    between atoms: N_2  and  C_3
REMARK    3  A    between atoms: N_2  and  C_29
REMARK    4  A    between atoms: C_3  and  C_4
REMARK    5  A    between atoms: C_4  and  C_5
REMARK    6  A    between atoms: C_5  and  N_6
REMARK    7  A    between atoms: N_9  and  C_10
REMARK    8  A    between atoms: C_10  and  C_11
REMARK    9  A    between atoms: C_11  and  N_12
REMARK   10  A    between atoms: N_12  and  C_13
REMARK                            x       y       z     vdW  Elec       q    Type
REMARK                         _______ _______ _______ _____ _____    ______ ____
ROOT
ATOM      1  C   UNL     1       1.461   9.010  19.229  0.00  0.00    +0.000 C 
ENDROOT
BRANCH   1   5
ATOM      2  N   UNL     1      -0.048  12.166  20.412  0.00  0.00    +0.000 NA
ATOM      3  C   UNL     1      -0.693  10.839  20.295  0.00  0.00    +0.000 C 
ATOM      4  C   UNL     1      -0.580  10.226  18.881  0.00  0.00    +0.000 C 
ATOM      5  N   UNL     1       0.823  10.085  18.434  0.00  0.00    +0.000 NA
ATOM      6  C   UNL     1       1.496  11.404  18.565  0.00  0.00    +0.000 C 
ATOM      7  C   UNL     1       1.354  12.063  19.958  0.00  0.00    +0.000 C 
BRANCH   2   8
ATOM      8  C   UNL     1      -0.756  13.205  19.644  0.00  0.00    +0.000 C 
BRANCH   8   9
ATOM      9  C   UNL     1      -0.964  14.510  20.412  0.00  0.00    +0.000 C 
BRANCH   9  10
ATOM     10  C   UNL     1      -0.691  14.311  21.902  0.00  0.00    +0.000 C 
BRANCH  10  12
ATOM     11  C   UNL     1      -1.396  16.073  23.388  0.00  0.00    +0.000 C 
ATOM     12  N   UNL     1      -1.779  14.803  22.767  0.00  0.00    +0.000 NA
BRANCH  12  13
ATOM     13  C   UNL     1      -2.187  13.767  23.757  0.00  0.00    +0.000 C 
ATOM     14  C   UNL     1      -3.388  14.212  24.625  0.00  0.00    +0.000 C 
ATOM     15  C   UNL     1      -4.659  14.418  23.795  0.00  0.00    +0.000 C 
ATOM     16  C   UNL     1      -5.018  13.178  22.976  0.00  0.00    +0.000 C 
ATOM     17  C   UNL     1      -3.834  12.654  22.169  0.00  0.00    +0.000 C 
ATOM     18  C   UNL     1      -2.626  12.437  23.084  0.00  0.00    +0.000 C 
ENDBRANCH  12  13
ENDBRANCH  10  12
ENDBRANCH   9  10
ENDBRANCH   8   9
ENDBRANCH   2   8
ENDBRANCH   1   5
BRANCH   1  19
ATOM     19  C   UNL     1       2.174   7.998  18.349  0.00  0.00    +0.000 C 
BRANCH  19  20
ATOM     20  N   UNL     1       3.007   7.069  19.094  0.00  0.00    +0.000 N 
ATOM     21  H   UNL     1       2.789   7.005  20.088  0.00  0.00    +0.000 HD
BRANCH  20  22
ATOM     22  C   UNL     1       3.266   5.800  18.523  0.00  0.00    +0.000 A 
ATOM     23  C   UNL     1       4.132   5.585  17.418  0.00  0.00    +0.000 A 
ATOM     24  C   UNL     1       4.396   4.258  17.052  0.00  0.00    +0.000 A 
ATOM     25  N   UNL     1       3.793   3.186  17.639  0.00  0.00    +0.000 NA
ATOM     26  C   UNL     1       2.914   3.400  18.620  0.00  0.00    +0.000 A 
ATOM     27  C   UNL     1       2.305   2.284  19.180  0.00  0.00    +0.000 A 
ATOM     28  C   UNL     1       1.362   2.387  20.203  0.00  0.00    +0.000 A 
ATOM     29  C   UNL     1       1.020   3.639  20.690  0.00  0.00    +0.000 A 
ATOM     30  C   UNL     1       1.631   4.775  20.152  0.00  0.00    +0.000 A 
ATOM     31  C   UNL     1       2.587   4.680  19.104  0.00  0.00    +0.000 A 
ATOM     32  C   UNL     1       5.333   3.901  15.925  0.00  0.00    +0.000 C 
ATOM     33  C   UNL     1       6.219   5.046  15.447  0.00  0.00    +0.000 C 
ATOM     34  C   UNL     1       5.390   6.303  15.289  0.00  0.00    +0.000 C 
ATOM     35  C   UNL     1       4.801   6.695  16.640  0.00  0.00    +0.000 C 
ENDBRANCH  20  22
ENDBRANCH  19  20
ENDBRANCH   1  19
TORSDOF 9
ENDMDL
MODEL 7
REMARK VINA RESULT:      -8.2      1.392      1.911
REMARK  Name = 
REMARK  10 active torsions:
REMARK  status: ('A' for Active; 'I' for Inactive)
REMARK    1  A    between atoms: C_1  and  N_2
REMARK    2  A    between atoms: N_2  and  C_3
REMARK    3  A    between atoms: N_2  and  C_29
REMARK    4  A    between atoms: C_3  and  C_4
REMARK    5  A    between atoms: C_4  and  C_5
REMARK    6  A    between atoms: C_5  and  N_6
REMARK    7  A    between atoms: N_9  and  C_10
REMARK    8  A    between atoms: C_10  and  C_11
REMARK    9  A    between atoms: C_11  and  N_12
REMARK   10  A    between atoms: N_12  and  C_13
REMARK                            x       y       z     vdW  Elec       q    Type
REMARK                         _______ _______ _______ _____ _____    ______ ____
ROOT
ATOM      1  C   UNL     1       1.908   9.422  18.446  0.00  0.00    +0.000 C 
ENDROOT
BRANCH   1   5
ATOM      2  N   UNL     1       0.683  11.603  21.163  0.00  0.00    +0.000 NA
ATOM      3  C   UNL     1       0.878  10.137  21.195  0.00  0.00    +0.000 C 
ATOM      4  C   UNL     1       0.132   9.395  20.062  0.00  0.00    +0.000 C 
ATOM      5  N   UNL     1       0.522   9.872  18.718  0.00  0.00    +0.000 NA
ATOM      6  C   UNL     1       0.354  11.349  18.672  0.00  0.00    +0.000 C 
ATOM      7  C   UNL     1       1.052  12.111  19.825  0.00  0.00    +0.000 C 
BRANCH   2   8
ATOM      8  C   UNL     1      -0.698  11.994  21.492  0.00  0.00    +0.000 C 
BRANCH   8   9
ATOM      9  C   UNL     1      -1.059  11.812  22.966  0.00  0.00    +0.000 C 
BRANCH   9  10
ATOM     10  C   UNL     1      -2.561  11.992  23.182  0.00  0.00    +0.000 C 
BRANCH  10  12
ATOM     11  C   UNL     1      -2.375  14.214  24.096  0.00  0.00    +0.000 C 
ATOM     12  N   UNL     1      -3.007  13.393  23.061  0.00  0.00    +0.000 NA
BRANCH  12  13
ATOM     13  C   UNL     1      -4.493  13.484  23.066  0.00  0.00    +0.000 C 
ATOM     14  C   UNL     1      -5.000  14.946  23.041  0.00  0.00    +0.000 C 
ATOM     15  C   UNL     1      -4.612  15.673  21.749  0.00  0.00    +0.000 C 
ATOM     16  C   UNL     1      -5.080  14.921  20.504  0.00  0.00    +0.000 C 
ATOM     17  C   UNL     1      -4.674  13.450  20.528  0.00  0.00    +0.000 C 
ATOM     18  C   UNL     1      -5.139  12.796  21.831  0.00  0.00    +0.000 C 
ENDBRANCH  12  13
ENDBRANCH  10  12
ENDBRANCH   9  10
ENDBRANCH   8   9
ENDBRANCH   2   8
ENDBRANCH   1   5
BRANCH   1  19
ATOM     19  C   UNL     1       1.961   7.959  18.041  0.00  0.00    +0.000 C 
BRANCH  19  20
ATOM     20  N   UNL     1       2.966   7.196  18.765  0.00  0.00    +0.000 N 
ATOM     21  H   UNL     1       2.885   7.242  19.780  0.00  0.00    +0.000 HD
BRANCH  20  22
ATOM     22  C   UNL     1       3.263   5.888  18.312  0.00  0.00    +0.000 A 
ATOM     23  C   UNL     1       4.182   5.596  17.270  0.00  0.00    +0.000 A 
ATOM     24  C   UNL     1       4.476   4.247  17.027  0.00  0.00    +0.000 A 
ATOM     25  N   UNL     1       3.856   3.218  17.671  0.00  0.00    +0.000 NA
ATOM     26  C   UNL     1       2.929   3.500  18.589  0.00  0.00    +0.000 A 
ATOM     27  C   UNL     1       2.306   2.426  19.211  0.00  0.00    +0.000 A 
ATOM     28  C   UNL     1       1.314   2.599  20.177  0.00  0.00    +0.000 A 
ATOM     29  C   UNL     1       0.938   3.882  20.543  0.00  0.00    +0.000 A 
ATOM     30  C   UNL     1       1.563   4.978  19.943  0.00  0.00    +0.000 A 
ATOM     31  C   UNL     1       2.568   4.810  18.951  0.00  0.00    +0.000 A 
ATOM     32  C   UNL     1       5.468   3.812  15.977  0.00  0.00    +0.000 C 
ATOM     33  C   UNL     1       6.365   4.926  15.448  0.00  0.00    +0.000 C 
ATOM     34  C   UNL     1       5.532   6.155  15.150  0.00  0.00    +0.000 C 
ATOM     35  C   UNL     1       4.877   6.648  16.435  0.00  0.00    +0.000 C 
ENDBRANCH  20  22
ENDBRANCH  19  20
ENDBRANCH   1  19
TORSDOF 9
ENDMDL
MODEL 8
REMARK VINA RESULT:      -8.2      1.296      1.619
REMARK  Name = 
REMARK  10 active torsions:
REMARK  status: ('A' for Active; 'I' for Inactive)
REMARK    1  A    between atoms: C_1  and  N_2
REMARK    2  A    between atoms: N_2  and  C_3
REMARK    3  A    between atoms: N_2  and  C_29
REMARK    4  A    between atoms: C_3  and  C_4
REMARK    5  A    between atoms: C_4  and  C_5
REMARK    6  A    between atoms: C_5  and  N_6
REMARK    7  A    between atoms: N_9  and  C_10
REMARK    8  A    between atoms: C_10  and  C_11
REMARK    9  A    between atoms: C_11  and  N_12
REMARK   10  A    between atoms: N_12  and  C_13
REMARK                            x       y       z     vdW  Elec       q    Type
REMARK                         _______ _______ _______ _____ _____    ______ ____
ROOT
ATOM      1  C   UNL     1       1.488   8.074  20.659  0.00  0.00    +0.000 C 
ENDROOT
BRANCH   1   5
ATOM      2  N   UNL     1       0.316  11.314  21.989  0.00  0.00    +0.000 NA
ATOM      3  C   UNL     1       0.289   9.995  22.659  0.00  0.00    +0.000 C 
ATOM      4  C   UNL     1      -0.434   8.905  21.835  0.00  0.00    +0.000 C 
ATOM      5  N   UNL     1       0.162   8.717  20.495  0.00  0.00    +0.000 NA
ATOM      6  C   UNL     1       0.219  10.036  19.813  0.00  0.00    +0.000 C 
ATOM      7  C   UNL     1       0.895  11.158  20.638  0.00  0.00    +0.000 C 
BRANCH   2   8
ATOM      8  C   UNL     1      -1.020  11.928  21.902  0.00  0.00    +0.000 C 
BRANCH   8   9
ATOM      9  C   UNL     1      -1.402  12.758  23.127  0.00  0.00    +0.000 C 
BRANCH   9  10
ATOM     10  C   UNL     1      -2.194  13.998  22.715  0.00  0.00    +0.000 C 
BRANCH  10  12
ATOM     11  C   UNL     1      -3.246  14.489  24.827  0.00  0.00    +0.000 C 
ATOM     12  N   UNL     1      -3.480  14.134  23.425  0.00  0.00    +0.000 NA
BRANCH  12  13
ATOM     13  C   UNL     1      -4.314  12.912  23.262  0.00  0.00    +0.000 C 
ATOM     14  C   UNL     1      -5.607  12.956  24.111  0.00  0.00    +0.000 C 
ATOM     15  C   UNL     1      -6.551  14.081  23.676  0.00  0.00    +0.000 C 
ATOM     16  C   UNL     1      -6.889  14.004  22.187  0.00  0.00    +0.000 C 
ATOM     17  C   UNL     1      -5.642  13.873  21.316  0.00  0.00    +0.000 C 
ATOM     18  C   UNL     1      -4.784  12.700  21.796  0.00  0.00    +0.000 C 
ENDBRANCH  12  13
ENDBRANCH  10  12
ENDBRANCH   9  10
ENDBRANCH   8   9
ENDBRANCH   2   8
ENDBRANCH   1   5
BRANCH   1  19
ATOM     19  C   UNL     1       2.239   7.977  19.343  0.00  0.00    +0.000 C 
BRANCH  19  20
ATOM     20  N   UNL     1       2.044   6.708  18.659  0.00  0.00    +0.000 N 
ATOM     21  H   UNL     1       1.722   6.789  17.696  0.00  0.00    +0.000 HD
BRANCH  20  22
ATOM     22  C   UNL     1       3.039   5.712  18.807  0.00  0.00    +0.000 A 
ATOM     23  C   UNL     1       4.304   5.748  18.162  0.00  0.00    +0.000 A 
ATOM     24  C   UNL     1       5.236   4.762  18.513  0.00  0.00    +0.000 A 
ATOM     25  N   UNL     1       4.953   3.732  19.360  0.00  0.00    +0.000 NA
ATOM     26  C   UNL     1       3.733   3.656  19.894  0.00  0.00    +0.000 A 
ATOM     27  C   UNL     1       3.476   2.581  20.736  0.00  0.00    +0.000 A 
ATOM     28  C   UNL     1       2.233   2.393  21.342  0.00  0.00    +0.000 A 
ATOM     29  C   UNL     1       1.217   3.307  21.110  0.00  0.00    +0.000 A 
ATOM     30  C   UNL     1       1.458   4.405  20.279  0.00  0.00    +0.000 A 
ATOM     31  C   UNL     1       2.718   4.599  19.651  0.00  0.00    +0.000 A 
ATOM     32  C   UNL     1       6.628   4.721  17.931  0.00  0.00    +0.000 C 
ATOM     33  C   UNL     1       7.056   5.996  17.213  0.00  0.00    +0.000 C 
ATOM     34  C   UNL     1       5.938   6.473  16.309  0.00  0.00    +0.000 C 
ATOM     35  C   UNL     1       4.708   6.796  17.150  0.00  0.00    +0.000 C 
ENDBRANCH  20  22
ENDBRANCH  19  20
ENDBRANCH   1  19
TORSDOF 9
ENDMDL
MODEL 9
REMARK VINA RESULT:      -8.2      1.524      1.710
REMARK  Name = 
REMARK  10 active torsions:
REMARK  status: ('A' for Active; 'I' for Inactive)
REMARK    1  A    between atoms: C_1  and  N_2
REMARK    2  A    between atoms: N_2  and  C_3
REMARK    3  A    between atoms: N_2  and  C_29
REMARK    4  A    between atoms: C_3  and  C_4
REMARK    5  A    between atoms: C_4  and  C_5
REMARK    6  A    between atoms: C_5  and  N_6
REMARK    7  A    between atoms: N_9  and  C_10
REMARK    8  A    between atoms: C_10  and  C_11
REMARK    9  A    between atoms: C_11  and  N_12
REMARK   10  A    between atoms: N_12  and  C_13
REMARK                            x       y       z     vdW  Elec       q    Type
REMARK                         _______ _______ _______ _____ _____    ______ ____
ROOT
ATOM      1  C   UNL     1       1.755   8.129  20.147  0.00  0.00    +0.000 C 
ENDROOT
BRANCH   1   5
ATOM      2  N   UNL     1       0.505  10.857  22.300  0.00  0.00    +0.000 NA
ATOM      3  C   UNL     1       0.582   9.414  22.617  0.00  0.00    +0.000 C 
ATOM      4  C   UNL     1      -0.133   8.520  21.579  0.00  0.00    +0.000 C 
ATOM      5  N   UNL     1       0.391   8.709  20.209  0.00  0.00    +0.000 NA
ATOM      6  C   UNL     1       0.343  10.157  19.879  0.00  0.00    +0.000 C 
ATOM      7  C   UNL     1       1.010  11.078  20.929  0.00  0.00    +0.000 C 
BRANCH   2   8
ATOM      8  C   UNL     1      -0.862  11.389  22.430  0.00  0.00    +0.000 C 
BRANCH   8   9
ATOM      9  C   UNL     1      -0.965  12.897  22.203  0.00  0.00    +0.000 C 
BRANCH   9  10
ATOM     10  C   UNL     1      -1.405  13.608  23.481  0.00  0.00    +0.000 C 
BRANCH  10  12
ATOM     11  C   UNL     1      -1.963  15.953  23.499  0.00  0.00    +0.000 C 
ATOM     12  N   UNL     1      -2.474  14.601  23.261  0.00  0.00    +0.000 NA
BRANCH  12  13
ATOM     13  C   UNL     1      -3.679  14.279  24.074  0.00  0.00    +0.000 C 
ATOM     14  C   UNL     1      -4.838  15.278  23.842  0.00  0.00    +0.000 C 
ATOM     15  C   UNL     1      -5.366  15.231  22.405  0.00  0.00    +0.000 C 
ATOM     16  C   UNL     1      -5.783  13.820  21.991  0.00  0.00    +0.000 C 
ATOM     17  C   UNL     1      -4.698  12.786  22.283  0.00  0.00    +0.000 C 
ATOM     18  C   UNL     1      -4.264  12.877  23.748  0.00  0.00    +0.000 C 
ENDBRANCH  12  13
ENDBRANCH  10  12
ENDBRANCH   9  10
ENDBRANCH   8   9
ENDBRANCH   2   8
ENDBRANCH   1   5
BRANCH   1  19
ATOM     19  C   UNL     1       2.268   8.036  18.721  0.00  0.00    +0.000 C 
BRANCH  19  20
ATOM     20  N   UNL     1       2.170   6.699  18.158  0.00  0.00    +0.000 N 
ATOM     21  H   UNL     1       1.968   6.673  17.159  0.00  0.00    +0.000 HD
BRANCH  20  22
ATOM     22  C   UNL     1       3.148   5.746  18.530  0.00  0.00    +0.000 A 
ATOM     23  C   UNL     1       4.504   5.791  18.111  0.00  0.00    +0.000 A 
ATOM     24  C   UNL     1       5.385   4.856  18.673  0.00  0.00    +0.000 A 
ATOM     25  N   UNL     1       4.984   3.862  19.515  0.00  0.00    +0.000 NA
ATOM     26  C   UNL     1       3.692   3.773  19.835  0.00  0.00    +0.000 A 
ATOM     27  C   UNL     1       3.318   2.736  20.680  0.00  0.00    +0.000 A 
ATOM     28  C   UNL     1       1.995   2.537  21.073  0.00  0.00    +0.000 A 
ATOM     29  C   UNL     1       1.013   3.404  20.619  0.00  0.00    +0.000 A 
ATOM     30  C   UNL     1       1.367   4.464  19.780  0.00  0.00    +0.000 A 
ATOM     31  C   UNL     1       2.713   4.668  19.368  0.00  0.00    +0.000 A 
ATOM     32  C   UNL     1       6.857   4.831  18.341  0.00  0.00    +0.000 C 
ATOM     33  C   UNL     1       7.372   6.081  17.636  0.00  0.00    +0.000 C 
ATOM     34  C   UNL     1       6.417   6.473  16.528  0.00  0.00    +0.000 C 
ATOM     35  C   UNL     1       5.052   6.798  17.126  0.00  0.00    +0.000 C 
ENDBRANCH  20  22
ENDBRANCH  19  20
ENDBRANCH   1  19
TORSDOF 9
ENDMDL
