MODEL 1
REMARK VINA RESULT:      -6.5      0.000      0.000
REMARK  Name = 
REMARK  12 active torsions:
REMARK  status: ('A' for Active; 'I' for Inactive)
REMARK    1  A    between atoms: O_1  and  C_2
REMARK    2  A    between atoms: C_2  and  C_3
REMARK    3  A    between atoms: C_3  and  N_4
REMARK    4  A    between atoms: N_7  and  C_8
REMARK    5  A    between atoms: C_8  and  C_9
REMARK    6  A    between atoms: C_9  and  O_10
REMARK    7  A    between atoms: C_9  and  C_11
REMARK    8  A    between atoms: C_11  and  O_12
REMARK    9  A    between atoms: O_12  and  C_13
REMARK   10  A    between atoms: C_13  and  C_14
REMARK   11  A    between atoms: C_14  and  O_15
REMARK   12  A    between atoms: O_15  and  C_16
REMARK                            x       y       z     vdW  Elec       q    Type
REMARK                         _______ _______ _______ _____ _____    ______ ____
ROOT
ATOM      1  C   UNL     1       6.369   4.475  16.339  0.00  0.00    +0.000 C 
ENDROOT
BRANCH   1   2
ATOM      2  O   UNL     1       5.991   5.397  15.347  0.00  0.00    +0.000 OA
ATOM      3  H   UNL     1       6.084   6.309  15.732  0.00  0.00    +0.000 HD
ENDBRANCH   1   2
BRANCH   1   4
ATOM      4  C   UNL     1       5.116   3.823  16.978  0.00  0.00    +0.000 C 
BRANCH   4   8
ATOM      5  N   UNL     1       2.061   3.444  18.954  0.00  0.00    +0.000 NA
ATOM      6  C   UNL     1       2.292   4.494  17.936  0.00  0.00    +0.000 C 
ATOM      7  C   UNL     1       3.565   5.302  18.242  0.00  0.00    +0.000 C 
ATOM      8  N   UNL     1       4.755   4.426  18.287  0.00  0.00    +0.000 NA
ATOM      9  C   UNL     1       4.554   3.392  19.328  0.00  0.00    +0.000 C 
ATOM     10  C   UNL     1       3.255   2.577  19.096  0.00  0.00    +0.000 C 
BRANCH   5  11
ATOM     11  C   UNL     1       1.583   3.955  20.261  0.00  0.00    +0.000 C 
BRANCH  11  12
ATOM     12  C   UNL     1       1.542   2.862  21.336  0.00  0.00    +0.000 C 
BRANCH  12  13
ATOM     13  O   UNL     1       2.419   3.190  22.383  0.00  0.00    +0.000 OA
ATOM     14  H   UNL     1       1.887   3.204  23.221  0.00  0.00    +0.000 HD
ENDBRANCH  12  13
ENDBRANCH  11  12
ENDBRANCH   5  11
ENDBRANCH   4   8
ENDBRANCH   1   4
BRANCH   1  15
ATOM     15  C   UNL     1       7.239   5.144  17.397  0.00  0.00    +0.000 C 
BRANCH  15  16
ATOM     16  O   UNL     1       7.596   6.442  16.948  0.00  0.00    +0.000 OA
BRANCH  16  17
ATOM     17  C   UNL     1       7.014   7.457  17.745  0.00  0.00    +0.000 C 
BRANCH  17  18
ATOM     18  C   UNL     1       7.778   8.775  17.620  0.00  0.00    +0.000 C 
BRANCH  18  19
ATOM     19  O   UNL     1       8.654   8.966  18.664  0.00  0.00    +0.000 OA
BRANCH  19  20
ATOM     20  C   UNL     1       9.179  10.185  18.954  0.00  0.00    +0.000 A 
ATOM     21  C   UNL     1       9.508  11.127  17.949  0.00  0.00    +0.000 A 
ATOM     22  C   UNL     1      10.070  12.354  18.290  0.00  0.00    +0.000 A 
ATOM     23  C   UNL     1      10.313  12.666  19.627  0.00  0.00    +0.000 A 
ATOM     24 BR   UNL     1      11.093  14.345  20.082  0.00  0.00    +0.000 Br
ATOM     25  C   UNL     1       9.992  11.742  20.627  0.00  0.00    +0.000 A 
ATOM     26  C   UNL     1       9.424  10.509  20.290  0.00  0.00    +0.000 A 
ENDBRANCH  19  20
ENDBRANCH  18  19
ENDBRANCH  17  18
ENDBRANCH  16  17
ENDBRANCH  15  16
ENDBRANCH   1  15
TORSDOF 12
ENDMDL
MODEL 2
REMARK VINA RESULT:      -6.4      0.878      1.351
REMARK  Name = 
REMARK  12 active torsions:
REMARK  status: ('A' for Active; 'I' for Inactive)
REMARK    1  A    between atoms: O_1  and  C_2
REMARK    2  A    between atoms: C_2  and  C_3
REMARK    3  A    between atoms: C_3  and  N_4
REMARK    4  A    between atoms: N_7  and  C_8
REMARK    5  A    between atoms: C_8  and  C_9
REMARK    6  A    between atoms: C_9  and  O_10
REMARK    7  A    between atoms: C_9  and  C_11
REMARK    8  A    between atoms: C_11  and  O_12
REMARK    9  A    between atoms: O_12  and  C_13
REMARK   10  A    between atoms: C_13  and  C_14
REMARK   11  A    between atoms: C_14  and  O_15
REMARK   12  A    between atoms: O_15  and  C_16
REMARK                            x       y       z     vdW  Elec       q    Type
REMARK                         _______ _______ _______ _____ _____    ______ ____
ROOT
ATOM      1  C   UNL     1       6.026   4.827  17.033  0.00  0.00    +0.000 C 
ENDROOT
BRANCH   1   2
ATOM      2  O   UNL     1       6.125   3.537  16.481  0.00  0.00    +0.000 OA
ATOM      3  H   UNL     1       5.282   3.356  15.987  0.00  0.00    +0.000 HD
ENDBRANCH   1   2
BRANCH   1   4
ATOM      4  C   UNL     1       4.592   5.386  16.850  0.00  0.00    +0.000 C 
BRANCH   4   8
ATOM      5  N   UNL     1       2.346   3.703  19.196  0.00  0.00    +0.000 NA
ATOM      6  C   UNL     1       1.913   4.531  18.047  0.00  0.00    +0.000 C 
ATOM      7  C   UNL     1       2.522   5.943  18.113  0.00  0.00    +0.000 C 
ATOM      8  N   UNL     1       4.000   5.886  18.116  0.00  0.00    +0.000 NA
ATOM      9  C   UNL     1       4.449   5.091  19.282  0.00  0.00    +0.000 C 
ATOM     10  C   UNL     1       3.825   3.672  19.294  0.00  0.00    +0.000 C 
BRANCH   5  11
ATOM     11  C   UNL     1       1.708   4.064  20.484  0.00  0.00    +0.000 C 
BRANCH  11  12
ATOM     12  C   UNL     1       1.357   2.831  21.328  0.00  0.00    +0.000 C 
BRANCH  12  13
ATOM     13  O   UNL     1       2.460   2.465  22.118  0.00  0.00    +0.000 OA
ATOM     14  H   UNL     1       2.918   1.715  21.658  0.00  0.00    +0.000 HD
ENDBRANCH  12  13
ENDBRANCH  11  12
ENDBRANCH   5  11
ENDBRANCH   4   8
ENDBRANCH   1   4
BRANCH   1  15
ATOM     15  C   UNL     1       7.061   5.761  16.416  0.00  0.00    +0.000 C 
BRANCH  15  16
ATOM     16  O   UNL     1       7.723   6.467  17.455  0.00  0.00    +0.000 OA
BRANCH  16  17
ATOM     17  C   UNL     1       7.142   7.738  17.685  0.00  0.00    +0.000 C 
BRANCH  17  18
ATOM     18  C   UNL     1       8.187   8.851  17.618  0.00  0.00    +0.000 C 
BRANCH  18  19
ATOM     19  O   UNL     1       8.712   9.143  18.856  0.00  0.00    +0.000 OA
BRANCH  19  20
ATOM     20  C   UNL     1       9.290  10.341  19.134  0.00  0.00    +0.000 A 
ATOM     21  C   UNL     1       9.606  10.741  20.455  0.00  0.00    +0.000 A 
ATOM     22  C   UNL     1      10.173  11.990  20.696  0.00  0.00    +0.000 A 
ATOM     23  C   UNL     1      10.434  12.857  19.636  0.00  0.00    +0.000 A 
ATOM     24 BR   UNL     1      11.200  14.570  19.979  0.00  0.00    +0.000 Br
ATOM     25  C   UNL     1      10.125  12.471  18.328  0.00  0.00    +0.000 A 
ATOM     26  C   UNL     1       9.558  11.217  18.080  0.00  0.00    +0.000 A 
ENDBRANCH  19  20
ENDBRANCH  18  19
ENDBRANCH  17  18
ENDBRANCH  16  17
ENDBRANCH  15  16
ENDBRANCH   1  15
TORSDOF 12
ENDMDL
MODEL 3
REMARK VINA RESULT:      -6.4      3.639      7.003
REMARK  Name = 
REMARK  12 active torsions:
REMARK  status: ('A' for Active; 'I' for Inactive)
REMARK    1  A    between atoms: O_1  and  C_2
REMARK    2  A    between atoms: C_2  and  C_3
REMARK    3  A    between atoms: C_3  and  N_4
REMARK    4  A    between atoms: N_7  and  C_8
REMARK    5  A    between atoms: C_8  and  C_9
REMARK    6  A    between atoms: C_9  and  O_10
REMARK    7  A    between atoms: C_9  and  C_11
REMARK    8  A    between atoms: C_11  and  O_12
REMARK    9  A    between atoms: O_12  and  C_13
REMARK   10  A    between atoms: C_13  and  C_14
REMARK   11  A    between atoms: C_14  and  O_15
REMARK   12  A    between atoms: O_15  and  C_16
REMARK                            x       y       z     vdW  Elec       q    Type
REMARK                         _______ _______ _______ _____ _____    ______ ____
ROOT
ATOM      1  C   UNL     1       2.881   2.391  17.690  0.00  0.00    +0.000 C 
ENDROOT
BRANCH   1   2
ATOM      2  O   UNL     1       3.864   1.471  18.095  0.00  0.00    +0.000 OA
ATOM      3  H   UNL     1       3.399   0.704  18.525  0.00  0.00    +0.000 HD
ENDBRANCH   1   2
BRANCH   1   4
ATOM      4  C   UNL     1       3.541   3.650  17.072  0.00  0.00    +0.000 C 
BRANCH   4   8
ATOM      5  N   UNL     1       5.894   6.441  16.831  0.00  0.00    +0.000 NA
ATOM      6  C   UNL     1       5.471   5.582  15.700  0.00  0.00    +0.000 C 
ATOM      7  C   UNL     1       5.739   4.096  15.995  0.00  0.00    +0.000 C 
ATOM      8  N   UNL     1       5.020   3.655  17.209  0.00  0.00    +0.000 NA
ATOM      9  C   UNL     1       5.460   4.481  18.356  0.00  0.00    +0.000 C 
ATOM     10  C   UNL     1       5.259   5.996  18.094  0.00  0.00    +0.000 C 
BRANCH   5  11
ATOM     11  C   UNL     1       7.361   6.594  16.967  0.00  0.00    +0.000 C 
BRANCH  11  12
ATOM     12  C   UNL     1       7.745   7.771  17.874  0.00  0.00    +0.000 C 
BRANCH  12  13
ATOM     13  O   UNL     1       8.533   7.311  18.942  0.00  0.00    +0.000 OA
ATOM     14  H   UNL     1       8.038   7.508  19.780  0.00  0.00    +0.000 HD
ENDBRANCH  12  13
ENDBRANCH  11  12
ENDBRANCH   5  11
ENDBRANCH   4   8
ENDBRANCH   1   4
BRANCH   1  15
ATOM     15  C   UNL     1       1.975   2.765  18.858  0.00  0.00    +0.000 C 
BRANCH  15  16
ATOM     16  O   UNL     1       2.750   2.817  20.046  0.00  0.00    +0.000 OA
BRANCH  16  17
ATOM     17  C   UNL     1       2.060   3.463  21.100  0.00  0.00    +0.000 C 
BRANCH  17  18
ATOM     18  C   UNL     1       1.407   4.762  20.628  0.00  0.00    +0.000 C 
BRANCH  18  19
ATOM     19  O   UNL     1       2.325   5.776  20.474  0.00  0.00    +0.000 OA
BRANCH  19  20
ATOM     20  C   UNL     1       1.959   7.036  20.120  0.00  0.00    +0.000 A 
ATOM     21  C   UNL     1       1.367   7.938  21.037  0.00  0.00    +0.000 A 
ATOM     22  C   UNL     1       0.981   9.211  20.624  0.00  0.00    +0.000 A 
ATOM     23  C   UNL     1       1.178   9.607  19.302  0.00  0.00    +0.000 A 
ATOM     24 BR   UNL     1       0.637  11.349  18.744  0.00  0.00    +0.000 Br
ATOM     25  C   UNL     1       1.762   8.723  18.389  0.00  0.00    +0.000 A 
ATOM     26  C   UNL     1       2.153   7.445  18.800  0.00  0.00    +0.000 A 
ENDBRANCH  19  20
ENDBRANCH  18  19
ENDBRANCH  17  18
ENDBRANCH  16  17
ENDBRANCH  15  16
ENDBRANCH   1  15
TORSDOF 12
ENDMDL
MODEL 4
REMARK VINA RESULT:      -6.3      1.035      1.196
REMARK  Name = 
REMARK  12 active torsions:
REMARK  status: ('A' for Active; 'I' for Inactive)
REMARK    1  A    between atoms: O_1  and  C_2
REMARK    2  A    between atoms: C_2  and  C_3
REMARK    3  A    between atoms: C_3  and  N_4
REMARK    4  A    between atoms: N_7  and  C_8
REMARK    5  A    between atoms: C_8  and  C_9
REMARK    6  A    between atoms: C_9  and  O_10
REMARK    7  A    between atoms: C_9  and  C_11
REMARK    8  A    between atoms: C_11  and  O_12
REMARK    9  A    between atoms: O_12  and  C_13
REMARK   10  A    between atoms: C_13  and  C_14
REMARK   11  A    between atoms: C_14  and  O_15
REMARK   12  A    between atoms: O_15  and  C_16
REMARK                            x       y       z     vdW  Elec       q    Type
REMARK                         _______ _______ _______ _____ _____    ______ ____
ROOT
ATOM      1  C   UNL     1       5.710   5.158  17.144  0.00  0.00    +0.000 C 
ENDROOT
BRANCH   1   2
ATOM      2  O   UNL     1       6.742   4.213  17.285  0.00  0.00    +0.000 OA
ATOM      3  H   UNL     1       6.605   3.744  18.151  0.00  0.00    +0.000 HD
ENDBRANCH   1   2
BRANCH   1   4
ATOM      4  C   UNL     1       4.391   4.459  16.726  0.00  0.00    +0.000 C 
BRANCH   4   8
ATOM      5  N   UNL     1       2.652   2.389  19.189  0.00  0.00    +0.000 NA
ATOM      6  C   UNL     1       2.271   2.518  17.764  0.00  0.00    +0.000 C 
ATOM      7  C   UNL     1       2.036   3.989  17.377  0.00  0.00    +0.000 C 
ATOM      8  N   UNL     1       3.249   4.802  17.612  0.00  0.00    +0.000 NA
ATOM      9  C   UNL     1       3.621   4.712  19.042  0.00  0.00    +0.000 C 
ATOM     10  C   UNL     1       3.822   3.244  19.500  0.00  0.00    +0.000 C 
BRANCH   5  11
ATOM     11  C   UNL     1       1.536   2.601  20.141  0.00  0.00    +0.000 C 
BRANCH  11  12
ATOM     12  C   UNL     1       2.026   3.029  21.530  0.00  0.00    +0.000 C 
BRANCH  12  13
ATOM     13  O   UNL     1       1.340   2.307  22.521  0.00  0.00    +0.000 OA
ATOM     14  H   UNL     1       0.423   2.138  22.181  0.00  0.00    +0.000 HD
ENDBRANCH  12  13
ENDBRANCH  11  12
ENDBRANCH   5  11
ENDBRANCH   4   8
ENDBRANCH   1   4
BRANCH   1  15
ATOM     15  C   UNL     1       6.099   6.240  16.142  0.00  0.00    +0.000 C 
BRANCH  15  16
ATOM     16  O   UNL     1       7.355   6.785  16.516  0.00  0.00    +0.000 OA
BRANCH  16  17
ATOM     17  C   UNL     1       7.260   7.584  17.681  0.00  0.00    +0.000 C 
BRANCH  17  18
ATOM     18  C   UNL     1       8.185   8.798  17.604  0.00  0.00    +0.000 C 
BRANCH  18  19
ATOM     19  O   UNL     1       8.701   9.134  18.835  0.00  0.00    +0.000 OA
BRANCH  19  20
ATOM     20  C   UNL     1       9.284  10.338  19.071  0.00  0.00    +0.000 A 
ATOM     21  C   UNL     1       9.718  11.188  18.024  0.00  0.00    +0.000 A 
ATOM     22  C   UNL     1      10.336  12.402  18.313  0.00  0.00    +0.000 A 
ATOM     23  C   UNL     1      10.532  12.791  19.637  0.00  0.00    +0.000 A 
ATOM     24 BR   UNL     1      11.389  14.451  20.021  0.00  0.00    +0.000 Br
ATOM     25  C   UNL     1      10.107  11.959  20.678  0.00  0.00    +0.000 A 
ATOM     26  C   UNL     1       9.483  10.740  20.394  0.00  0.00    +0.000 A 
ENDBRANCH  19  20
ENDBRANCH  18  19
ENDBRANCH  17  18
ENDBRANCH  16  17
ENDBRANCH  15  16
ENDBRANCH   1  15
TORSDOF 12
ENDMDL
MODEL 5
REMARK VINA RESULT:      -6.3      1.180      1.698
REMARK  Name = 
REMARK  12 active torsions:
REMARK  status: ('A' for Active; 'I' for Inactive)
REMARK    1  A    between atoms: O_1  and  C_2
REMARK    2  A    between atoms: C_2  and  C_3
REMARK    3  A    between atoms: C_3  and  N_4
REMARK    4  A    between atoms: N_7  and  C_8
REMARK    5  A    between atoms: C_8  and  C_9
REMARK    6  A    between atoms: C_9  and  O_10
REMARK    7  A    between atoms: C_9  and  C_11
REMARK    8  A    between atoms: C_11  and  O_12
REMARK    9  A    between atoms: O_12  and  C_13
REMARK   10  A    between atoms: C_13  and  C_14
REMARK   11  A    between atoms: C_14  and  O_15
REMARK   12  A    between atoms: O_15  and  C_16
REMARK                            x       y       z     vdW  Elec       q    Type
REMARK                         _______ _______ _______ _____ _____    ______ ____
ROOT
ATOM      1  C   UNL     1       5.980   4.485  16.703  0.00  0.00    +0.000 C 
ENDROOT
BRANCH   1   2
ATOM      2  O   UNL     1       6.403   3.522  15.769  0.00  0.00    +0.000 OA
ATOM      3  H   UNL     1       7.132   3.927  15.228  0.00  0.00    +0.000 HD
ENDBRANCH   1   2
BRANCH   1   4
ATOM      4  C   UNL     1       4.434   4.493  16.811  0.00  0.00    +0.000 C 
BRANCH   4   8
ATOM      5  N   UNL     1       1.828   4.577  19.377  0.00  0.00    +0.000 NA
ATOM      6  C   UNL     1       3.273   4.789  19.623  0.00  0.00    +0.000 C 
ATOM      7  C   UNL     1       4.109   3.603  19.112  0.00  0.00    +0.000 C 
ATOM      8  N   UNL     1       3.908   3.394  17.661  0.00  0.00    +0.000 NA
ATOM      9  C   UNL     1       2.472   3.144  17.405  0.00  0.00    +0.000 C 
ATOM     10  C   UNL     1       1.576   4.288  17.945  0.00  0.00    +0.000 C 
BRANCH   5  11
ATOM     11  C   UNL     1       1.198   3.575  20.269  0.00  0.00    +0.000 C 
BRANCH  11  12
ATOM     12  C   UNL     1       1.939   3.436  21.606  0.00  0.00    +0.000 C 
BRANCH  12  13
ATOM     13  O   UNL     1       1.458   2.315  22.302  0.00  0.00    +0.000 OA
ATOM     14  H   UNL     1       0.678   1.965  21.797  0.00  0.00    +0.000 HD
ENDBRANCH  12  13
ENDBRANCH  11  12
ENDBRANCH   5  11
ENDBRANCH   4   8
ENDBRANCH   1   4
BRANCH   1  15
ATOM     15  C   UNL     1       6.511   5.866  16.335  0.00  0.00    +0.000 C 
BRANCH  15  16
ATOM     16  O   UNL     1       7.751   6.075  16.994  0.00  0.00    +0.000 OA
BRANCH  16  17
ATOM     17  C   UNL     1       7.630   6.985  18.072  0.00  0.00    +0.000 C 
BRANCH  17  18
ATOM     18  C   UNL     1       7.979   8.410  17.643  0.00  0.00    +0.000 C 
BRANCH  18  19
ATOM     19  O   UNL     1       8.620   9.109  18.641  0.00  0.00    +0.000 OA
BRANCH  19  20
ATOM     20  C   UNL     1       9.027  10.395  18.477  0.00  0.00    +0.000 A 
ATOM     21  C   UNL     1      10.221  10.890  19.056  0.00  0.00    +0.000 A 
ATOM     22  C   UNL     1      10.586  12.223  18.886  0.00  0.00    +0.000 A 
ATOM     23  C   UNL     1       9.777  13.081  18.142  0.00  0.00    +0.000 A 
ATOM     24 BR   UNL     1      10.281  14.908  17.924  0.00  0.00    +0.000 Br
ATOM     25  C   UNL     1       8.596  12.601  17.566  0.00  0.00    +0.000 A 
ATOM     26  C   UNL     1       8.227  11.263  17.732  0.00  0.00    +0.000 A 
ENDBRANCH  19  20
ENDBRANCH  18  19
ENDBRANCH  17  18
ENDBRANCH  16  17
ENDBRANCH  15  16
ENDBRANCH   1  15
TORSDOF 12
ENDMDL
MODEL 6
REMARK VINA RESULT:      -6.3      0.885      1.347
REMARK  Name = 
REMARK  12 active torsions:
REMARK  status: ('A' for Active; 'I' for Inactive)
REMARK    1  A    between atoms: O_1  and  C_2
REMARK    2  A    between atoms: C_2  and  C_3
REMARK    3  A    between atoms: C_3  and  N_4
REMARK    4  A    between atoms: N_7  and  C_8
REMARK    5  A    between atoms: C_8  and  C_9
REMARK    6  A    between atoms: C_9  and  O_10
REMARK    7  A    between atoms: C_9  and  C_11
REMARK    8  A    between atoms: C_11  and  O_12
REMARK    9  A    between atoms: O_12  and  C_13
REMARK   10  A    between atoms: C_13  and  C_14
REMARK   11  A    between atoms: C_14  and  O_15
REMARK   12  A    between atoms: O_15  and  C_16
REMARK                            x       y       z     vdW  Elec       q    Type
REMARK                         _______ _______ _______ _____ _____    ______ ____
ROOT
ATOM      1  C   UNL     1       6.032   4.685  15.993  0.00  0.00    +0.000 C 
ENDROOT
BRANCH   1   2
ATOM      2  O   UNL     1       5.103   4.385  14.981  0.00  0.00    +0.000 OA
ATOM      3  H   UNL     1       4.719   5.244  14.660  0.00  0.00    +0.000 HD
ENDBRANCH   1   2
BRANCH   1   4
ATOM      4  C   UNL     1       5.497   4.225  17.373  0.00  0.00    +0.000 C 
BRANCH   4   8
ATOM      5  N   UNL     1       3.278   4.237  20.280  0.00  0.00    +0.000 NA
ATOM      6  C   UNL     1       3.822   3.023  19.628  0.00  0.00    +0.000 C 
ATOM      7  C   UNL     1       3.475   2.989  18.130  0.00  0.00    +0.000 C 
ATOM      8  N   UNL     1       4.014   4.175  17.430  0.00  0.00    +0.000 NA
ATOM      9  C   UNL     1       3.449   5.396  18.049  0.00  0.00    +0.000 C 
ATOM     10  C   UNL     1       3.726   5.459  19.573  0.00  0.00    +0.000 C 
BRANCH   5  11
ATOM     11  C   UNL     1       1.810   4.215  20.483  0.00  0.00    +0.000 C 
BRANCH  11  12
ATOM     12  C   UNL     1       1.292   2.818  20.853  0.00  0.00    +0.000 C 
BRANCH  12  13
ATOM     13  O   UNL     1       1.512   2.575  22.219  0.00  0.00    +0.000 OA
ATOM     14  H   UNL     1       0.958   1.791  22.472  0.00  0.00    +0.000 HD
ENDBRANCH  12  13
ENDBRANCH  11  12
ENDBRANCH   5  11
ENDBRANCH   4   8
ENDBRANCH   1   4
BRANCH   1  15
ATOM     15  C   UNL     1       6.362   6.173  16.001  0.00  0.00    +0.000 C 
BRANCH  15  16
ATOM     16  O   UNL     1       7.639   6.360  16.595  0.00  0.00    +0.000 OA
BRANCH  16  17
ATOM     17  C   UNL     1       7.551   7.034  17.837  0.00  0.00    +0.000 C 
BRANCH  17  18
ATOM     18  C   UNL     1       8.019   8.484  17.721  0.00  0.00    +0.000 C 
BRANCH  18  19
ATOM     19  O   UNL     1       8.649   8.918  18.865  0.00  0.00    +0.000 OA
BRANCH  19  20
ATOM     20  C   UNL     1       9.114  10.187  18.999  0.00  0.00    +0.000 A 
ATOM     21  C   UNL     1       9.140  11.102  17.918  0.00  0.00    +0.000 A 
ATOM     22  C   UNL     1       9.652  12.385  18.092  0.00  0.00    +0.000 A 
ATOM     23  C   UNL     1      10.143  12.780  19.336  0.00  0.00    +0.000 A 
ATOM     24 BR   UNL     1      10.852  14.536  19.561  0.00  0.00    +0.000 Br
ATOM     25  C   UNL     1      10.122  11.884  20.410  0.00  0.00    +0.000 A 
ATOM     26  C   UNL     1       9.606  10.595  20.240  0.00  0.00    +0.000 A 
ENDBRANCH  19  20
ENDBRANCH  18  19
ENDBRANCH  17  18
ENDBRANCH  16  17
ENDBRANCH  15  16
ENDBRANCH   1  15
TORSDOF 12
ENDMDL
MODEL 7
REMARK VINA RESULT:      -6.2      1.161      1.543
REMARK  Name = 
REMARK  12 active torsions:
REMARK  status: ('A' for Active; 'I' for Inactive)
REMARK    1  A    between atoms: O_1  and  C_2
REMARK    2  A    between atoms: C_2  and  C_3
REMARK    3  A    between atoms: C_3  and  N_4
REMARK    4  A    between atoms: N_7  and  C_8
REMARK    5  A    between atoms: C_8  and  C_9
REMARK    6  A    between atoms: C_9  and  O_10
REMARK    7  A    between atoms: C_9  and  C_11
REMARK    8  A    between atoms: C_11  and  O_12
REMARK    9  A    between atoms: O_12  and  C_13
REMARK   10  A    between atoms: C_13  and  C_14
REMARK   11  A    between atoms: C_14  and  O_15
REMARK   12  A    between atoms: O_15  and  C_16
REMARK                            x       y       z     vdW  Elec       q    Type
REMARK                         _______ _______ _______ _____ _____    ______ ____
ROOT
ATOM      1  C   UNL     1       5.752   5.396  15.503  0.00  0.00    +0.000 C 
ENDROOT
BRANCH   1   2
ATOM      2  O   UNL     1       5.060   6.618  15.425  0.00  0.00    +0.000 OA
ATOM      3  H   UNL     1       4.449   6.569  14.643  0.00  0.00    +0.000 HD
ENDBRANCH   1   2
BRANCH   1   4
ATOM      4  C   UNL     1       4.938   4.365  16.327  0.00  0.00    +0.000 C 
BRANCH   4   8
ATOM      5  N   UNL     1       3.382   2.749  19.216  0.00  0.00    +0.000 NA
ATOM      6  C   UNL     1       2.688   3.087  17.952  0.00  0.00    +0.000 C 
ATOM      7  C   UNL     1       2.824   4.583  17.620  0.00  0.00    +0.000 C 
ATOM      8  N   UNL     1       4.245   4.973  17.491  0.00  0.00    +0.000 NA
ATOM      9  C   UNL     1       4.944   4.675  18.761  0.00  0.00    +0.000 C 
ATOM     10  C   UNL     1       4.797   3.187  19.171  0.00  0.00    +0.000 C 
BRANCH   5  11
ATOM     11  C   UNL     1       2.689   3.220  20.438  0.00  0.00    +0.000 C 
BRANCH  11  12
ATOM     12  C   UNL     1       1.212   2.805  20.468  0.00  0.00    +0.000 C 
BRANCH  12  13
ATOM     13  O   UNL     1       0.395   3.947  20.425  0.00  0.00    +0.000 OA
ATOM     14  H   UNL     1       0.855   4.617  19.855  0.00  0.00    +0.000 HD
ENDBRANCH  12  13
ENDBRANCH  11  12
ENDBRANCH   5  11
ENDBRANCH   4   8
ENDBRANCH   1   4
BRANCH   1  15
ATOM     15  C   UNL     1       7.142   5.597  16.096  0.00  0.00    +0.000 C 
BRANCH  15  16
ATOM     16  O   UNL     1       7.270   6.944  16.528  0.00  0.00    +0.000 OA
BRANCH  16  17
ATOM     17  C   UNL     1       7.344   7.042  17.939  0.00  0.00    +0.000 C 
BRANCH  17  18
ATOM     18  C   UNL     1       8.443   8.010  18.375  0.00  0.00    +0.000 C 
BRANCH  18  19
ATOM     19  O   UNL     1       8.231   9.283  17.897  0.00  0.00    +0.000 OA
BRANCH  19  20
ATOM     20  C   UNL     1       8.819  10.373  18.456  0.00  0.00    +0.000 A 
ATOM     21  C   UNL     1       9.482  10.318  19.706  0.00  0.00    +0.000 A 
ATOM     22  C   UNL     1      10.047  11.467  20.255  0.00  0.00    +0.000 A 
ATOM     23  C   UNL     1       9.965  12.681  19.575  0.00  0.00    +0.000 A 
ATOM     24 BR   UNL     1      10.733  14.250  20.341  0.00  0.00    +0.000 Br
ATOM     25  C   UNL     1       9.312  12.745  18.340  0.00  0.00    +0.000 A 
ATOM     26  C   UNL     1       8.746  11.594  17.783  0.00  0.00    +0.000 A 
ENDBRANCH  19  20
ENDBRANCH  18  19
ENDBRANCH  17  18
ENDBRANCH  16  17
ENDBRANCH  15  16
ENDBRANCH   1  15
TORSDOF 12
ENDMDL
MODEL 8
REMARK VINA RESULT:      -6.2      3.715      7.047
REMARK  Name = 
REMARK  12 active torsions:
REMARK  status: ('A' for Active; 'I' for Inactive)
REMARK    1  A    between atoms: O_1  and  C_2
REMARK    2  A    between atoms: C_2  and  C_3
REMARK    3  A    between atoms: C_3  and  N_4
REMARK    4  A    between atoms: N_7  and  C_8
REMARK    5  A    between atoms: C_8  and  C_9
REMARK    6  A    between atoms: C_9  and  O_10
REMARK    7  A    between atoms: C_9  and  C_11
REMARK    8  A    between atoms: C_11  and  O_12
REMARK    9  A    between atoms: O_12  and  C_13
REMARK   10  A    between atoms: C_13  and  C_14
REMARK   11  A    between atoms: C_14  and  O_15
REMARK   12  A    between atoms: O_15  and  C_16
REMARK                            x       y       z     vdW  Elec       q    Type
REMARK                         _______ _______ _______ _____ _____    ______ ____
ROOT
ATOM      1  C   UNL     1       2.557   2.715  18.655  0.00  0.00    +0.000 C 
ENDROOT
BRANCH   1   2
ATOM      2  O   UNL     1       1.905   1.537  18.250  0.00  0.00    +0.000 OA
ATOM      3  H   UNL     1       0.957   1.602  18.542  0.00  0.00    +0.000 HD
ENDBRANCH   1   2
BRANCH   1   4
ATOM      4  C   UNL     1       3.868   2.912  17.852  0.00  0.00    +0.000 C 
BRANCH   4   8
ATOM      5  N   UNL     1       6.916   4.854  17.285  0.00  0.00    +0.000 NA
ATOM      6  C   UNL     1       6.131   4.847  18.541  0.00  0.00    +0.000 C 
ATOM      7  C   UNL     1       4.663   5.230  18.287  0.00  0.00    +0.000 C 
ATOM      8  N   UNL     1       4.026   4.295  17.334  0.00  0.00    +0.000 NA
ATOM      9  C   UNL     1       4.779   4.319  16.059  0.00  0.00    +0.000 C 
ATOM     10  C   UNL     1       6.280   3.989  16.263  0.00  0.00    +0.000 C 
BRANCH   5  11
ATOM     11  C   UNL     1       7.219   6.207  16.762  0.00  0.00    +0.000 C 
BRANCH  11  12
ATOM     12  C   UNL     1       7.720   7.157  17.858  0.00  0.00    +0.000 C 
BRANCH  12  13
ATOM     13  O   UNL     1       7.676   8.483  17.395  0.00  0.00    +0.000 OA
ATOM     14  H   UNL     1       7.772   9.075  18.185  0.00  0.00    +0.000 HD
ENDBRANCH  12  13
ENDBRANCH  11  12
ENDBRANCH   5  11
ENDBRANCH   4   8
ENDBRANCH   1   4
BRANCH   1  15
ATOM     15  C   UNL     1       2.832   2.693  20.155  0.00  0.00    +0.000 C 
BRANCH  15  16
ATOM     16  O   UNL     1       1.633   3.008  20.849  0.00  0.00    +0.000 OA
BRANCH  16  17
ATOM     17  C   UNL     1       1.056   4.216  20.386  0.00  0.00    +0.000 C 
BRANCH  17  18
ATOM     18  C   UNL     1       1.798   5.436  20.932  0.00  0.00    +0.000 C 
BRANCH  18  19
ATOM     19  O   UNL     1       2.313   6.221  19.926  0.00  0.00    +0.000 OA
BRANCH  19  20
ATOM     20  C   UNL     1       1.918   7.507  19.738  0.00  0.00    +0.000 A 
ATOM     21  C   UNL     1       1.270   8.256  20.750  0.00  0.00    +0.000 A 
ATOM     22  C   UNL     1       0.857   9.563  20.505  0.00  0.00    +0.000 A 
ATOM     23  C   UNL     1       1.080  10.146  19.258  0.00  0.00    +0.000 A 
ATOM     24 BR   UNL     1       0.501  11.933  18.930  0.00  0.00    +0.000 Br
ATOM     25  C   UNL     1       1.720   9.414  18.252  0.00  0.00    +0.000 A 
ATOM     26  C   UNL     1       2.139   8.102  18.494  0.00  0.00    +0.000 A 
ENDBRANCH  19  20
ENDBRANCH  18  19
ENDBRANCH  17  18
ENDBRANCH  16  17
ENDBRANCH  15  16
ENDBRANCH   1  15
TORSDOF 12
ENDMDL
MODEL 9
REMARK VINA RESULT:      -6.1      1.256      1.672
REMARK  Name = 
REMARK  12 active torsions:
REMARK  status: ('A' for Active; 'I' for Inactive)
REMARK    1  A    between atoms: O_1  and  C_2
REMARK    2  A    between atoms: C_2  and  C_3
REMARK    3  A    between atoms: C_3  and  N_4
REMARK    4  A    between atoms: N_7  and  C_8
REMARK    5  A    between atoms: C_8  and  C_9
REMARK    6  A    between atoms: C_9  and  O_10
REMARK    7  A    between atoms: C_9  and  C_11
REMARK    8  A    between atoms: C_11  and  O_12
REMARK    9  A    between atoms: O_12  and  C_13
REMARK   10  A    between atoms: C_13  and  C_14
REMARK   11  A    between atoms: C_14  and  O_15
REMARK   12  A    between atoms: O_15  and  C_16
REMARK                            x       y       z     vdW  Elec       q    Type
REMARK                         _______ _______ _______ _____ _____    ______ ____
ROOT
ATOM      1  C   UNL     1       6.722   4.976  17.083  0.00  0.00    +0.000 C 
ENDROOT
BRANCH   1   2
ATOM      2  O   UNL     1       7.859   4.322  16.577  0.00  0.00    +0.000 OA
ATOM      3  H   UNL     1       7.832   3.381  16.897  0.00  0.00    +0.000 HD
ENDBRANCH   1   2
BRANCH   1   4
ATOM      4  C   UNL     1       5.520   4.000  17.150  0.00  0.00    +0.000 C 
BRANCH   4   8
ATOM      5  N   UNL     1       2.904   1.933  18.655  0.00  0.00    +0.000 NA
ATOM      6  C   UNL     1       2.713   2.847  17.505  0.00  0.00    +0.000 C 
ATOM      7  C   UNL     1       3.149   4.281  17.850  0.00  0.00    +0.000 C 
ATOM      8  N   UNL     1       4.573   4.324  18.247  0.00  0.00    +0.000 NA
ATOM      9  C   UNL     1       4.772   3.443  19.420  0.00  0.00    +0.000 C 
ATOM     10  C   UNL     1       4.302   1.992  19.145  0.00  0.00    +0.000 C 
BRANCH   5  11
ATOM     11  C   UNL     1       1.920   2.113  19.749  0.00  0.00    +0.000 C 
BRANCH  11  12
ATOM     12  C   UNL     1       0.595   2.704  19.250  0.00  0.00    +0.000 C 
BRANCH  12  13
ATOM     13  O   UNL     1       0.176   3.729  20.114  0.00  0.00    +0.000 OA
ATOM     14  H   UNL     1      -0.796   3.603  20.272  0.00  0.00    +0.000 HD
ENDBRANCH  12  13
ENDBRANCH  11  12
ENDBRANCH   5  11
ENDBRANCH   4   8
ENDBRANCH   1   4
BRANCH   1  15
ATOM     15  C   UNL     1       6.385   6.204  16.243  0.00  0.00    +0.000 C 
BRANCH  15  16
ATOM     16  O   UNL     1       6.456   7.359  17.065  0.00  0.00    +0.000 OA
BRANCH  16  17
ATOM     17  C   UNL     1       7.696   7.452  17.741  0.00  0.00    +0.000 C 
BRANCH  17  18
ATOM     18  C   UNL     1       8.243   8.879  17.714  0.00  0.00    +0.000 C 
BRANCH  18  19
ATOM     19  O   UNL     1       8.638   9.306  18.961  0.00  0.00    +0.000 OA
BRANCH  19  20
ATOM     20  C   UNL     1       9.345  10.452  19.144  0.00  0.00    +0.000 A 
ATOM     21  C   UNL     1       9.793  10.869  20.421  0.00  0.00    +0.000 A 
ATOM     22  C   UNL     1      10.491  12.066  20.566  0.00  0.00    +0.000 A 
ATOM     23  C   UNL     1      10.756  12.862  19.453  0.00  0.00    +0.000 A 
ATOM     24 BR   UNL     1      11.704  14.503  19.665  0.00  0.00    +0.000 Br
ATOM     25  C   UNL     1      10.318  12.458  18.187  0.00  0.00    +0.000 A 
ATOM     26  C   UNL     1       9.619  11.256  18.036  0.00  0.00    +0.000 A 
ENDBRANCH  19  20
ENDBRANCH  18  19
ENDBRANCH  17  18
ENDBRANCH  16  17
ENDBRANCH  15  16
ENDBRANCH   1  15
TORSDOF 12
ENDMDL
