MODEL 1
REMARK VINA RESULT:      -8.1      0.000      0.000
REMARK  Name = 
REMARK  0 active torsions:
REMARK  status: ('A' for Active; 'I' for Inactive)
REMARK                            x       y       z     vdW  Elec       q    Type
REMARK                         _______ _______ _______ _____ _____    ______ ____
ROOT
ATOM      1  C   UNL     1       0.997   3.187  20.005  0.00  0.00    +0.000 A 
ATOM      2  C   UNL     1       1.095   2.489  18.787  0.00  0.00    +0.000 A 
ATOM      3  C   UNL     1       2.122   2.776  17.880  0.00  0.00    +0.000 A 
ATOM      4  C   UNL     1       3.024   3.762  18.231  0.00  0.00    +0.000 A 
ATOM      5  C   UNL     1       4.191   4.292  17.520  0.00  0.00    +0.000 A 
ATOM      6  N   UNL     1       4.590   3.890  16.362  0.00  0.00    +0.000 NA
ATOM      7  N   UNL     1       5.707   4.544  15.907  0.00  0.00    +0.000 N 
ATOM      8  C   UNL     1       6.329   4.308  14.709  0.00  0.00    +0.000 A 
ATOM      9  N   UNL     1       7.373   5.095  14.562  0.00  0.00    +0.000 NA
ATOM     10  N   UNL     1       7.457   5.882  15.688  0.00  0.00    +0.000 NA
ATOM     11  C   UNL     1       6.464   5.546  16.480  0.00  0.00    +0.000 A 
ATOM     12  S   UNL     1       6.130   6.244  18.023  0.00  0.00    +0.000 S 
ATOM     13  C   UNL     1       4.753   5.339  18.419  0.00  0.00    +0.000 A 
ATOM     14  C   UNL     1       4.010   5.421  19.526  0.00  0.00    +0.000 A 
ATOM     15  C   UNL     1       2.935   4.456  19.435  0.00  0.00    +0.000 A 
ATOM     16  C   UNL     1       1.922   4.181  20.337  0.00  0.00    +0.000 A 
ENDROOT
TORSDOF 0
ENDMDL
MODEL 2
REMARK VINA RESULT:      -8.0      1.489      2.382
REMARK  Name = 
REMARK  0 active torsions:
REMARK  status: ('A' for Active; 'I' for Inactive)
REMARK                            x       y       z     vdW  Elec       q    Type
REMARK                         _______ _______ _______ _____ _____    ______ ____
ROOT
ATOM      1  C   UNL     1       0.696   3.261  19.858  0.00  0.00    +0.000 A 
ATOM      2  C   UNL     1       1.210   4.414  20.479  0.00  0.00    +0.000 A 
ATOM      3  C   UNL     1       2.353   5.048  19.975  0.00  0.00    +0.000 A 
ATOM      4  C   UNL     1       2.944   4.495  18.855  0.00  0.00    +0.000 A 
ATOM      5  C   UNL     1       4.129   4.906  18.095  0.00  0.00    +0.000 A 
ATOM      6  N   UNL     1       4.862   5.928  18.375  0.00  0.00    +0.000 NA
ATOM      7  N   UNL     1       5.916   6.102  17.513  0.00  0.00    +0.000 N 
ATOM      8  C   UNL     1       6.844   7.107  17.591  0.00  0.00    +0.000 A 
ATOM      9  N   UNL     1       7.727   7.003  16.621  0.00  0.00    +0.000 NA
ATOM     10  N   UNL     1       7.387   5.900  15.871  0.00  0.00    +0.000 NA
ATOM     11  C   UNL     1       6.310   5.373  16.410  0.00  0.00    +0.000 A 
ATOM     12  S   UNL     1       5.487   3.968  15.837  0.00  0.00    +0.000 S 
ATOM     13  C   UNL     1       4.252   3.908  16.995  0.00  0.00    +0.000 A 
ATOM     14  C   UNL     1       3.263   3.014  17.093  0.00  0.00    +0.000 A 
ATOM     15  C   UNL     1       2.441   3.355  18.235  0.00  0.00    +0.000 A 
ATOM     16  C   UNL     1       1.313   2.721  18.726  0.00  0.00    +0.000 A 
ENDROOT
TORSDOF 0
ENDMDL
MODEL 3
REMARK VINA RESULT:      -7.6      1.061      1.064
REMARK  Name = 
REMARK  0 active torsions:
REMARK  status: ('A' for Active; 'I' for Inactive)
REMARK                            x       y       z     vdW  Elec       q    Type
REMARK                         _______ _______ _______ _____ _____    ______ ____
ROOT
ATOM      1  C   UNL     1       1.087   3.496  20.865  0.00  0.00    +0.000 A 
ATOM      2  C   UNL     1       1.581   2.371  20.179  0.00  0.00    +0.000 A 
ATOM      3  C   UNL     1       2.497   2.520  19.130  0.00  0.00    +0.000 A 
ATOM      4  C   UNL     1       2.887   3.805  18.805  0.00  0.00    +0.000 A 
ATOM      5  C   UNL     1       3.812   4.295  17.778  0.00  0.00    +0.000 A 
ATOM      6  N   UNL     1       4.457   3.544  16.952  0.00  0.00    +0.000 NA
ATOM      7  N   UNL     1       5.260   4.243  16.086  0.00  0.00    +0.000 N 
ATOM      8  C   UNL     1       6.046   3.685  15.111  0.00  0.00    +0.000 A 
ATOM      9  N   UNL     1       6.697   4.615  14.448  0.00  0.00    +0.000 NA
ATOM     10  N   UNL     1       6.343   5.831  14.987  0.00  0.00    +0.000 NA
ATOM     11  C   UNL     1       5.490   5.597  15.959  0.00  0.00    +0.000 A 
ATOM     12  S   UNL     1       4.746   6.799  16.952  0.00  0.00    +0.000 S 
ATOM     13  C   UNL     1       3.813   5.778  17.930  0.00  0.00    +0.000 A 
ATOM     14  C   UNL     1       2.988   6.124  18.923  0.00  0.00    +0.000 A 
ATOM     15  C   UNL     1       2.404   4.922  19.479  0.00  0.00    +0.000 A 
ATOM     16  C   UNL     1       1.498   4.786  20.517  0.00  0.00    +0.000 A 
ENDROOT
TORSDOF 0
ENDMDL
MODEL 4
REMARK VINA RESULT:      -7.5      1.669      1.812
REMARK  Name = 
REMARK  0 active torsions:
REMARK  status: ('A' for Active; 'I' for Inactive)
REMARK                            x       y       z     vdW  Elec       q    Type
REMARK                         _______ _______ _______ _____ _____    ______ ____
ROOT
ATOM      1  C   UNL     1       1.357   3.162  21.493  0.00  0.00    +0.000 A 
ATOM      2  C   UNL     1       2.492   2.342  21.348  0.00  0.00    +0.000 A 
ATOM      3  C   UNL     1       3.523   2.699  20.471  0.00  0.00    +0.000 A 
ATOM      4  C   UNL     1       3.377   3.877  19.763  0.00  0.00    +0.000 A 
ATOM      5  C   UNL     1       4.257   4.522  18.784  0.00  0.00    +0.000 A 
ATOM      6  N   UNL     1       5.394   4.054  18.398  0.00  0.00    +0.000 NA
ATOM      7  N   UNL     1       6.028   4.843  17.472  0.00  0.00    +0.000 N 
ATOM      8  C   UNL     1       7.244   4.571  16.901  0.00  0.00    +0.000 A 
ATOM      9  N   UNL     1       7.582   5.517  16.052  0.00  0.00    +0.000 NA
ATOM     10  N   UNL     1       6.570   6.450  16.049  0.00  0.00    +0.000 NA
ATOM     11  C   UNL     1       5.653   6.039  16.895  0.00  0.00    +0.000 A 
ATOM     12  S   UNL     1       4.178   6.862  17.254  0.00  0.00    +0.000 S 
ATOM     13  C   UNL     1       3.545   5.768  18.382  0.00  0.00    +0.000 A 
ATOM     14  C   UNL     1       2.385   5.850  19.041  0.00  0.00    +0.000 A 
ATOM     15  C   UNL     1       2.258   4.693  19.901  0.00  0.00    +0.000 A 
ATOM     16  C   UNL     1       1.233   4.349  20.765  0.00  0.00    +0.000 A 
ENDROOT
TORSDOF 0
ENDMDL
MODEL 5
REMARK VINA RESULT:      -7.1      3.189      5.830
REMARK  Name = 
REMARK  0 active torsions:
REMARK  status: ('A' for Active; 'I' for Inactive)
REMARK                            x       y       z     vdW  Elec       q    Type
REMARK                         _______ _______ _______ _____ _____    ______ ____
ROOT
ATOM      1  C   UNL     1       7.740   6.970  17.701  0.00  0.00    +0.000 A 
ATOM      2  C   UNL     1       7.938   6.235  18.885  0.00  0.00    +0.000 A 
ATOM      3  C   UNL     1       6.891   5.499  19.452  0.00  0.00    +0.000 A 
ATOM      4  C   UNL     1       5.670   5.526  18.804  0.00  0.00    +0.000 A 
ATOM      5  C   UNL     1       4.397   4.877  19.130  0.00  0.00    +0.000 A 
ATOM      6  N   UNL     1       4.200   4.119  20.154  0.00  0.00    +0.000 NA
ATOM      7  N   UNL     1       2.921   3.632  20.240  0.00  0.00    +0.000 N 
ATOM      8  C   UNL     1       2.453   2.809  21.232  0.00  0.00    +0.000 A 
ATOM      9  N   UNL     1       1.186   2.515  21.034  0.00  0.00    +0.000 NA
ATOM     10  N   UNL     1       0.788   3.156  19.883  0.00  0.00    +0.000 NA
ATOM     11  C   UNL     1       1.827   3.815  19.420  0.00  0.00    +0.000 A 
ATOM     12  S   UNL     1       1.845   4.782  17.990  0.00  0.00    +0.000 S 
ATOM     13  C   UNL     1       3.460   5.290  18.048  0.00  0.00    +0.000 A 
ATOM     14  C   UNL     1       4.099   6.089  17.187  0.00  0.00    +0.000 A 
ATOM     15  C   UNL     1       5.467   6.249  17.633  0.00  0.00    +0.000 A 
ATOM     16  C   UNL     1       6.495   6.981  17.064  0.00  0.00    +0.000 A 
ENDROOT
TORSDOF 0
ENDMDL
MODEL 6
REMARK VINA RESULT:      -7.0      2.861      5.426
REMARK  Name = 
REMARK  0 active torsions:
REMARK  status: ('A' for Active; 'I' for Inactive)
REMARK                            x       y       z     vdW  Elec       q    Type
REMARK                         _______ _______ _______ _____ _____    ______ ____
ROOT
ATOM      1  C   UNL     1       6.125   5.416  14.619  0.00  0.00    +0.000 A 
ATOM      2  C   UNL     1       6.302   4.086  15.042  0.00  0.00    +0.000 A 
ATOM      3  C   UNL     1       5.700   3.624  16.219  0.00  0.00    +0.000 A 
ATOM      4  C   UNL     1       4.934   4.524  16.936  0.00  0.00    +0.000 A 
ATOM      5  C   UNL     1       4.184   4.363  18.185  0.00  0.00    +0.000 A 
ATOM      6  N   UNL     1       4.117   3.271  18.866  0.00  0.00    +0.000 NA
ATOM      7  N   UNL     1       3.353   3.375  20.000  0.00  0.00    +0.000 N 
ATOM      8  C   UNL     1       3.123   2.363  20.896  0.00  0.00    +0.000 A 
ATOM      9  N   UNL     1       2.351   2.775  21.878  0.00  0.00    +0.000 NA
ATOM     10  N   UNL     1       2.052   4.097  21.640  0.00  0.00    +0.000 NA
ATOM     11  C   UNL     1       2.652   4.443  20.523  0.00  0.00    +0.000 A 
ATOM     12  S   UNL     1       2.588   6.005  19.792  0.00  0.00    +0.000 S 
ATOM     13  C   UNL     1       3.565   5.694  18.443  0.00  0.00    +0.000 A 
ATOM     14  C   UNL     1       3.908   6.541  17.467  0.00  0.00    +0.000 A 
ATOM     15  C   UNL     1       4.754   5.841  16.523  0.00  0.00    +0.000 A 
ATOM     16  C   UNL     1       5.346   6.307  15.362  0.00  0.00    +0.000 A 
ENDROOT
TORSDOF 0
ENDMDL
MODEL 7
REMARK VINA RESULT:      -7.0      1.734      2.413
REMARK  Name = 
REMARK  0 active torsions:
REMARK  status: ('A' for Active; 'I' for Inactive)
REMARK                            x       y       z     vdW  Elec       q    Type
REMARK                         _______ _______ _______ _____ _____    ______ ____
ROOT
ATOM      1  C   UNL     1       0.807   2.860  20.918  0.00  0.00    +0.000 A 
ATOM      2  C   UNL     1       1.983   3.016  21.675  0.00  0.00    +0.000 A 
ATOM      3  C   UNL     1       3.196   3.338  21.054  0.00  0.00    +0.000 A 
ATOM      4  C   UNL     1       3.185   3.493  19.681  0.00  0.00    +0.000 A 
ATOM      5  C   UNL     1       4.264   3.824  18.745  0.00  0.00    +0.000 A 
ATOM      6  N   UNL     1       5.489   4.037  19.083  0.00  0.00    +0.000 NA
ATOM      7  N   UNL     1       6.310   4.327  18.022  0.00  0.00    +0.000 N 
ATOM      8  C   UNL     1       7.652   4.590  18.109  0.00  0.00    +0.000 A 
ATOM      9  N   UNL     1       8.158   4.832  16.920  0.00  0.00    +0.000 NA
ATOM     10  N   UNL     1       7.133   4.728  16.007  0.00  0.00    +0.000 NA
ATOM     11  C   UNL     1       6.041   4.428  16.673  0.00  0.00    +0.000 A 
ATOM     12  S   UNL     1       4.477   4.190  15.980  0.00  0.00    +0.000 S 
ATOM     13  C   UNL     1       3.620   3.847  17.401  0.00  0.00    +0.000 A 
ATOM     14  C   UNL     1       2.320   3.563  17.525  0.00  0.00    +0.000 A 
ATOM     15  C   UNL     1       2.026   3.341  18.925  0.00  0.00    +0.000 A 
ATOM     16  C   UNL     1       0.822   3.022  19.530  0.00  0.00    +0.000 A 
ENDROOT
TORSDOF 0
ENDMDL
MODEL 8
REMARK VINA RESULT:      -6.9      2.154      2.651
REMARK  Name = 
REMARK  0 active torsions:
REMARK  status: ('A' for Active; 'I' for Inactive)
REMARK                            x       y       z     vdW  Elec       q    Type
REMARK                         _______ _______ _______ _____ _____    ______ ____
ROOT
ATOM      1  C   UNL     1       0.774   2.637  19.746  0.00  0.00    +0.000 A 
ATOM      2  C   UNL     1       1.802   2.409  20.679  0.00  0.00    +0.000 A 
ATOM      3  C   UNL     1       3.042   3.045  20.545  0.00  0.00    +0.000 A 
ATOM      4  C   UNL     1       3.207   3.897  19.470  0.00  0.00    +0.000 A 
ATOM      5  C   UNL     1       4.359   4.701  19.051  0.00  0.00    +0.000 A 
ATOM      6  N   UNL     1       5.489   4.742  19.670  0.00  0.00    +0.000 NA
ATOM      7  N   UNL     1       6.410   5.570  19.079  0.00  0.00    +0.000 N 
ATOM      8  C   UNL     1       7.684   5.789  19.535  0.00  0.00    +0.000 A 
ATOM      9  N   UNL     1       8.321   6.633  18.753  0.00  0.00    +0.000 NA
ATOM     10  N   UNL     1       7.456   6.993  17.744  0.00  0.00    +0.000 NA
ATOM     11  C   UNL     1       6.325   6.356  17.948  0.00  0.00    +0.000 A 
ATOM     12  S   UNL     1       4.916   6.469  16.956  0.00  0.00    +0.000 S 
ATOM     13  C   UNL     1       3.915   5.406  17.816  0.00  0.00    +0.000 A 
ATOM     14  C   UNL     1       2.655   5.060  17.535  0.00  0.00    +0.000 A 
ATOM     15  C   UNL     1       2.195   4.129  18.543  0.00  0.00    +0.000 A 
ATOM     16  C   UNL     1       0.966   3.504  18.665  0.00  0.00    +0.000 A 
ENDROOT
TORSDOF 0
ENDMDL
MODEL 9
REMARK VINA RESULT:      -6.7      3.115      5.926
REMARK  Name = 
REMARK  0 active torsions:
REMARK  status: ('A' for Active; 'I' for Inactive)
REMARK                            x       y       z     vdW  Elec       q    Type
REMARK                         _______ _______ _______ _____ _____    ______ ____
ROOT
ATOM      1  C   UNL     1       7.387   5.996  16.534  0.00  0.00    +0.000 A 
ATOM      2  C   UNL     1       7.388   6.308  17.906  0.00  0.00    +0.000 A 
ATOM      3  C   UNL     1       6.400   5.795  18.756  0.00  0.00    +0.000 A 
ATOM      4  C   UNL     1       5.436   4.981  18.192  0.00  0.00    +0.000 A 
ATOM      5  C   UNL     1       4.287   4.298  18.793  0.00  0.00    +0.000 A 
ATOM      6  N   UNL     1       3.969   4.355  20.041  0.00  0.00    +0.000 NA
ATOM      7  N   UNL     1       2.848   3.630  20.357  0.00  0.00    +0.000 N 
ATOM      8  C   UNL     1       2.299   3.527  21.609  0.00  0.00    +0.000 A 
ATOM      9  N   UNL     1       1.231   2.760  21.588  0.00  0.00    +0.000 NA
ATOM     10  N   UNL     1       1.053   2.335  20.291  0.00  0.00    +0.000 NA
ATOM     11  C   UNL     1       2.019   2.857  19.569  0.00  0.00    +0.000 A 
ATOM     12  S   UNL     1       2.242   2.625  17.873  0.00  0.00    +0.000 S 
ATOM     13  C   UNL     1       3.632   3.573  17.668  0.00  0.00    +0.000 A 
ATOM     14  C   UNL     1       4.309   3.800  16.538  0.00  0.00    +0.000 A 
ATOM     15  C   UNL     1       5.429   4.668  16.836  0.00  0.00    +0.000 A 
ATOM     16  C   UNL     1       6.401   5.170  15.988  0.00  0.00    +0.000 A 
ENDROOT
TORSDOF 0
ENDMDL
