MODEL 1
REMARK VINA RESULT:      -7.2      0.000      0.000
REMARK  Name = 
REMARK  8 active torsions:
REMARK  status: ('A' for Active; 'I' for Inactive)
REMARK    1  A    between atoms: C_1  and  C_2
REMARK    2  A    between atoms: C_2  and  N_3
REMARK    3  A    between atoms: N_3  and  C_4
REMARK    4  A    between atoms: C_4  and  C_5
REMARK    5  A    between atoms: C_6  and  C_8
REMARK    6  A    between atoms: C_8  and  S_9
REMARK    7  A    between atoms: S_9  and  C_10
REMARK    8  A    between atoms: N_14  and  C_15
REMARK                            x       y       z     vdW  Elec       q    Type
REMARK                         _______ _______ _______ _____ _____    ______ ____
ROOT
ATOM      1  C   UNL     1       6.174   5.215  17.147  0.00  0.00    +0.000 A 
ATOM      2  N   UNL     1       7.482   5.108  17.223  0.00  0.00    +0.000 NA
ATOM      3  N   UNL     1       7.754   4.743  18.515  0.00  0.00    +0.000 NA
ATOM      4  N   UNL     1       6.642   4.649  19.232  0.00  0.00    +0.000 NA
ATOM      5  N   UNL     1       5.620   4.860  18.366  0.00  0.00    +0.000 N 
ENDROOT
BRANCH   5   6
ATOM      6  C   UNL     1       4.270   4.745  18.777  0.00  0.00    +0.000 A 
ATOM      7  C   UNL     1       3.658   5.761  19.530  0.00  0.00    +0.000 A 
ATOM      8  C   UNL     1       2.363   5.587  20.019  0.00  0.00    +0.000 A 
ATOM      9  C   UNL     1       1.679   4.410  19.738  0.00  0.00    +0.000 A 
ATOM     10  F   UNL     1       0.449   4.247  20.249  0.00  0.00    +0.000 F 
ATOM     11  C   UNL     1       2.259   3.414  18.950  0.00  0.00    +0.000 A 
ATOM     12 CL   UNL     1       1.413   1.950  18.629  0.00  0.00    +0.000 Cl
ATOM     13  C   UNL     1       3.548   3.587  18.446  0.00  0.00    +0.000 A 
ENDBRANCH   5   6
BRANCH   1  14
ATOM     14  S   UNL     1       5.298   5.940  15.835  0.00  0.00    +0.000 S 
BRANCH  14  15
ATOM     15  C   UNL     1       5.167   4.538  14.701  0.00  0.00    +0.000 C 
BRANCH  15  17
ATOM     16  N   UNL     1       6.172   3.548  12.651  0.00  0.00    +0.000 N 
ATOM     17  C   UNL     1       6.333   4.459  13.714  0.00  0.00    +0.000 C 
ATOM     18  O   UNL     1       7.366   5.114  13.851  0.00  0.00    +0.000 OA
BRANCH  16  20
ATOM     19  C   UNL     1       7.420   2.119  11.013  0.00  0.00    +0.000 C 
ATOM     20  C   UNL     1       7.254   3.488  11.660  0.00  0.00    +0.000 C 
ENDBRANCH  16  20
BRANCH  16  21
ATOM     21  C   UNL     1       4.871   2.926  12.365  0.00  0.00    +0.000 C 
ATOM     22  C   UNL     1       4.096   3.460  11.170  0.00  0.00    +0.000 C 
ENDBRANCH  16  21
ENDBRANCH  15  17
ENDBRANCH  14  15
ENDBRANCH   1  14
TORSDOF 6
ENDMDL
MODEL 2
REMARK VINA RESULT:      -7.0      1.098      1.507
REMARK  Name = 
REMARK  8 active torsions:
REMARK  status: ('A' for Active; 'I' for Inactive)
REMARK    1  A    between atoms: C_1  and  C_2
REMARK    2  A    between atoms: C_2  and  N_3
REMARK    3  A    between atoms: N_3  and  C_4
REMARK    4  A    between atoms: C_4  and  C_5
REMARK    5  A    between atoms: C_6  and  C_8
REMARK    6  A    between atoms: C_8  and  S_9
REMARK    7  A    between atoms: S_9  and  C_10
REMARK    8  A    between atoms: N_14  and  C_15
REMARK                            x       y       z     vdW  Elec       q    Type
REMARK                         _______ _______ _______ _____ _____    ______ ____
ROOT
ATOM      1  C   UNL     1       6.321   5.359  17.208  0.00  0.00    +0.000 A 
ATOM      2  N   UNL     1       7.630   5.432  17.300  0.00  0.00    +0.000 NA
ATOM      3  N   UNL     1       7.938   5.074  18.585  0.00  0.00    +0.000 NA
ATOM      4  N   UNL     1       6.843   4.808  19.284  0.00  0.00    +0.000 NA
ATOM      5  N   UNL     1       5.809   4.898  18.411  0.00  0.00    +0.000 N 
ENDROOT
BRANCH   5   6
ATOM      6  C   UNL     1       4.484   4.586  18.800  0.00  0.00    +0.000 A 
ATOM      7  C   UNL     1       3.873   3.393  18.378  0.00  0.00    +0.000 A 
ATOM      8  C   UNL     1       2.533   3.149  18.678  0.00  0.00    +0.000 A 
ATOM      9  C   UNL     1       1.816   4.086  19.413  0.00  0.00    +0.000 A 
ATOM     10  F   UNL     1       0.518   3.850  19.660  0.00  0.00    +0.000 F 
ATOM     11  C   UNL     1       2.426   5.253  19.879  0.00  0.00    +0.000 A 
ATOM     12 CL   UNL     1       1.523   6.418  20.767  0.00  0.00    +0.000 Cl
ATOM     13  C   UNL     1       3.770   5.497  19.595  0.00  0.00    +0.000 A 
ENDBRANCH   5   6
BRANCH   1  14
ATOM     14  S   UNL     1       5.366   5.991  15.903  0.00  0.00    +0.000 S 
BRANCH  14  15
ATOM     15  C   UNL     1       5.265   4.542  14.827  0.00  0.00    +0.000 C 
BRANCH  15  17
ATOM     16  N   UNL     1       6.201   3.578  12.732  0.00  0.00    +0.000 N 
ATOM     17  C   UNL     1       6.390   4.488  13.792  0.00  0.00    +0.000 C 
ATOM     18  O   UNL     1       7.415   5.162  13.889  0.00  0.00    +0.000 OA
BRANCH  16  20
ATOM     19  C   UNL     1       7.442   2.167  11.074  0.00  0.00    +0.000 C 
ATOM     20  C   UNL     1       7.242   3.542  11.697  0.00  0.00    +0.000 C 
ENDBRANCH  16  20
BRANCH  16  21
ATOM     21  C   UNL     1       4.901   2.933  12.498  0.00  0.00    +0.000 C 
ATOM     22  C   UNL     1       4.088   3.427  11.312  0.00  0.00    +0.000 C 
ENDBRANCH  16  21
ENDBRANCH  15  17
ENDBRANCH  14  15
ENDBRANCH   1  14
TORSDOF 6
ENDMDL
MODEL 3
REMARK VINA RESULT:      -7.0      3.948      6.472
REMARK  Name = 
REMARK  8 active torsions:
REMARK  status: ('A' for Active; 'I' for Inactive)
REMARK    1  A    between atoms: C_1  and  C_2
REMARK    2  A    between atoms: C_2  and  N_3
REMARK    3  A    between atoms: N_3  and  C_4
REMARK    4  A    between atoms: C_4  and  C_5
REMARK    5  A    between atoms: C_6  and  C_8
REMARK    6  A    between atoms: C_8  and  S_9
REMARK    7  A    between atoms: S_9  and  C_10
REMARK    8  A    between atoms: N_14  and  C_15
REMARK                            x       y       z     vdW  Elec       q    Type
REMARK                         _______ _______ _______ _____ _____    ______ ____
ROOT
ATOM      1  C   UNL     1       5.240   6.008  17.885  0.00  0.00    +0.000 A 
ATOM      2  N   UNL     1       6.478   6.399  18.093  0.00  0.00    +0.000 NA
ATOM      3  N   UNL     1       7.023   5.481  18.951  0.00  0.00    +0.000 NA
ATOM      4  N   UNL     1       6.137   4.554  19.288  0.00  0.00    +0.000 NA
ATOM      5  N   UNL     1       5.024   4.816  18.559  0.00  0.00    +0.000 N 
ENDROOT
BRANCH   5   6
ATOM      6  C   UNL     1       3.895   3.963  18.602  0.00  0.00    +0.000 A 
ATOM      7  C   UNL     1       3.407   3.358  17.433  0.00  0.00    +0.000 A 
ATOM      8  C   UNL     1       2.231   2.607  17.471  0.00  0.00    +0.000 A 
ATOM      9  C   UNL     1       1.561   2.448  18.679  0.00  0.00    +0.000 A 
ATOM     10  F   UNL     1       0.413   1.754  18.688  0.00  0.00    +0.000 F 
ATOM     11  C   UNL     1       2.063   3.005  19.856  0.00  0.00    +0.000 A 
ATOM     12 CL   UNL     1       1.213   2.825  21.342  0.00  0.00    +0.000 Cl
ATOM     13  C   UNL     1       3.246   3.745  19.828  0.00  0.00    +0.000 A 
ENDBRANCH   5   6
BRANCH   1  14
ATOM     14  S   UNL     1       3.998   6.954  17.125  0.00  0.00    +0.000 S 
BRANCH  14  15
ATOM     15  C   UNL     1       2.926   7.301  18.539  0.00  0.00    +0.000 C 
BRANCH  15  17
ATOM     16  N   UNL     1       1.330   8.960  19.484  0.00  0.00    +0.000 N 
ATOM     17  C   UNL     1       2.161   8.618  18.398  0.00  0.00    +0.000 C 
ATOM     18  O   UNL     1       2.227   9.321  17.390  0.00  0.00    +0.000 OA
BRANCH  16  20
ATOM     19  C   UNL     1      -0.890  10.106  19.281  0.00  0.00    +0.000 C 
ATOM     20  C   UNL     1       0.622  10.244  19.398  0.00  0.00    +0.000 C 
ENDBRANCH  16  20
BRANCH  16  21
ATOM     21  C   UNL     1       1.407   8.241  20.764  0.00  0.00    +0.000 C 
ATOM     22  C   UNL     1       1.377   9.081  22.032  0.00  0.00    +0.000 C 
ENDBRANCH  16  21
ENDBRANCH  15  17
ENDBRANCH  14  15
ENDBRANCH   1  14
TORSDOF 6
ENDMDL
MODEL 4
REMARK VINA RESULT:      -6.9      3.969      6.899
REMARK  Name = 
REMARK  8 active torsions:
REMARK  status: ('A' for Active; 'I' for Inactive)
REMARK    1  A    between atoms: C_1  and  C_2
REMARK    2  A    between atoms: C_2  and  N_3
REMARK    3  A    between atoms: N_3  and  C_4
REMARK    4  A    between atoms: C_4  and  C_5
REMARK    5  A    between atoms: C_6  and  C_8
REMARK    6  A    between atoms: C_8  and  S_9
REMARK    7  A    between atoms: S_9  and  C_10
REMARK    8  A    between atoms: N_14  and  C_15
REMARK                            x       y       z     vdW  Elec       q    Type
REMARK                         _______ _______ _______ _____ _____    ______ ____
ROOT
ATOM      1  C   UNL     1       5.426   5.855  18.208  0.00  0.00    +0.000 A 
ATOM      2  N   UNL     1       5.837   5.817  19.456  0.00  0.00    +0.000 NA
ATOM      3  N   UNL     1       6.855   4.902  19.490  0.00  0.00    +0.000 NA
ATOM      4  N   UNL     1       7.057   4.364  18.294  0.00  0.00    +0.000 NA
ATOM      5  N   UNL     1       6.221   5.013  17.446  0.00  0.00    +0.000 N 
ENDROOT
BRANCH   5   6
ATOM      6  C   UNL     1       6.234   4.753  16.054  0.00  0.00    +0.000 A 
ATOM      7  C   UNL     1       5.315   3.858  15.482  0.00  0.00    +0.000 A 
ATOM      8  C   UNL     1       5.408   3.529  14.129  0.00  0.00    +0.000 A 
ATOM      9  C   UNL     1       6.404   4.108  13.352  0.00  0.00    +0.000 A 
ATOM     10  F   UNL     1       6.499   3.751  12.062  0.00  0.00    +0.000 F 
ATOM     11  C   UNL     1       7.293   5.036  13.899  0.00  0.00    +0.000 A 
ATOM     12 CL   UNL     1       8.538   5.730  12.934  0.00  0.00    +0.000 Cl
ATOM     13  C   UNL     1       7.197   5.381  15.247  0.00  0.00    +0.000 A 
ENDBRANCH   5   6
BRANCH   1  14
ATOM     14  S   UNL     1       3.967   6.611  17.650  0.00  0.00    +0.000 S 
BRANCH  14  15
ATOM     15  C   UNL     1       2.769   5.288  17.940  0.00  0.00    +0.000 C 
BRANCH  15  17
ATOM     16  N   UNL     1       2.699   3.845  19.966  0.00  0.00    +0.000 N 
ATOM     17  C   UNL     1       2.420   5.114  19.419  0.00  0.00    +0.000 C 
ATOM     18  O   UNL     1       1.893   6.003  20.087  0.00  0.00    +0.000 OA
BRANCH  16  20
ATOM     19  C   UNL     1       1.312   2.663  21.687  0.00  0.00    +0.000 C 
ATOM     20  C   UNL     1       2.421   3.665  21.397  0.00  0.00    +0.000 C 
ENDBRANCH  16  20
BRANCH  16  21
ATOM     21  C   UNL     1       3.512   2.859  19.240  0.00  0.00    +0.000 C 
ATOM     22  C   UNL     1       4.547   2.089  20.045  0.00  0.00    +0.000 C 
ENDBRANCH  16  21
ENDBRANCH  15  17
ENDBRANCH  14  15
ENDBRANCH   1  14
TORSDOF 6
ENDMDL
MODEL 5
REMARK VINA RESULT:      -6.8      3.808      6.515
REMARK  Name = 
REMARK  8 active torsions:
REMARK  status: ('A' for Active; 'I' for Inactive)
REMARK    1  A    between atoms: C_1  and  C_2
REMARK    2  A    between atoms: C_2  and  N_3
REMARK    3  A    between atoms: N_3  and  C_4
REMARK    4  A    between atoms: C_4  and  C_5
REMARK    5  A    between atoms: C_6  and  C_8
REMARK    6  A    between atoms: C_8  and  S_9
REMARK    7  A    between atoms: S_9  and  C_10
REMARK    8  A    between atoms: N_14  and  C_15
REMARK                            x       y       z     vdW  Elec       q    Type
REMARK                         _______ _______ _______ _____ _____    ______ ____
ROOT
ATOM      1  C   UNL     1       5.189   5.827  18.307  0.00  0.00    +0.000 A 
ATOM      2  N   UNL     1       5.505   5.746  19.580  0.00  0.00    +0.000 NA
ATOM      3  N   UNL     1       6.488   4.795  19.663  0.00  0.00    +0.000 NA
ATOM      4  N   UNL     1       6.758   4.280  18.471  0.00  0.00    +0.000 NA
ATOM      5  N   UNL     1       6.009   4.978  17.582  0.00  0.00    +0.000 N 
ENDROOT
BRANCH   5   6
ATOM      6  C   UNL     1       6.115   4.751  16.189  0.00  0.00    +0.000 A 
ATOM      7  C   UNL     1       5.245   3.861  15.537  0.00  0.00    +0.000 A 
ATOM      8  C   UNL     1       5.429   3.565  14.186  0.00  0.00    +0.000 A 
ATOM      9  C   UNL     1       6.467   4.172  13.489  0.00  0.00    +0.000 A 
ATOM     10  F   UNL     1       6.650   3.846  12.200  0.00  0.00    +0.000 F 
ATOM     11  C   UNL     1       7.308   5.095  14.114  0.00  0.00    +0.000 A 
ATOM     12 CL   UNL     1       8.606   5.822  13.249  0.00  0.00    +0.000 Cl
ATOM     13  C   UNL     1       7.122   5.407  15.461  0.00  0.00    +0.000 A 
ENDBRANCH   5   6
BRANCH   1  14
ATOM     14  S   UNL     1       3.799   6.648  17.665  0.00  0.00    +0.000 S 
BRANCH  14  15
ATOM     15  C   UNL     1       2.468   5.786  18.534  0.00  0.00    +0.000 C 
BRANCH  15  17
ATOM     16  N   UNL     1       2.537   3.407  19.261  0.00  0.00    +0.000 N 
ATOM     17  C   UNL     1       2.389   4.300  18.180  0.00  0.00    +0.000 C 
ATOM     18  O   UNL     1       2.247   3.898  17.026  0.00  0.00    +0.000 OA
BRANCH  16  20
ATOM     19  C   UNL     1       3.713   1.332  18.490  0.00  0.00    +0.000 C 
ATOM     20  C   UNL     1       2.415   1.975  18.959  0.00  0.00    +0.000 C 
ENDBRANCH  16  20
BRANCH  16  21
ATOM     21  C   UNL     1       2.496   3.876  20.654  0.00  0.00    +0.000 C 
ATOM     22  C   UNL     1       2.388   2.815  21.738  0.00  0.00    +0.000 C 
ENDBRANCH  16  21
ENDBRANCH  15  17
ENDBRANCH  14  15
ENDBRANCH   1  14
TORSDOF 6
ENDMDL
MODEL 6
REMARK VINA RESULT:      -6.7      2.995      4.587
REMARK  Name = 
REMARK  8 active torsions:
REMARK  status: ('A' for Active; 'I' for Inactive)
REMARK    1  A    between atoms: C_1  and  C_2
REMARK    2  A    between atoms: C_2  and  N_3
REMARK    3  A    between atoms: N_3  and  C_4
REMARK    4  A    between atoms: C_4  and  C_5
REMARK    5  A    between atoms: C_6  and  C_8
REMARK    6  A    between atoms: C_8  and  S_9
REMARK    7  A    between atoms: S_9  and  C_10
REMARK    8  A    between atoms: N_14  and  C_15
REMARK                            x       y       z     vdW  Elec       q    Type
REMARK                         _______ _______ _______ _____ _____    ______ ____
ROOT
ATOM      1  C   UNL     1       2.459   7.268  19.094  0.00  0.00    +0.000 A 
ATOM      2  N   UNL     1       1.922   8.137  19.922  0.00  0.00    +0.000 NA
ATOM      3  N   UNL     1       1.340   7.398  20.917  0.00  0.00    +0.000 NA
ATOM      4  N   UNL     1       1.489   6.098  20.699  0.00  0.00    +0.000 NA
ATOM      5  N   UNL     1       2.269   5.990  19.595  0.00  0.00    +0.000 N 
ENDROOT
BRANCH   5   6
ATOM      6  C   UNL     1       2.709   4.731  19.122  0.00  0.00    +0.000 A 
ATOM      7  C   UNL     1       2.253   4.226  17.893  0.00  0.00    +0.000 A 
ATOM      8  C   UNL     1       2.609   2.938  17.489  0.00  0.00    +0.000 A 
ATOM      9  C   UNL     1       3.433   2.170  18.305  0.00  0.00    +0.000 A 
ATOM     10  F   UNL     1       3.733   0.921  17.916  0.00  0.00    +0.000 F 
ATOM     11  C   UNL     1       3.931   2.680  19.505  0.00  0.00    +0.000 A 
ATOM     12 CL   UNL     1       4.929   1.712  20.520  0.00  0.00    +0.000 Cl
ATOM     13  C   UNL     1       3.591   3.971  19.908  0.00  0.00    +0.000 A 
ENDBRANCH   5   6
BRANCH   1  14
ATOM     14  S   UNL     1       3.061   7.630  17.506  0.00  0.00    +0.000 S 
BRANCH  14  15
ATOM     15  C   UNL     1       4.785   7.110  17.673  0.00  0.00    +0.000 C 
BRANCH  15  17
ATOM     16  N   UNL     1       6.342   5.539  16.531  0.00  0.00    +0.000 N 
ATOM     17  C   UNL     1       5.365   6.544  16.376  0.00  0.00    +0.000 C 
ATOM     18  O   UNL     1       5.037   6.958  15.264  0.00  0.00    +0.000 OA
BRANCH  16  20
ATOM     19  C   UNL     1       6.056   3.776  14.773  0.00  0.00    +0.000 C 
ATOM     20  C   UNL     1       6.880   4.942  15.302  0.00  0.00    +0.000 C 
ENDBRANCH  16  20
BRANCH  16  21
ATOM     21  C   UNL     1       6.582   4.899  17.833  0.00  0.00    +0.000 C 
ATOM     22  C   UNL     1       7.762   5.406  18.646  0.00  0.00    +0.000 C 
ENDBRANCH  16  21
ENDBRANCH  15  17
ENDBRANCH  14  15
ENDBRANCH   1  14
TORSDOF 6
ENDMDL
MODEL 7
REMARK VINA RESULT:      -6.7      4.458      7.354
REMARK  Name = 
REMARK  8 active torsions:
REMARK  status: ('A' for Active; 'I' for Inactive)
REMARK    1  A    between atoms: C_1  and  C_2
REMARK    2  A    between atoms: C_2  and  N_3
REMARK    3  A    between atoms: N_3  and  C_4
REMARK    4  A    between atoms: C_4  and  C_5
REMARK    5  A    between atoms: C_6  and  C_8
REMARK    6  A    between atoms: C_8  and  S_9
REMARK    7  A    between atoms: S_9  and  C_10
REMARK    8  A    between atoms: N_14  and  C_15
REMARK                            x       y       z     vdW  Elec       q    Type
REMARK                         _______ _______ _______ _____ _____    ______ ____
ROOT
ATOM      1  C   UNL     1       3.018   3.386  20.319  0.00  0.00    +0.000 A 
ATOM      2  N   UNL     1       2.955   2.545  21.328  0.00  0.00    +0.000 NA
ATOM      3  N   UNL     1       4.119   1.824  21.289  0.00  0.00    +0.000 NA
ATOM      4  N   UNL     1       4.877   2.191  20.264  0.00  0.00    +0.000 NA
ATOM      5  N   UNL     1       4.240   3.238  19.683  0.00  0.00    +0.000 N 
ENDROOT
BRANCH   5   6
ATOM      6  C   UNL     1       4.817   3.944  18.600  0.00  0.00    +0.000 A 
ATOM      7  C   UNL     1       4.468   3.637  17.274  0.00  0.00    +0.000 A 
ATOM      8  C   UNL     1       5.122   4.265  16.214  0.00  0.00    +0.000 A 
ATOM      9  C   UNL     1       6.107   5.209  16.482  0.00  0.00    +0.000 A 
ATOM     10  F   UNL     1       6.750   5.775  15.449  0.00  0.00    +0.000 F 
ATOM     11  C   UNL     1       6.428   5.558  17.796  0.00  0.00    +0.000 A 
ATOM     12 CL   UNL     1       7.666   6.710  18.118  0.00  0.00    +0.000 Cl
ATOM     13  C   UNL     1       5.768   4.944  18.861  0.00  0.00    +0.000 A 
ENDBRANCH   5   6
BRANCH   1  14
ATOM     14  S   UNL     1       1.693   4.328  19.710  0.00  0.00    +0.000 S 
BRANCH  14  15
ATOM     15  C   UNL     1       1.974   5.897  20.565  0.00  0.00    +0.000 C 
BRANCH  15  17
ATOM     16  N   UNL     1       1.432   8.229  19.887  0.00  0.00    +0.000 N 
ATOM     17  C   UNL     1       2.182   7.069  19.606  0.00  0.00    +0.000 C 
ATOM     18  O   UNL     1       2.924   7.004  18.626  0.00  0.00    +0.000 OA
BRANCH  16  20
ATOM     19  C   UNL     1       0.368   9.972  18.434  0.00  0.00    +0.000 C 
ATOM     20  C   UNL     1       1.650   9.388  19.013  0.00  0.00    +0.000 C 
ENDBRANCH  16  20
BRANCH  16  21
ATOM     21  C   UNL     1       0.714   8.387  21.160  0.00  0.00    +0.000 C 
ATOM     22  C   UNL     1       1.334   9.315  22.194  0.00  0.00    +0.000 C 
ENDBRANCH  16  21
ENDBRANCH  15  17
ENDBRANCH  14  15
ENDBRANCH   1  14
TORSDOF 6
ENDMDL
MODEL 8
REMARK VINA RESULT:      -6.7      3.761      7.217
REMARK  Name = 
REMARK  8 active torsions:
REMARK  status: ('A' for Active; 'I' for Inactive)
REMARK    1  A    between atoms: C_1  and  C_2
REMARK    2  A    between atoms: C_2  and  N_3
REMARK    3  A    between atoms: N_3  and  C_4
REMARK    4  A    between atoms: C_4  and  C_5
REMARK    5  A    between atoms: C_6  and  C_8
REMARK    6  A    between atoms: C_8  and  S_9
REMARK    7  A    between atoms: S_9  and  C_10
REMARK    8  A    between atoms: N_14  and  C_15
REMARK                            x       y       z     vdW  Elec       q    Type
REMARK                         _______ _______ _______ _____ _____    ______ ____
ROOT
ATOM      1  C   UNL     1       5.664   4.290  17.267  0.00  0.00    +0.000 A 
ATOM      2  N   UNL     1       5.976   4.403  18.540  0.00  0.00    +0.000 NA
ATOM      3  N   UNL     1       7.331   4.595  18.579  0.00  0.00    +0.000 NA
ATOM      4  N   UNL     1       7.854   4.578  17.360  0.00  0.00    +0.000 NA
ATOM      5  N   UNL     1       6.807   4.472  16.505  0.00  0.00    +0.000 N 
ENDROOT
BRANCH   5   6
ATOM      6  C   UNL     1       6.992   4.514  15.102  0.00  0.00    +0.000 A 
ATOM      7  C   UNL     1       7.938   5.380  14.528  0.00  0.00    +0.000 A 
ATOM      8  C   UNL     1       8.034   5.490  13.140  0.00  0.00    +0.000 A 
ATOM      9  C   UNL     1       7.202   4.722  12.334  0.00  0.00    +0.000 A 
ATOM     10  F   UNL     1       7.285   4.869  11.003  0.00  0.00    +0.000 F 
ATOM     11  C   UNL     1       6.292   3.823  12.894  0.00  0.00    +0.000 A 
ATOM     12 CL   UNL     1       5.248   2.894  11.888  0.00  0.00    +0.000 Cl
ATOM     13  C   UNL     1       6.200   3.697  14.280  0.00  0.00    +0.000 A 
ENDBRANCH   5   6
BRANCH   1  14
ATOM     14  S   UNL     1       4.139   3.736  16.649  0.00  0.00    +0.000 S 
BRANCH  14  15
ATOM     15  C   UNL     1       2.999   4.812  17.550  0.00  0.00    +0.000 C 
BRANCH  15  17
ATOM     16  N   UNL     1       1.934   4.290  19.738  0.00  0.00    +0.000 N 
ATOM     17  C   UNL     1       1.953   4.036  18.351  0.00  0.00    +0.000 C 
ATOM     18  O   UNL     1       1.199   3.210  17.837  0.00  0.00    +0.000 OA
BRANCH  16  20
ATOM     19  C   UNL     1       1.471   2.655  21.580  0.00  0.00    +0.000 C 
ATOM     20  C   UNL     1       0.907   3.596  20.525  0.00  0.00    +0.000 C 
ENDBRANCH  16  20
BRANCH  16  21
ATOM     21  C   UNL     1       2.679   5.416  20.320  0.00  0.00    +0.000 C 
ATOM     22  C   UNL     1       1.932   6.731  20.479  0.00  0.00    +0.000 C 
ENDBRANCH  16  21
ENDBRANCH  15  17
ENDBRANCH  14  15
ENDBRANCH   1  14
TORSDOF 6
ENDMDL
MODEL 9
REMARK VINA RESULT:      -6.7      3.872      6.982
REMARK  Name = 
REMARK  8 active torsions:
REMARK  status: ('A' for Active; 'I' for Inactive)
REMARK    1  A    between atoms: C_1  and  C_2
REMARK    2  A    between atoms: C_2  and  N_3
REMARK    3  A    between atoms: N_3  and  C_4
REMARK    4  A    between atoms: C_4  and  C_5
REMARK    5  A    between atoms: C_6  and  C_8
REMARK    6  A    between atoms: C_8  and  S_9
REMARK    7  A    between atoms: S_9  and  C_10
REMARK    8  A    between atoms: N_14  and  C_15
REMARK                            x       y       z     vdW  Elec       q    Type
REMARK                         _______ _______ _______ _____ _____    ______ ____
ROOT
ATOM      1  C   UNL     1       5.757   5.535  18.217  0.00  0.00    +0.000 A 
ATOM      2  N   UNL     1       6.278   5.568  19.424  0.00  0.00    +0.000 NA
ATOM      3  N   UNL     1       7.481   4.921  19.332  0.00  0.00    +0.000 NA
ATOM      4  N   UNL     1       7.692   4.474  18.101  0.00  0.00    +0.000 NA
ATOM      5  N   UNL     1       6.653   4.925  17.355  0.00  0.00    +0.000 N 
ENDROOT
BRANCH   5   6
ATOM      6  C   UNL     1       6.599   4.707  15.957  0.00  0.00    +0.000 A 
ATOM      7  C   UNL     1       5.700   3.777  15.409  0.00  0.00    +0.000 A 
ATOM      8  C   UNL     1       5.731   3.494  14.043  0.00  0.00    +0.000 A 
ATOM      9  C   UNL     1       6.645   4.153  13.230  0.00  0.00    +0.000 A 
ATOM     10  F   UNL     1       6.684   3.840  11.925  0.00  0.00    +0.000 F 
ATOM     11  C   UNL     1       7.510   5.115  13.755  0.00  0.00    +0.000 A 
ATOM     12 CL   UNL     1       8.655   5.908  12.744  0.00  0.00    +0.000 Cl
ATOM     13  C   UNL     1       7.475   5.413  15.118  0.00  0.00    +0.000 A 
ENDBRANCH   5   6
BRANCH   1  14
ATOM     14  S   UNL     1       4.115   5.936  17.818  0.00  0.00    +0.000 S 
BRANCH  14  15
ATOM     15  C   UNL     1       3.382   4.286  17.713  0.00  0.00    +0.000 C 
BRANCH  15  17
ATOM     16  N   UNL     1       2.690   3.893  20.071  0.00  0.00    +0.000 N 
ATOM     17  C   UNL     1       3.524   3.487  19.009  0.00  0.00    +0.000 C 
ATOM     18  O   UNL     1       4.338   2.573  19.141  0.00  0.00    +0.000 OA
BRANCH  16  20
ATOM     19  C   UNL     1       1.444   2.489  21.732  0.00  0.00    +0.000 C 
ATOM     20  C   UNL     1       2.769   3.111  21.311  0.00  0.00    +0.000 C 
ENDBRANCH  16  20
BRANCH  16  21
ATOM     21  C   UNL     1       1.580   4.833  19.857  0.00  0.00    +0.000 C 
ATOM     22  C   UNL     1       1.592   6.114  20.676  0.00  0.00    +0.000 C 
ENDBRANCH  16  21
ENDBRANCH  15  17
ENDBRANCH  14  15
ENDBRANCH   1  14
TORSDOF 6
ENDMDL
