MODEL 1
REMARK VINA RESULT:      -8.1      0.000      0.000
REMARK  Name = 
REMARK  9 active torsions:
REMARK  status: ('A' for Active; 'I' for Inactive)
REMARK    1  A    between atoms: C_2  and  C_3
REMARK    2  A    between atoms: C_6  and  O_7
REMARK    3  A    between atoms: C_9  and  O_10
REMARK    4  A    between atoms: N_11  and  C_12
REMARK    5  A    between atoms: N_11  and  C_19
REMARK    6  A    between atoms: C_12  and  C_13
REMARK    7  A    between atoms: C_22  and  C_23
REMARK    8  A    between atoms: C_28  and  C_29
REMARK    9  A    between atoms: C_29  and  O_30
REMARK                            x       y       z     vdW  Elec       q    Type
REMARK                         _______ _______ _______ _____ _____    ______ ____
ROOT
ATOM      1  O   UNL     1       4.800   3.455  17.425  0.00  0.00    +0.000 OA
ATOM      2  C   UNL     1       4.093   4.244  18.053  0.00  0.00    +0.000 C 
ATOM      3  N   UNL     1       4.238   5.637  17.893  0.00  0.00    +0.000 N 
ENDROOT
BRANCH   2   4
ATOM      4  C   UNL     1       3.126   3.687  19.063  0.00  0.00    +0.000 A 
ATOM      5  C   UNL     1       3.559   3.305  20.344  0.00  0.00    +0.000 A 
ATOM      6  C   UNL     1       2.650   2.887  21.319  0.00  0.00    +0.000 A 
ATOM      7  C   UNL     1       1.308   2.761  20.985  0.00  0.00    +0.000 A 
ATOM      8  C   UNL     1       0.866   3.034  19.698  0.00  0.00    +0.000 A 
ATOM      9  C   UNL     1       1.768   3.515  18.743  0.00  0.00    +0.000 A 
BRANCH   7  10
ATOM     10  O   UNL     1       0.385   2.367  21.907  0.00  0.00    +0.000 OA
ATOM     11  H   UNL     1       0.829   1.834  22.588  0.00  0.00    +0.000 HD
ENDBRANCH   7  10
BRANCH   9  12
ATOM     12  O   UNL     1       1.292   3.842  17.504  0.00  0.00    +0.000 OA
ATOM     13  H   UNL     1       1.749   3.318  16.826  0.00  0.00    +0.000 HD
ENDBRANCH   9  12
ENDBRANCH   2   4
BRANCH   3  14
ATOM     14  C   UNL     1       3.328   6.615  18.372  0.00  0.00    +0.000 A 
ATOM     15  C   UNL     1       2.883   6.515  19.687  0.00  0.00    +0.000 A 
ATOM     16  C   UNL     1       2.007   7.467  20.209  0.00  0.00    +0.000 A 
ATOM     17  C   UNL     1       1.529   8.532  19.430  0.00  0.00    +0.000 A 
ATOM     18  C   UNL     1       2.031   8.634  18.114  0.00  0.00    +0.000 A 
ATOM     19  C   UNL     1       2.916   7.686  17.581  0.00  0.00    +0.000 A 
BRANCH  17  20
ATOM     20  C   UNL     1       0.564   9.536  19.949  0.00  0.00    +0.000 A 
ATOM     21  N   UNL     1      -0.173  10.125  18.964  0.00  0.00    +0.000 NA
ATOM     22  C   UNL     1      -1.089  11.055  19.303  0.00  0.00    +0.000 A 
ATOM     23  C   UNL     1      -1.322  11.457  20.599  0.00  0.00    +0.000 A 
ATOM     24  C   UNL     1      -0.576  10.858  21.605  0.00  0.00    +0.000 A 
ATOM     25  C   UNL     1       0.375   9.867  21.305  0.00  0.00    +0.000 A 
BRANCH  25  26
ATOM     26  C   UNL     1       1.166   9.240  22.426  0.00  0.00    +0.000 C 
BRANCH  26  27
ATOM     27  O   UNL     1       0.663   9.604  23.706  0.00  0.00    +0.000 OA
ATOM     28  H   UNL     1      -0.036  10.262  23.557  0.00  0.00    +0.000 HD
ENDBRANCH  26  27
ENDBRANCH  25  26
ENDBRANCH  17  20
ENDBRANCH   3  14
BRANCH   3  29
ATOM     29  C   UNL     1       5.149   6.124  16.843  0.00  0.00    +0.000 C 
BRANCH  29  30
ATOM     30  C   UNL     1       6.409   6.789  17.344  0.00  0.00    +0.000 A 
ATOM     31  C   UNL     1       6.726   8.103  17.014  0.00  0.00    +0.000 A 
ATOM     32  C   UNL     1       7.818   8.725  17.623  0.00  0.00    +0.000 A 
ATOM     33  C   UNL     1       8.561   7.997  18.538  0.00  0.00    +0.000 A 
ATOM     34  N   UNL     1       8.309   6.710  18.854  0.00  0.00    +0.000 NA
ATOM     35  C   UNL     1       7.238   6.141  18.255  0.00  0.00    +0.000 A 
ENDBRANCH  29  30
ENDBRANCH   3  29
TORSDOF 9
ENDMDL
MODEL 2
REMARK VINA RESULT:      -8.0      1.396      1.949
REMARK  Name = 
REMARK  9 active torsions:
REMARK  status: ('A' for Active; 'I' for Inactive)
REMARK    1  A    between atoms: C_2  and  C_3
REMARK    2  A    between atoms: C_6  and  O_7
REMARK    3  A    between atoms: C_9  and  O_10
REMARK    4  A    between atoms: N_11  and  C_12
REMARK    5  A    between atoms: N_11  and  C_19
REMARK    6  A    between atoms: C_12  and  C_13
REMARK    7  A    between atoms: C_22  and  C_23
REMARK    8  A    between atoms: C_28  and  C_29
REMARK    9  A    between atoms: C_29  and  O_30
REMARK                            x       y       z     vdW  Elec       q    Type
REMARK                         _______ _______ _______ _____ _____    ______ ____
ROOT
ATOM      1  O   UNL     1       4.795   3.629  17.293  0.00  0.00    +0.000 OA
ATOM      2  C   UNL     1       4.090   4.396  17.953  0.00  0.00    +0.000 C 
ATOM      3  N   UNL     1       4.238   5.793  17.846  0.00  0.00    +0.000 N 
ENDROOT
BRANCH   2   4
ATOM      4  C   UNL     1       3.123   3.803  18.942  0.00  0.00    +0.000 A 
ATOM      5  C   UNL     1       3.560   3.355  20.200  0.00  0.00    +0.000 A 
ATOM      6  C   UNL     1       2.653   2.901  21.160  0.00  0.00    +0.000 A 
ATOM      7  C   UNL     1       1.307   2.806  20.831  0.00  0.00    +0.000 A 
ATOM      8  C   UNL     1       0.860   3.146  19.561  0.00  0.00    +0.000 A 
ATOM      9  C   UNL     1       1.762   3.662  18.623  0.00  0.00    +0.000 A 
BRANCH   7  10
ATOM     10  O   UNL     1       0.385   2.380  21.739  0.00  0.00    +0.000 OA
ATOM     11  H   UNL     1      -0.499   2.651  21.440  0.00  0.00    +0.000 HD
ENDBRANCH   7  10
BRANCH   9  12
ATOM     12  O   UNL     1       1.281   4.053  17.405  0.00  0.00    +0.000 OA
ATOM     13  H   UNL     1       0.312   4.100  17.432  0.00  0.00    +0.000 HD
ENDBRANCH   9  12
ENDBRANCH   2   4
BRANCH   3  14
ATOM     14  C   UNL     1       3.331   6.754  18.363  0.00  0.00    +0.000 A 
ATOM     15  C   UNL     1       2.908   7.781  17.524  0.00  0.00    +0.000 A 
ATOM     16  C   UNL     1       1.998   8.735  17.981  0.00  0.00    +0.000 A 
ATOM     17  C   UNL     1       1.502   8.709  19.295  0.00  0.00    +0.000 A 
ATOM     18  C   UNL     1       1.914   7.632  20.110  0.00  0.00    +0.000 A 
ATOM     19  C   UNL     1       2.823   6.665  19.658  0.00  0.00    +0.000 A 
BRANCH  17  20
ATOM     20  C   UNL     1       0.565   9.735  19.819  0.00  0.00    +0.000 A 
ATOM     21  N   UNL     1       0.868  10.135  21.088  0.00  0.00    +0.000 NA
ATOM     22  C   UNL     1       0.094  11.067  21.680  0.00  0.00    +0.000 A 
ATOM     23  C   UNL     1      -1.004  11.641  21.077  0.00  0.00    +0.000 A 
ATOM     24  C   UNL     1      -1.313  11.240  19.784  0.00  0.00    +0.000 A 
ATOM     25  C   UNL     1      -0.523  10.288  19.115  0.00  0.00    +0.000 A 
BRANCH  25  26
ATOM     26  C   UNL     1      -0.893   9.878  17.712  0.00  0.00    +0.000 C 
BRANCH  26  27
ATOM     27  O   UNL     1      -2.275  10.080  17.441  0.00  0.00    +0.000 OA
ATOM     28  H   UNL     1      -2.753   9.341  17.851  0.00  0.00    +0.000 HD
ENDBRANCH  26  27
ENDBRANCH  25  26
ENDBRANCH  17  20
ENDBRANCH   3  14
BRANCH   3  29
ATOM     29  C   UNL     1       5.149   6.319  16.814  0.00  0.00    +0.000 C 
BRANCH  29  30
ATOM     30  C   UNL     1       6.420   6.943  17.338  0.00  0.00    +0.000 A 
ATOM     31  C   UNL     1       6.761   8.262  17.055  0.00  0.00    +0.000 A 
ATOM     32  C   UNL     1       7.863   8.843  17.685  0.00  0.00    +0.000 A 
ATOM     33  C   UNL     1       8.593   8.069  18.573  0.00  0.00    +0.000 A 
ATOM     34  N   UNL     1       8.318   6.776  18.842  0.00  0.00    +0.000 NA
ATOM     35  C   UNL     1       7.237   6.248  18.225  0.00  0.00    +0.000 A 
ENDBRANCH  29  30
ENDBRANCH   3  29
TORSDOF 9
ENDMDL
MODEL 3
REMARK VINA RESULT:      -8.0      1.902      5.172
REMARK  Name = 
REMARK  9 active torsions:
REMARK  status: ('A' for Active; 'I' for Inactive)
REMARK    1  A    between atoms: C_2  and  C_3
REMARK    2  A    between atoms: C_6  and  O_7
REMARK    3  A    between atoms: C_9  and  O_10
REMARK    4  A    between atoms: N_11  and  C_12
REMARK    5  A    between atoms: N_11  and  C_19
REMARK    6  A    between atoms: C_12  and  C_13
REMARK    7  A    between atoms: C_22  and  C_23
REMARK    8  A    between atoms: C_28  and  C_29
REMARK    9  A    between atoms: C_29  and  O_30
REMARK                            x       y       z     vdW  Elec       q    Type
REMARK                         _______ _______ _______ _____ _____    ______ ____
ROOT
ATOM      1  O   UNL     1       5.430   3.658  17.373  0.00  0.00    +0.000 OA
ATOM      2  C   UNL     1       4.977   4.784  17.587  0.00  0.00    +0.000 C 
ATOM      3  N   UNL     1       3.589   5.003  17.684  0.00  0.00    +0.000 N 
ENDROOT
BRANCH   2   4
ATOM      4  C   UNL     1       5.940   5.938  17.659  0.00  0.00    +0.000 A 
ATOM      5  C   UNL     1       5.788   7.059  16.825  0.00  0.00    +0.000 A 
ATOM      6  C   UNL     1       6.614   8.177  16.959  0.00  0.00    +0.000 A 
ATOM      7  C   UNL     1       7.661   8.141  17.870  0.00  0.00    +0.000 A 
ATOM      8  C   UNL     1       7.898   7.008  18.636  0.00  0.00    +0.000 A 
ATOM      9  C   UNL     1       7.029   5.915  18.546  0.00  0.00    +0.000 A 
BRANCH   7  10
ATOM     10  O   UNL     1       8.485   9.212  18.043  0.00  0.00    +0.000 OA
ATOM     11  H   UNL     1       7.943  10.013  18.136  0.00  0.00    +0.000 HD
ENDBRANCH   7  10
BRANCH   9  12
ATOM     12  O   UNL     1       7.247   4.841  19.362  0.00  0.00    +0.000 OA
ATOM     13  H   UNL     1       6.447   4.653  19.880  0.00  0.00    +0.000 HD
ENDBRANCH   9  12
ENDBRANCH   2   4
BRANCH   3  14
ATOM     14  C   UNL     1       2.979   6.191  18.164  0.00  0.00    +0.000 A 
ATOM     15  C   UNL     1       2.851   6.358  19.540  0.00  0.00    +0.000 A 
ATOM     16  C   UNL     1       2.281   7.521  20.059  0.00  0.00    +0.000 A 
ATOM     17  C   UNL     1       1.797   8.540  19.223  0.00  0.00    +0.000 A 
ATOM     18  C   UNL     1       1.979   8.363  17.833  0.00  0.00    +0.000 A 
ATOM     19  C   UNL     1       2.556   7.202  17.302  0.00  0.00    +0.000 A 
BRANCH  17  20
ATOM     20  C   UNL     1       1.148   9.768  19.748  0.00  0.00    +0.000 A 
ATOM     21  N   UNL     1       1.471  10.887  19.037  0.00  0.00    +0.000 NA
ATOM     22  C   UNL     1       0.945  12.071  19.410  0.00  0.00    +0.000 A 
ATOM     23  C   UNL     1       0.096  12.223  20.484  0.00  0.00    +0.000 A 
ATOM     24  C   UNL     1      -0.238  11.086  21.209  0.00  0.00    +0.000 A 
ATOM     25  C   UNL     1       0.266   9.825  20.845  0.00  0.00    +0.000 A 
BRANCH  25  26
ATOM     26  C   UNL     1      -0.120   8.615  21.658  0.00  0.00    +0.000 C 
BRANCH  26  27
ATOM     27  O   UNL     1      -0.789   8.969  22.862  0.00  0.00    +0.000 OA
ATOM     28  H   UNL     1      -1.649   9.341  22.607  0.00  0.00    +0.000 HD
ENDBRANCH  26  27
ENDBRANCH  25  26
ENDBRANCH  17  20
ENDBRANCH   3  14
BRANCH   3  29
ATOM     29  C   UNL     1       2.698   3.829  17.676  0.00  0.00    +0.000 C 
BRANCH  29  30
ATOM     30  C   UNL     1       2.327   3.296  19.040  0.00  0.00    +0.000 A 
ATOM     31  C   UNL     1       3.289   2.857  19.943  0.00  0.00    +0.000 A 
ATOM     32  C   UNL     1       2.914   2.517  21.244  0.00  0.00    +0.000 A 
ATOM     33  C   UNL     1       1.576   2.623  21.589  0.00  0.00    +0.000 A 
ATOM     34  N   UNL     1       0.609   3.007  20.730  0.00  0.00    +0.000 NA
ATOM     35  C   UNL     1       1.008   3.339  19.482  0.00  0.00    +0.000 A 
ENDBRANCH  29  30
ENDBRANCH   3  29
TORSDOF 9
ENDMDL
MODEL 4
REMARK VINA RESULT:      -7.9      2.543      5.531
REMARK  Name = 
REMARK  9 active torsions:
REMARK  status: ('A' for Active; 'I' for Inactive)
REMARK    1  A    between atoms: C_2  and  C_3
REMARK    2  A    between atoms: C_6  and  O_7
REMARK    3  A    between atoms: C_9  and  O_10
REMARK    4  A    between atoms: N_11  and  C_12
REMARK    5  A    between atoms: N_11  and  C_19
REMARK    6  A    between atoms: C_12  and  C_13
REMARK    7  A    between atoms: C_22  and  C_23
REMARK    8  A    between atoms: C_28  and  C_29
REMARK    9  A    between atoms: C_29  and  O_30
REMARK                            x       y       z     vdW  Elec       q    Type
REMARK                         _______ _______ _______ _____ _____    ______ ____
ROOT
ATOM      1  O   UNL     1       6.468   4.063  16.258  0.00  0.00    +0.000 OA
ATOM      2  C   UNL     1       5.911   4.993  16.845  0.00  0.00    +0.000 C 
ATOM      3  N   UNL     1       4.506   5.083  16.895  0.00  0.00    +0.000 N 
ENDROOT
BRANCH   2   4
ATOM      4  C   UNL     1       6.768   6.079  17.435  0.00  0.00    +0.000 A 
ATOM      5  C   UNL     1       6.816   7.358  16.854  0.00  0.00    +0.000 A 
ATOM      6  C   UNL     1       7.526   8.399  17.456  0.00  0.00    +0.000 A 
ATOM      7  C   UNL     1       8.272   8.139  18.599  0.00  0.00    +0.000 A 
ATOM      8  C   UNL     1       8.325   6.861  19.138  0.00  0.00    +0.000 A 
ATOM      9  C   UNL     1       7.560   5.836  18.570  0.00  0.00    +0.000 A 
BRANCH   7  10
ATOM     10  O   UNL     1       8.971   9.126  19.226  0.00  0.00    +0.000 OA
ATOM     11  H   UNL     1       9.570   9.543  18.584  0.00  0.00    +0.000 HD
ENDBRANCH   7  10
BRANCH   9  12
ATOM     12  O   UNL     1       7.578   4.606  19.163  0.00  0.00    +0.000 OA
ATOM     13  H   UNL     1       6.816   4.516  19.759  0.00  0.00    +0.000 HD
ENDBRANCH   9  12
ENDBRANCH   2   4
BRANCH   3  14
ATOM     14  C   UNL     1       3.771   5.959  17.736  0.00  0.00    +0.000 A 
ATOM     15  C   UNL     1       3.256   7.127  17.182  0.00  0.00    +0.000 A 
ATOM     16  C   UNL     1       2.506   8.007  17.963  0.00  0.00    +0.000 A 
ATOM     17  C   UNL     1       2.270   7.763  19.325  0.00  0.00    +0.000 A 
ATOM     18  C   UNL     1       2.767   6.550  19.850  0.00  0.00    +0.000 A 
ATOM     19  C   UNL     1       3.516   5.656  19.072  0.00  0.00    +0.000 A 
BRANCH  17  20
ATOM     20  C   UNL     1       1.511   8.703  20.189  0.00  0.00    +0.000 A 
ATOM     21  N   UNL     1       1.548   8.361  21.510  0.00  0.00    +0.000 NA
ATOM     22  C   UNL     1       0.899   9.136  22.402  0.00  0.00    +0.000 A 
ATOM     23  C   UNL     1       0.185  10.262  22.056  0.00  0.00    +0.000 A 
ATOM     24  C   UNL     1       0.147  10.615  20.714  0.00  0.00    +0.000 A 
ATOM     25  C   UNL     1       0.827   9.853  19.748  0.00  0.00    +0.000 A 
BRANCH  25  26
ATOM     26  C   UNL     1       0.761  10.269  18.300  0.00  0.00    +0.000 C 
BRANCH  26  27
ATOM     27  O   UNL     1      -0.571  10.269  17.802  0.00  0.00    +0.000 OA
ATOM     28  H   UNL     1      -1.144  10.555  18.532  0.00  0.00    +0.000 HD
ENDBRANCH  26  27
ENDBRANCH  25  26
ENDBRANCH  17  20
ENDBRANCH   3  14
BRANCH   3  29
ATOM     29  C   UNL     1       3.717   3.958  16.362  0.00  0.00    +0.000 C 
BRANCH  29  30
ATOM     30  C   UNL     1       2.980   3.143  17.398  0.00  0.00    +0.000 A 
ATOM     31  C   UNL     1       3.644   2.268  18.252  0.00  0.00    +0.000 A 
ATOM     32  C   UNL     1       2.945   1.653  19.292  0.00  0.00    +0.000 A 
ATOM     33  C   UNL     1       1.596   1.934  19.432  0.00  0.00    +0.000 A 
ATOM     34  N   UNL     1       0.909   2.745  18.600  0.00  0.00    +0.000 NA
ATOM     35  C   UNL     1       1.618   3.333  17.610  0.00  0.00    +0.000 A 
ENDBRANCH  29  30
ENDBRANCH   3  29
TORSDOF 9
ENDMDL
MODEL 5
REMARK VINA RESULT:      -7.9      2.583      5.519
REMARK  Name = 
REMARK  9 active torsions:
REMARK  status: ('A' for Active; 'I' for Inactive)
REMARK    1  A    between atoms: C_2  and  C_3
REMARK    2  A    between atoms: C_6  and  O_7
REMARK    3  A    between atoms: C_9  and  O_10
REMARK    4  A    between atoms: N_11  and  C_12
REMARK    5  A    between atoms: N_11  and  C_19
REMARK    6  A    between atoms: C_12  and  C_13
REMARK    7  A    between atoms: C_22  and  C_23
REMARK    8  A    between atoms: C_28  and  C_29
REMARK    9  A    between atoms: C_29  and  O_30
REMARK                            x       y       z     vdW  Elec       q    Type
REMARK                         _______ _______ _______ _____ _____    ______ ____
ROOT
ATOM      1  O   UNL     1       6.800   4.072  16.579  0.00  0.00    +0.000 OA
ATOM      2  C   UNL     1       6.173   5.022  17.053  0.00  0.00    +0.000 C 
ATOM      3  N   UNL     1       4.764   5.032  17.060  0.00  0.00    +0.000 N 
ENDROOT
BRANCH   2   4
ATOM      4  C   UNL     1       6.949   6.213  17.547  0.00  0.00    +0.000 A 
ATOM      5  C   UNL     1       6.882   7.447  16.879  0.00  0.00    +0.000 A 
ATOM      6  C   UNL     1       7.515   8.582  17.392  0.00  0.00    +0.000 A 
ATOM      7  C   UNL     1       8.299   8.464  18.532  0.00  0.00    +0.000 A 
ATOM      8  C   UNL     1       8.466   7.235  19.156  0.00  0.00    +0.000 A 
ATOM      9  C   UNL     1       7.778   6.115  18.677  0.00  0.00    +0.000 A 
BRANCH   7  10
ATOM     10  O   UNL     1       8.926   9.546  19.073  0.00  0.00    +0.000 OA
ATOM     11  H   UNL     1       8.907   9.467  20.042  0.00  0.00    +0.000 HD
ENDBRANCH   7  10
BRANCH   9  12
ATOM     12  O   UNL     1       7.907   4.934  19.353  0.00  0.00    +0.000 OA
ATOM     13  H   UNL     1       7.523   5.019  20.241  0.00  0.00    +0.000 HD
ENDBRANCH   9  12
ENDBRANCH   2   4
BRANCH   3  14
ATOM     14  C   UNL     1       3.956   5.944  17.788  0.00  0.00    +0.000 A 
ATOM     15  C   UNL     1       3.750   5.707  19.144  0.00  0.00    +0.000 A 
ATOM     16  C   UNL     1       2.983   6.589  19.906  0.00  0.00    +0.000 A 
ATOM     17  C   UNL     1       2.378   7.719  19.334  0.00  0.00    +0.000 A 
ATOM     18  C   UNL     1       2.639   7.959  17.967  0.00  0.00    +0.000 A 
ATOM     19  C   UNL     1       3.413   7.082  17.194  0.00  0.00    +0.000 A 
BRANCH  17  20
ATOM     20  C   UNL     1       1.523   8.652  20.113  0.00  0.00    +0.000 A 
ATOM     21  N   UNL     1       1.569   8.421  21.457  0.00  0.00    +0.000 NA
ATOM     22  C   UNL     1       0.838   9.201  22.278  0.00  0.00    +0.000 A 
ATOM     23  C   UNL     1       0.030  10.226  21.836  0.00  0.00    +0.000 A 
ATOM     24  C   UNL     1      -0.017  10.467  20.469  0.00  0.00    +0.000 A 
ATOM     25  C   UNL     1       0.745   9.695  19.574  0.00  0.00    +0.000 A 
BRANCH  25  26
ATOM     26  C   UNL     1       0.666   9.987  18.096  0.00  0.00    +0.000 C 
BRANCH  26  27
ATOM     27  O   UNL     1      -0.642  10.383  17.697  0.00  0.00    +0.000 OA
ATOM     28  H   UNL     1      -0.536  10.974  16.934  0.00  0.00    +0.000 HD
ENDBRANCH  26  27
ENDBRANCH  25  26
ENDBRANCH  17  20
ENDBRANCH   3  14
BRANCH   3  29
ATOM     29  C   UNL     1       4.058   3.813  16.629  0.00  0.00    +0.000 C 
BRANCH  29  30
ATOM     30  C   UNL     1       3.098   3.235  17.641  0.00  0.00    +0.000 A 
ATOM     31  C   UNL     1       1.749   3.577  17.651  0.00  0.00    +0.000 A 
ATOM     32  C   UNL     1       0.871   2.904  18.503  0.00  0.00    +0.000 A 
ATOM     33  C   UNL     1       1.385   1.914  19.326  0.00  0.00    +0.000 A 
ATOM     34  N   UNL     1       2.693   1.583  19.373  0.00  0.00    +0.000 NA
ATOM     35  C   UNL     1       3.513   2.246  18.527  0.00  0.00    +0.000 A 
ENDBRANCH  29  30
ENDBRANCH   3  29
TORSDOF 9
ENDMDL
MODEL 6
REMARK VINA RESULT:      -7.9      2.354      5.538
REMARK  Name = 
REMARK  9 active torsions:
REMARK  status: ('A' for Active; 'I' for Inactive)
REMARK    1  A    between atoms: C_2  and  C_3
REMARK    2  A    between atoms: C_6  and  O_7
REMARK    3  A    between atoms: C_9  and  O_10
REMARK    4  A    between atoms: N_11  and  C_12
REMARK    5  A    between atoms: N_11  and  C_19
REMARK    6  A    between atoms: C_12  and  C_13
REMARK    7  A    between atoms: C_22  and  C_23
REMARK    8  A    between atoms: C_28  and  C_29
REMARK    9  A    between atoms: C_29  and  O_30
REMARK                            x       y       z     vdW  Elec       q    Type
REMARK                         _______ _______ _______ _____ _____    ______ ____
ROOT
ATOM      1  O   UNL     1       5.953   3.637  17.818  0.00  0.00    +0.000 OA
ATOM      2  C   UNL     1       5.420   4.743  17.927  0.00  0.00    +0.000 C 
ATOM      3  N   UNL     1       4.018   4.874  17.975  0.00  0.00    +0.000 N 
ENDROOT
BRANCH   2   4
ATOM      4  C   UNL     1       6.302   5.963  17.922  0.00  0.00    +0.000 A 
ATOM      5  C   UNL     1       6.062   7.023  17.031  0.00  0.00    +0.000 A 
ATOM      6  C   UNL     1       6.811   8.201  17.092  0.00  0.00    +0.000 A 
ATOM      7  C   UNL     1       7.869   8.287  17.988  0.00  0.00    +0.000 A 
ATOM      8  C   UNL     1       8.192   7.216  18.811  0.00  0.00    +0.000 A 
ATOM      9  C   UNL     1       7.400   6.063  18.792  0.00  0.00    +0.000 A 
BRANCH   7  10
ATOM     10  O   UNL     1       8.618   9.420  18.090  0.00  0.00    +0.000 OA
ATOM     11  H   UNL     1       9.441   9.297  17.587  0.00  0.00    +0.000 HD
ENDBRANCH   7  10
BRANCH   9  12
ATOM     12  O   UNL     1       7.701   5.053  19.662  0.00  0.00    +0.000 OA
ATOM     13  H   UNL     1       8.220   5.401  20.405  0.00  0.00    +0.000 HD
ENDBRANCH   9  12
ENDBRANCH   2   4
BRANCH   3  14
ATOM     14  C   UNL     1       3.317   6.053  18.340  0.00  0.00    +0.000 A 
ATOM     15  C   UNL     1       2.760   6.829  17.328  0.00  0.00    +0.000 A 
ATOM     16  C   UNL     1       2.041   7.984  17.640  0.00  0.00    +0.000 A 
ATOM     17  C   UNL     1       1.879   8.413  18.967  0.00  0.00    +0.000 A 
ATOM     18  C   UNL     1       2.418   7.584  19.975  0.00  0.00    +0.000 A 
ATOM     19  C   UNL     1       3.136   6.419  19.673  0.00  0.00    +0.000 A 
BRANCH  17  20
ATOM     20  C   UNL     1       1.155   9.660  19.324  0.00  0.00    +0.000 A 
ATOM     21  N   UNL     1       0.173   9.460  20.249  0.00  0.00    +0.000 NA
ATOM     22  C   UNL     1      -0.560  10.514  20.661  0.00  0.00    +0.000 A 
ATOM     23  C   UNL     1      -0.380  11.797  20.192  0.00  0.00    +0.000 A 
ATOM     24  C   UNL     1       0.622  12.006  19.253  0.00  0.00    +0.000 A 
ATOM     25  C   UNL     1       1.428  10.943  18.809  0.00  0.00    +0.000 A 
BRANCH  25  26
ATOM     26  C   UNL     1       2.504  11.211  17.787  0.00  0.00    +0.000 C 
BRANCH  26  27
ATOM     27  O   UNL     1       2.526  12.573  17.376  0.00  0.00    +0.000 OA
ATOM     28  H   UNL     1       3.168  12.637  16.650  0.00  0.00    +0.000 HD
ENDBRANCH  26  27
ENDBRANCH  25  26
ENDBRANCH  17  20
ENDBRANCH   3  14
BRANCH   3  29
ATOM     29  C   UNL     1       3.208   3.645  18.047  0.00  0.00    +0.000 C 
BRANCH  29  30
ATOM     30  C   UNL     1       2.631   3.336  19.408  0.00  0.00    +0.000 A 
ATOM     31  C   UNL     1       1.262   3.382  19.653  0.00  0.00    +0.000 A 
ATOM     32  C   UNL     1       0.763   2.941  20.880  0.00  0.00    +0.000 A 
ATOM     33  C   UNL     1       1.663   2.475  21.825  0.00  0.00    +0.000 A 
ATOM     34  N   UNL     1       3.000   2.452  21.639  0.00  0.00    +0.000 NA
ATOM     35  C   UNL     1       3.449   2.876  20.436  0.00  0.00    +0.000 A 
ENDBRANCH  29  30
ENDBRANCH   3  29
TORSDOF 9
ENDMDL
MODEL 7
REMARK VINA RESULT:      -7.8      1.859      5.165
REMARK  Name = 
REMARK  9 active torsions:
REMARK  status: ('A' for Active; 'I' for Inactive)
REMARK    1  A    between atoms: C_2  and  C_3
REMARK    2  A    between atoms: C_6  and  O_7
REMARK    3  A    between atoms: C_9  and  O_10
REMARK    4  A    between atoms: N_11  and  C_12
REMARK    5  A    between atoms: N_11  and  C_19
REMARK    6  A    between atoms: C_12  and  C_13
REMARK    7  A    between atoms: C_22  and  C_23
REMARK    8  A    between atoms: C_28  and  C_29
REMARK    9  A    between atoms: C_29  and  O_30
REMARK                            x       y       z     vdW  Elec       q    Type
REMARK                         _______ _______ _______ _____ _____    ______ ____
ROOT
ATOM      1  O   UNL     1       5.725   3.672  17.670  0.00  0.00    +0.000 OA
ATOM      2  C   UNL     1       5.232   4.793  17.812  0.00  0.00    +0.000 C 
ATOM      3  N   UNL     1       3.835   4.969  17.883  0.00  0.00    +0.000 N 
ENDROOT
BRANCH   2   4
ATOM      4  C   UNL     1       6.153   5.982  17.822  0.00  0.00    +0.000 A 
ATOM      5  C   UNL     1       5.951   7.060  16.943  0.00  0.00    +0.000 A 
ATOM      6  C   UNL     1       6.739   8.211  17.019  0.00  0.00    +0.000 A 
ATOM      7  C   UNL     1       7.797   8.251  17.918  0.00  0.00    +0.000 A 
ATOM      8  C   UNL     1       8.083   7.161  18.728  0.00  0.00    +0.000 A 
ATOM      9  C   UNL     1       7.253   6.035  18.695  0.00  0.00    +0.000 A 
BRANCH   7  10
ATOM     10  O   UNL     1       8.584   9.357  18.034  0.00  0.00    +0.000 OA
ATOM     11  H   UNL     1       8.359   9.979  17.322  0.00  0.00    +0.000 HD
ENDBRANCH   7  10
BRANCH   9  12
ATOM     12  O   UNL     1       7.518   5.005  19.553  0.00  0.00    +0.000 OA
ATOM     13  H   UNL     1       8.472   4.963  19.733  0.00  0.00    +0.000 HD
ENDBRANCH   9  12
ENDBRANCH   2   4
BRANCH   3  14
ATOM     14  C   UNL     1       3.180   6.162  18.284  0.00  0.00    +0.000 A 
ATOM     15  C   UNL     1       2.856   6.317  19.628  0.00  0.00    +0.000 A 
ATOM     16  C   UNL     1       2.233   7.483  20.074  0.00  0.00    +0.000 A 
ATOM     17  C   UNL     1       1.891   8.518  19.189  0.00  0.00    +0.000 A 
ATOM     18  C   UNL     1       2.270   8.353  17.839  0.00  0.00    +0.000 A 
ATOM     19  C   UNL     1       2.902   7.188  17.382  0.00  0.00    +0.000 A 
BRANCH  17  20
ATOM     20  C   UNL     1       1.191   9.752  19.630  0.00  0.00    +0.000 A 
ATOM     21  N   UNL     1       0.804  10.545  18.590  0.00  0.00    +0.000 NA
ATOM     22  C   UNL     1       0.155  11.697  18.855  0.00  0.00    +0.000 A 
ATOM     23  C   UNL     1      -0.138  12.130  20.130  0.00  0.00    +0.000 A 
ATOM     24  C   UNL     1       0.251  11.324  21.191  0.00  0.00    +0.000 A 
ATOM     25  C   UNL     1       0.910  10.103  20.965  0.00  0.00    +0.000 A 
BRANCH  25  26
ATOM     26  C   UNL     1       1.317   9.255  22.145  0.00  0.00    +0.000 C 
BRANCH  26  27
ATOM     27  O   UNL     1       0.665   9.656  23.344  0.00  0.00    +0.000 OA
ATOM     28  H   UNL     1       0.288  10.536  23.178  0.00  0.00    +0.000 HD
ENDBRANCH  26  27
ENDBRANCH  25  26
ENDBRANCH  17  20
ENDBRANCH   3  14
BRANCH   3  29
ATOM     29  C   UNL     1       2.985   3.766  17.938  0.00  0.00    +0.000 C 
BRANCH  29  30
ATOM     30  C   UNL     1       2.530   3.365  19.321  0.00  0.00    +0.000 A 
ATOM     31  C   UNL     1       1.185   3.352  19.675  0.00  0.00    +0.000 A 
ATOM     32  C   UNL     1       0.800   2.829  20.911  0.00  0.00    +0.000 A 
ATOM     33  C   UNL     1       1.787   2.345  21.754  0.00  0.00    +0.000 A 
ATOM     34  N   UNL     1       3.104   2.378  21.463  0.00  0.00    +0.000 NA
ATOM     35  C   UNL     1       3.442   2.880  20.254  0.00  0.00    +0.000 A 
ENDBRANCH  29  30
ENDBRANCH   3  29
TORSDOF 9
ENDMDL
MODEL 8
REMARK VINA RESULT:      -7.8      2.040      5.336
REMARK  Name = 
REMARK  9 active torsions:
REMARK  status: ('A' for Active; 'I' for Inactive)
REMARK    1  A    between atoms: C_2  and  C_3
REMARK    2  A    between atoms: C_6  and  O_7
REMARK    3  A    between atoms: C_9  and  O_10
REMARK    4  A    between atoms: N_11  and  C_12
REMARK    5  A    between atoms: N_11  and  C_19
REMARK    6  A    between atoms: C_12  and  C_13
REMARK    7  A    between atoms: C_22  and  C_23
REMARK    8  A    between atoms: C_28  and  C_29
REMARK    9  A    between atoms: C_29  and  O_30
REMARK                            x       y       z     vdW  Elec       q    Type
REMARK                         _______ _______ _______ _____ _____    ______ ____
ROOT
ATOM      1  O   UNL     1       6.779   4.043  17.083  0.00  0.00    +0.000 OA
ATOM      2  C   UNL     1       6.148   5.063  17.369  0.00  0.00    +0.000 C 
ATOM      3  N   UNL     1       4.742   5.095  17.284  0.00  0.00    +0.000 N 
ENDROOT
BRANCH   2   4
ATOM      4  C   UNL     1       6.922   6.302  17.730  0.00  0.00    +0.000 A 
ATOM      5  C   UNL     1       6.780   7.485  16.985  0.00  0.00    +0.000 A 
ATOM      6  C   UNL     1       7.413   8.666  17.377  0.00  0.00    +0.000 A 
ATOM      7  C   UNL     1       8.270   8.646  18.470  0.00  0.00    +0.000 A 
ATOM      8  C   UNL     1       8.508   7.468  19.164  0.00  0.00    +0.000 A 
ATOM      9  C   UNL     1       7.822   6.302  18.809  0.00  0.00    +0.000 A 
BRANCH   7  10
ATOM     10  O   UNL     1       8.900   9.777  18.895  0.00  0.00    +0.000 OA
ATOM     11  H   UNL     1       9.794   9.799  18.515  0.00  0.00    +0.000 HD
ENDBRANCH   7  10
BRANCH   9  12
ATOM     12  O   UNL     1       8.025   5.175  19.554  0.00  0.00    +0.000 OA
ATOM     13  H   UNL     1       8.201   5.417  20.477  0.00  0.00    +0.000 HD
ENDBRANCH   9  12
ENDBRANCH   2   4
BRANCH   3  14
ATOM     14  C   UNL     1       3.914   6.118  17.814  0.00  0.00    +0.000 A 
ATOM     15  C   UNL     1       3.469   7.119  16.955  0.00  0.00    +0.000 A 
ATOM     16  C   UNL     1       2.633   8.132  17.426  0.00  0.00    +0.000 A 
ATOM     17  C   UNL     1       2.236   8.192  18.771  0.00  0.00    +0.000 A 
ATOM     18  C   UNL     1       2.666   7.140  19.610  0.00  0.00    +0.000 A 
ATOM     19  C   UNL     1       3.501   6.115  19.146  0.00  0.00    +0.000 A 
BRANCH  17  20
ATOM     20  C   UNL     1       1.380   9.282  19.307  0.00  0.00    +0.000 A 
ATOM     21  N   UNL     1       0.952  10.147  18.343  0.00  0.00    +0.000 NA
ATOM     22  C   UNL     1       0.165  11.182  18.698  0.00  0.00    +0.000 A 
ATOM     23  C   UNL     1      -0.233  11.427  19.994  0.00  0.00    +0.000 A 
ATOM     24  C   UNL     1       0.197  10.546  20.979  0.00  0.00    +0.000 A 
ATOM     25  C   UNL     1       1.001   9.439  20.655  0.00  0.00    +0.000 A 
BRANCH  25  26
ATOM     26  C   UNL     1       1.448   8.507  21.753  0.00  0.00    +0.000 C 
BRANCH  26  27
ATOM     27  O   UNL     1       2.064   9.203  22.830  0.00  0.00    +0.000 OA
ATOM     28  H   UNL     1       1.451   9.156  23.581  0.00  0.00    +0.000 HD
ENDBRANCH  26  27
ENDBRANCH  25  26
ENDBRANCH  17  20
ENDBRANCH   3  14
BRANCH   3  29
ATOM     29  C   UNL     1       4.034   3.836  16.993  0.00  0.00    +0.000 C 
BRANCH  29  30
ATOM     30  C   UNL     1       3.098   3.361  18.079  0.00  0.00    +0.000 A 
ATOM     31  C   UNL     1       1.720   3.329  17.897  0.00  0.00    +0.000 A 
ATOM     32  C   UNL     1       0.907   2.740  18.868  0.00  0.00    +0.000 A 
ATOM     33  C   UNL     1       1.512   2.211  19.996  0.00  0.00    +0.000 A 
ATOM     34  N   UNL     1       2.841   2.258  20.227  0.00  0.00    +0.000 NA
ATOM     35  C   UNL     1       3.600   2.825  19.262  0.00  0.00    +0.000 A 
ENDBRANCH  29  30
ENDBRANCH   3  29
TORSDOF 9
ENDMDL
MODEL 9
REMARK VINA RESULT:      -7.8      3.241      8.876
REMARK  Name = 
REMARK  9 active torsions:
REMARK  status: ('A' for Active; 'I' for Inactive)
REMARK    1  A    between atoms: C_2  and  C_3
REMARK    2  A    between atoms: C_6  and  O_7
REMARK    3  A    between atoms: C_9  and  O_10
REMARK    4  A    between atoms: N_11  and  C_12
REMARK    5  A    between atoms: N_11  and  C_19
REMARK    6  A    between atoms: C_12  and  C_13
REMARK    7  A    between atoms: C_22  and  C_23
REMARK    8  A    between atoms: C_28  and  C_29
REMARK    9  A    between atoms: C_29  and  O_30
REMARK                            x       y       z     vdW  Elec       q    Type
REMARK                         _______ _______ _______ _____ _____    ______ ____
ROOT
ATOM      1  O   UNL     1      -1.360  13.137  19.254  0.00  0.00    +0.000 OA
ATOM      2  C   UNL     1      -0.420  12.340  19.286  0.00  0.00    +0.000 C 
ATOM      3  N   UNL     1      -0.647  10.950  19.326  0.00  0.00    +0.000 N 
ENDROOT
BRANCH   2   4
ATOM      4  C   UNL     1       0.979  12.889  19.368  0.00  0.00    +0.000 A 
ATOM      5  C   UNL     1       1.745  13.090  18.207  0.00  0.00    +0.000 A 
ATOM      6  C   UNL     1       3.001  13.696  18.268  0.00  0.00    +0.000 A 
ATOM      7  C   UNL     1       3.539  14.021  19.506  0.00  0.00    +0.000 A 
ATOM      8  C   UNL     1       2.848  13.741  20.677  0.00  0.00    +0.000 A 
ATOM      9  C   UNL     1       1.562  13.193  20.610  0.00  0.00    +0.000 A 
BRANCH   7  10
ATOM     10  O   UNL     1       4.757  14.623  19.612  0.00  0.00    +0.000 OA
ATOM     11  H   UNL     1       5.222  14.258  20.384  0.00  0.00    +0.000 HD
ENDBRANCH   7  10
BRANCH   9  12
ATOM     12  O   UNL     1       0.878  12.993  21.775  0.00  0.00    +0.000 OA
ATOM     13  H   UNL     1      -0.060  12.830  21.583  0.00  0.00    +0.000 HD
ENDBRANCH   9  12
ENDBRANCH   2   4
BRANCH   3  14
ATOM     14  C   UNL     1       0.341   9.953  19.121  0.00  0.00    +0.000 A 
ATOM     15  C   UNL     1       0.786   9.227  20.222  0.00  0.00    +0.000 A 
ATOM     16  C   UNL     1       1.739   8.220  20.065  0.00  0.00    +0.000 A 
ATOM     17  C   UNL     1       2.296   7.924  18.811  0.00  0.00    +0.000 A 
ATOM     18  C   UNL     1       1.795   8.645  17.705  0.00  0.00    +0.000 A 
ATOM     19  C   UNL     1       0.833   9.654  17.851  0.00  0.00    +0.000 A 
BRANCH  17  20
ATOM     20  C   UNL     1       3.342   6.886  18.623  0.00  0.00    +0.000 A 
ATOM     21  N   UNL     1       4.266   7.226  17.679  0.00  0.00    +0.000 NA
ATOM     22  C   UNL     1       5.272   6.368  17.413  0.00  0.00    +0.000 A 
ATOM     23  C   UNL     1       5.421   5.150  18.040  0.00  0.00    +0.000 A 
ATOM     24  C   UNL     1       4.484   4.802  19.004  0.00  0.00    +0.000 A 
ATOM     25  C   UNL     1       3.430   5.672  19.332  0.00  0.00    +0.000 A 
BRANCH  25  26
ATOM     26  C   UNL     1       2.432   5.257  20.384  0.00  0.00    +0.000 C 
BRANCH  26  27
ATOM     27  O   UNL     1       1.400   4.435  19.850  0.00  0.00    +0.000 OA
ATOM     28  H   UNL     1       1.810   3.585  19.618  0.00  0.00    +0.000 HD
ENDBRANCH  26  27
ENDBRANCH  25  26
ENDBRANCH  17  20
ENDBRANCH   3  14
BRANCH   3  29
ATOM     29  C   UNL     1      -2.031  10.467  19.174  0.00  0.00    +0.000 C 
BRANCH  29  30
ATOM     30  C   UNL     1      -2.619  10.629  17.792  0.00  0.00    +0.000 A 
ATOM     31  C   UNL     1      -2.131   9.919  16.699  0.00  0.00    +0.000 A 
ATOM     32  C   UNL     1      -2.802   9.985  15.476  0.00  0.00    +0.000 A 
ATOM     33  C   UNL     1      -3.938  10.774  15.393  0.00  0.00    +0.000 A 
ATOM     34  N   UNL     1      -4.417  11.508  16.418  0.00  0.00    +0.000 NA
ATOM     35  C   UNL     1      -3.751  11.413  17.591  0.00  0.00    +0.000 A 
ENDBRANCH  29  30
ENDBRANCH   3  29
TORSDOF 9
ENDMDL
