MODEL 1
REMARK VINA RESULT:      -7.8      0.000      0.000
REMARK  Name = 
REMARK  5 active torsions:
REMARK  status: ('A' for Active; 'I' for Inactive)
REMARK    1  A    between atoms: C_7  and  C_8
REMARK    2  A    between atoms: N_9  and  N_10
REMARK    3  A    between atoms: N_10  and  C_11
REMARK    4  A    between atoms: C_11  and  N_13
REMARK    5  A    between atoms: N_13  and  C_14
REMARK                            x       y       z     vdW  Elec       q    Type
REMARK                         _______ _______ _______ _____ _____    ______ ____
ROOT
ATOM      1  C   UNL     1       5.060   4.139  17.760  0.00  0.00    +0.000 C 
ATOM      2  N   UNL     1       6.279   4.097  18.184  0.00  0.00    +0.000 NA
ENDROOT
BRANCH   1   9
ATOM      3  F   UNL     1       0.755   3.048  21.169  0.00  0.00    +0.000 F 
ATOM      4  C   UNL     1       1.792   3.311  20.362  0.00  0.00    +0.000 A 
ATOM      5  C   UNL     1       2.456   4.523  20.461  0.00  0.00    +0.000 A 
ATOM      6  F   UNL     1       2.057   5.435  21.358  0.00  0.00    +0.000 F 
ATOM      7  C   UNL     1       3.528   4.804  19.624  0.00  0.00    +0.000 A 
ATOM      8  F   UNL     1       4.122   5.999  19.736  0.00  0.00    +0.000 F 
ATOM      9  C   UNL     1       3.947   3.862  18.678  0.00  0.00    +0.000 A 
ATOM     10  C   UNL     1       3.272   2.649  18.576  0.00  0.00    +0.000 A 
ATOM     11  F   UNL     1       3.643   1.737  17.667  0.00  0.00    +0.000 F 
ATOM     12  C   UNL     1       2.196   2.374  19.419  0.00  0.00    +0.000 A 
ATOM     13  F   UNL     1       1.550   1.205  19.314  0.00  0.00    +0.000 F 
ENDBRANCH   1   9
BRANCH   2  14
ATOM     14  N   UNL     1       7.241   4.468  17.311  0.00  0.00    +0.000 N 
ATOM     15  H   UNL     1       7.943   3.794  17.021  0.00  0.00    +0.000 HD
BRANCH  14  16
ATOM     16  C   UNL     1       7.189   5.690  16.667  0.00  0.00    +0.000 C 
ATOM     17  S   UNL     1       6.746   7.149  17.346  0.00  0.00    +0.000 S 
BRANCH  16  18
ATOM     18  N   UNL     1       7.599   5.660  15.353  0.00  0.00    +0.000 N 
ATOM     19  H   UNL     1       8.215   6.415  15.073  0.00  0.00    +0.000 HD
BRANCH  18  20
ATOM     20  C   UNL     1       6.981   4.931  14.314  0.00  0.00    +0.000 A 
ATOM     21  C   UNL     1       7.646   4.790  13.101  0.00  0.00    +0.000 A 
ATOM     22  C   UNL     1       7.049   4.064  12.075  0.00  0.00    +0.000 A 
ATOM     23  C   UNL     1       5.788   3.528  12.285  0.00  0.00    +0.000 A 
ATOM     24  N   UNL     1       5.095   3.675  13.433  0.00  0.00    +0.000 NA
ATOM     25  C   UNL     1       5.700   4.385  14.414  0.00  0.00    +0.000 A 
ENDBRANCH  18  20
ENDBRANCH  16  18
ENDBRANCH  14  16
ENDBRANCH   2  14
TORSDOF 5
ENDMDL
MODEL 2
REMARK VINA RESULT:      -7.8      2.219      3.578
REMARK  Name = 
REMARK  5 active torsions:
REMARK  status: ('A' for Active; 'I' for Inactive)
REMARK    1  A    between atoms: C_7  and  C_8
REMARK    2  A    between atoms: N_9  and  N_10
REMARK    3  A    between atoms: N_10  and  C_11
REMARK    4  A    between atoms: C_11  and  N_13
REMARK    5  A    between atoms: N_13  and  C_14
REMARK                            x       y       z     vdW  Elec       q    Type
REMARK                         _______ _______ _______ _____ _____    ______ ____
ROOT
ATOM      1  C   UNL     1       3.688   4.672  17.172  0.00  0.00    +0.000 C 
ATOM      2  N   UNL     1       4.429   4.069  16.304  0.00  0.00    +0.000 NA
ENDROOT
BRANCH   1   9
ATOM      3  F   UNL     1       1.456   1.924  21.510  0.00  0.00    +0.000 F 
ATOM      4  C   UNL     1       1.997   2.572  20.469  0.00  0.00    +0.000 A 
ATOM      5  C   UNL     1       3.374   2.683  20.362  0.00  0.00    +0.000 A 
ATOM      6  F   UNL     1       4.165   2.148  21.301  0.00  0.00    +0.000 F 
ATOM      7  C   UNL     1       3.939   3.358  19.288  0.00  0.00    +0.000 A 
ATOM      8  F   UNL     1       5.274   3.465  19.240  0.00  0.00    +0.000 F 
ATOM      9  C   UNL     1       3.122   3.928  18.306  0.00  0.00    +0.000 A 
ATOM     10  C   UNL     1       1.739   3.822  18.423  0.00  0.00    +0.000 A 
ATOM     11  F   UNL     1       0.933   4.374  17.504  0.00  0.00    +0.000 F 
ATOM     12  C   UNL     1       1.178   3.143  19.503  0.00  0.00    +0.000 A 
ATOM     13  F   UNL     1      -0.154   3.047  19.609  0.00  0.00    +0.000 F 
ENDBRANCH   1   9
BRANCH   2  14
ATOM     14  N   UNL     1       5.002   4.840  15.353  0.00  0.00    +0.000 N 
ATOM     15  H   UNL     1       4.704   5.805  15.242  0.00  0.00    +0.000 HD
BRANCH  14  16
ATOM     16  C   UNL     1       6.104   4.402  14.645  0.00  0.00    +0.000 C 
ATOM     17  S   UNL     1       6.096   3.732  13.115  0.00  0.00    +0.000 S 
BRANCH  16  18
ATOM     18  N   UNL     1       7.307   4.603  15.281  0.00  0.00    +0.000 N 
ATOM     19  H   UNL     1       8.087   4.067  14.916  0.00  0.00    +0.000 HD
BRANCH  18  20
ATOM     20  C   UNL     1       7.476   5.169  16.564  0.00  0.00    +0.000 A 
ATOM     21  C   UNL     1       7.364   6.546  16.714  0.00  0.00    +0.000 A 
ATOM     22  C   UNL     1       7.517   7.111  17.976  0.00  0.00    +0.000 A 
ATOM     23  C   UNL     1       7.811   6.280  19.046  0.00  0.00    +0.000 A 
ATOM     24  N   UNL     1       7.966   4.945  18.935  0.00  0.00    +0.000 NA
ATOM     25  C   UNL     1       7.811   4.423  17.696  0.00  0.00    +0.000 A 
ENDBRANCH  18  20
ENDBRANCH  16  18
ENDBRANCH  14  16
ENDBRANCH   2  14
TORSDOF 5
ENDMDL
MODEL 3
REMARK VINA RESULT:      -7.8      0.216      2.228
REMARK  Name = 
REMARK  5 active torsions:
REMARK  status: ('A' for Active; 'I' for Inactive)
REMARK    1  A    between atoms: C_7  and  C_8
REMARK    2  A    between atoms: N_9  and  N_10
REMARK    3  A    between atoms: N_10  and  C_11
REMARK    4  A    between atoms: C_11  and  N_13
REMARK    5  A    between atoms: N_13  and  C_14
REMARK                            x       y       z     vdW  Elec       q    Type
REMARK                         _______ _______ _______ _____ _____    ______ ____
ROOT
ATOM      1  C   UNL     1       5.009   4.080  17.778  0.00  0.00    +0.000 C 
ATOM      2  N   UNL     1       6.215   4.095  18.237  0.00  0.00    +0.000 NA
ENDROOT
BRANCH   1   9
ATOM      3  F   UNL     1       0.776   2.976  21.271  0.00  0.00    +0.000 F 
ATOM      4  C   UNL     1       1.782   3.239  20.426  0.00  0.00    +0.000 A 
ATOM      5  C   UNL     1       2.136   2.309  19.461  0.00  0.00    +0.000 A 
ATOM      6  F   UNL     1       1.477   1.146  19.376  0.00  0.00    +0.000 F 
ATOM      7  C   UNL     1       3.181   2.574  18.586  0.00  0.00    +0.000 A 
ATOM      8  F   UNL     1       3.506   1.635  17.688  0.00  0.00    +0.000 F 
ATOM      9  C   UNL     1       3.881   3.782  18.671  0.00  0.00    +0.000 A 
ATOM     10  C   UNL     1       3.529   4.708  19.648  0.00  0.00    +0.000 A 
ATOM     11  F   UNL     1       4.195   5.866  19.761  0.00  0.00    +0.000 F 
ATOM     12  C   UNL     1       2.478   4.437  20.523  0.00  0.00    +0.000 A 
ATOM     13  F   UNL     1       2.145   5.333  21.462  0.00  0.00    +0.000 F 
ENDBRANCH   1   9
BRANCH   2  14
ATOM     14  N   UNL     1       7.187   4.484  17.383  0.00  0.00    +0.000 N 
ATOM     15  H   UNL     1       7.954   3.852  17.174  0.00  0.00    +0.000 HD
BRANCH  14  16
ATOM     16  C   UNL     1       7.072   5.650  16.650  0.00  0.00    +0.000 C 
ATOM     17  S   UNL     1       6.377   7.078  17.165  0.00  0.00    +0.000 S 
BRANCH  16  18
ATOM     18  N   UNL     1       7.643   5.597  15.399  0.00  0.00    +0.000 N 
ATOM     19  H   UNL     1       8.334   6.314  15.206  0.00  0.00    +0.000 HD
BRANCH  18  20
ATOM     20  C   UNL     1       7.120   4.908  14.284  0.00  0.00    +0.000 A 
ATOM     21  C   UNL     1       7.758   5.030  13.055  0.00  0.00    +0.000 A 
ATOM     22  C   UNL     1       7.256   4.346  11.952  0.00  0.00    +0.000 A 
ATOM     23  C   UNL     1       6.109   3.584  12.108  0.00  0.00    +0.000 A 
ATOM     24  N   UNL     1       5.440   3.470  13.274  0.00  0.00    +0.000 NA
ATOM     25  C   UNL     1       5.950   4.146  14.329  0.00  0.00    +0.000 A 
ENDBRANCH  18  20
ENDBRANCH  16  18
ENDBRANCH  14  16
ENDBRANCH   2  14
TORSDOF 5
ENDMDL
MODEL 4
REMARK VINA RESULT:      -7.8      1.331      2.584
REMARK  Name = 
REMARK  5 active torsions:
REMARK  status: ('A' for Active; 'I' for Inactive)
REMARK    1  A    between atoms: C_7  and  C_8
REMARK    2  A    between atoms: N_9  and  N_10
REMARK    3  A    between atoms: N_10  and  C_11
REMARK    4  A    between atoms: C_11  and  N_13
REMARK    5  A    between atoms: N_13  and  C_14
REMARK                            x       y       z     vdW  Elec       q    Type
REMARK                         _______ _______ _______ _____ _____    ______ ____
ROOT
ATOM      1  C   UNL     1       4.490   4.883  17.405  0.00  0.00    +0.000 C 
ATOM      2  N   UNL     1       4.436   6.063  16.885  0.00  0.00    +0.000 NA
ENDROOT
BRANCH   1   9
ATOM      3  F   UNL     1       0.485   3.083  20.878  0.00  0.00    +0.000 F 
ATOM      4  C   UNL     1       1.436   3.518  20.039  0.00  0.00    +0.000 A 
ATOM      5  C   UNL     1       1.455   3.076  18.726  0.00  0.00    +0.000 A 
ATOM      6  F   UNL     1       0.528   2.209  18.296  0.00  0.00    +0.000 F 
ATOM      7  C   UNL     1       2.441   3.518  17.854  0.00  0.00    +0.000 A 
ATOM      8  F   UNL     1       2.437   3.042  16.602  0.00  0.00    +0.000 F 
ATOM      9  C   UNL     1       3.418   4.417  18.295  0.00  0.00    +0.000 A 
ATOM     10  C   UNL     1       3.401   4.851  19.617  0.00  0.00    +0.000 A 
ATOM     11  F   UNL     1       4.336   5.698  20.069  0.00  0.00    +0.000 F 
ATOM     12  C   UNL     1       2.408   4.403  20.488  0.00  0.00    +0.000 A 
ATOM     13  F   UNL     1       2.398   4.824  21.759  0.00  0.00    +0.000 F 
ENDBRANCH   1   9
BRANCH   2  14
ATOM     14  N   UNL     1       5.401   6.379  15.992  0.00  0.00    +0.000 N 
ATOM     15  H   UNL     1       5.142   6.772  15.092  0.00  0.00    +0.000 HD
BRANCH  14  16
ATOM     16  C   UNL     1       6.737   6.348  16.341  0.00  0.00    +0.000 C 
ATOM     17  S   UNL     1       7.470   7.255  17.537  0.00  0.00    +0.000 S 
BRANCH  16  18
ATOM     18  N   UNL     1       7.488   5.431  15.642  0.00  0.00    +0.000 N 
ATOM     19  H   UNL     1       8.462   5.366  15.919  0.00  0.00    +0.000 HD
BRANCH  18  20
ATOM     20  C   UNL     1       7.147   4.869  14.392  0.00  0.00    +0.000 A 
ATOM     21  C   UNL     1       6.166   3.886  14.340  0.00  0.00    +0.000 A 
ATOM     22  C   UNL     1       5.816   3.335  13.111  0.00  0.00    +0.000 A 
ATOM     23  C   UNL     1       6.484   3.764  11.974  0.00  0.00    +0.000 A 
ATOM     24  N   UNL     1       7.467   4.687  11.989  0.00  0.00    +0.000 NA
ATOM     25  C   UNL     1       7.787   5.206  13.198  0.00  0.00    +0.000 A 
ENDBRANCH  18  20
ENDBRANCH  16  18
ENDBRANCH  14  16
ENDBRANCH   2  14
TORSDOF 5
ENDMDL
MODEL 5
REMARK VINA RESULT:      -7.6      0.690      1.059
REMARK  Name = 
REMARK  5 active torsions:
REMARK  status: ('A' for Active; 'I' for Inactive)
REMARK    1  A    between atoms: C_7  and  C_8
REMARK    2  A    between atoms: N_9  and  N_10
REMARK    3  A    between atoms: N_10  and  C_11
REMARK    4  A    between atoms: C_11  and  N_13
REMARK    5  A    between atoms: N_13  and  C_14
REMARK                            x       y       z     vdW  Elec       q    Type
REMARK                         _______ _______ _______ _____ _____    ______ ____
ROOT
ATOM      1  C   UNL     1       4.874   4.110  17.623  0.00  0.00    +0.000 C 
ATOM      2  N   UNL     1       6.085   4.052  18.066  0.00  0.00    +0.000 NA
ENDROOT
BRANCH   1   9
ATOM      3  F   UNL     1       0.490   3.208  20.986  0.00  0.00    +0.000 F 
ATOM      4  C   UNL     1       1.547   3.423  20.190  0.00  0.00    +0.000 A 
ATOM      5  C   UNL     1       2.410   4.474  20.455  0.00  0.00    +0.000 A 
ATOM      6  F   UNL     1       2.186   5.279  21.502  0.00  0.00    +0.000 F 
ATOM      7  C   UNL     1       3.504   4.705  19.630  0.00  0.00    +0.000 A 
ATOM      8  F   UNL     1       4.296   5.750  19.908  0.00  0.00    +0.000 F 
ATOM      9  C   UNL     1       3.743   3.876  18.529  0.00  0.00    +0.000 A 
ATOM     10  C   UNL     1       2.867   2.827  18.262  0.00  0.00    +0.000 A 
ATOM     11  F   UNL     1       3.064   2.029  17.203  0.00  0.00    +0.000 F 
ATOM     12  C   UNL     1       1.772   2.601  19.094  0.00  0.00    +0.000 A 
ATOM     13  F   UNL     1       0.933   1.590  18.829  0.00  0.00    +0.000 F 
ENDBRANCH   1   9
BRANCH   2  14
ATOM     14  N   UNL     1       7.067   4.386  17.199  0.00  0.00    +0.000 N 
ATOM     15  H   UNL     1       7.714   3.672  16.875  0.00  0.00    +0.000 HD
BRANCH  14  16
ATOM     16  C   UNL     1       7.105   5.633  16.606  0.00  0.00    +0.000 C 
ATOM     17  S   UNL     1       6.690   7.083  17.322  0.00  0.00    +0.000 S 
BRANCH  16  18
ATOM     18  N   UNL     1       7.585   5.636  15.316  0.00  0.00    +0.000 N 
ATOM     19  H   UNL     1       8.202   6.407  15.084  0.00  0.00    +0.000 HD
BRANCH  18  20
ATOM     20  C   UNL     1       7.036   4.919  14.231  0.00  0.00    +0.000 A 
ATOM     21  C   UNL     1       5.814   4.277  14.397  0.00  0.00    +0.000 A 
ATOM     22  C   UNL     1       5.259   3.577  13.329  0.00  0.00    +0.000 A 
ATOM     23  C   UNL     1       5.963   3.515  12.136  0.00  0.00    +0.000 A 
ATOM     24  N   UNL     1       7.167   4.093  11.948  0.00  0.00    +0.000 NA
ATOM     25  C   UNL     1       7.682   4.766  13.003  0.00  0.00    +0.000 A 
ENDBRANCH  18  20
ENDBRANCH  16  18
ENDBRANCH  14  16
ENDBRANCH   2  14
TORSDOF 5
ENDMDL
MODEL 6
REMARK VINA RESULT:      -7.6      2.295      3.690
REMARK  Name = 
REMARK  5 active torsions:
REMARK  status: ('A' for Active; 'I' for Inactive)
REMARK    1  A    between atoms: C_7  and  C_8
REMARK    2  A    between atoms: N_9  and  N_10
REMARK    3  A    between atoms: N_10  and  C_11
REMARK    4  A    between atoms: C_11  and  N_13
REMARK    5  A    between atoms: N_13  and  C_14
REMARK                            x       y       z     vdW  Elec       q    Type
REMARK                         _______ _______ _______ _____ _____    ______ ____
ROOT
ATOM      1  C   UNL     1       3.974   4.260  16.992  0.00  0.00    +0.000 C 
ATOM      2  N   UNL     1       4.225   5.516  16.839  0.00  0.00    +0.000 NA
ENDROOT
BRANCH   1   9
ATOM      3  F   UNL     1       1.408   2.345  21.585  0.00  0.00    +0.000 F 
ATOM      4  C   UNL     1       2.018   2.814  20.487  0.00  0.00    +0.000 A 
ATOM      5  C   UNL     1       1.277   3.438  19.497  0.00  0.00    +0.000 A 
ATOM      6  F   UNL     1      -0.050   3.568  19.633  0.00  0.00    +0.000 F 
ATOM      7  C   UNL     1       1.902   3.921  18.355  0.00  0.00    +0.000 A 
ATOM      8  F   UNL     1       1.142   4.493  17.412  0.00  0.00    +0.000 F 
ATOM      9  C   UNL     1       3.285   3.784  18.199  0.00  0.00    +0.000 A 
ATOM     10  C   UNL     1       4.025   3.147  19.192  0.00  0.00    +0.000 A 
ATOM     11  F   UNL     1       5.349   2.988  19.059  0.00  0.00    +0.000 F 
ATOM     12  C   UNL     1       3.391   2.665  20.336  0.00  0.00    +0.000 A 
ATOM     13  F   UNL     1       4.109   2.052  21.287  0.00  0.00    +0.000 F 
ENDBRANCH   1   9
BRANCH   2  14
ATOM     14  N   UNL     1       4.761   5.891  15.656  0.00  0.00    +0.000 N 
ATOM     15  H   UNL     1       4.492   6.778  15.242  0.00  0.00    +0.000 HD
BRANCH  14  16
ATOM     16  C   UNL     1       5.798   5.180  15.084  0.00  0.00    +0.000 C 
ATOM     17  S   UNL     1       5.660   4.000  13.910  0.00  0.00    +0.000 S 
BRANCH  16  18
ATOM     18  N   UNL     1       7.051   5.550  15.517  0.00  0.00    +0.000 N 
ATOM     19  H   UNL     1       7.802   5.400  14.852  0.00  0.00    +0.000 HD
BRANCH  18  20
ATOM     20  C   UNL     1       7.429   5.757  16.862  0.00  0.00    +0.000 A 
ATOM     21  C   UNL     1       7.663   7.054  17.304  0.00  0.00    +0.000 A 
ATOM     22  C   UNL     1       8.025   7.268  18.631  0.00  0.00    +0.000 A 
ATOM     23  C   UNL     1       8.174   6.171  19.466  0.00  0.00    +0.000 A 
ATOM     24  N   UNL     1       7.994   4.897  19.064  0.00  0.00    +0.000 NA
ATOM     25  C   UNL     1       7.642   4.718  17.770  0.00  0.00    +0.000 A 
ENDBRANCH  18  20
ENDBRANCH  16  18
ENDBRANCH  14  16
ENDBRANCH   2  14
TORSDOF 5
ENDMDL
MODEL 7
REMARK VINA RESULT:      -7.6      2.277      3.622
REMARK  Name = 
REMARK  5 active torsions:
REMARK  status: ('A' for Active; 'I' for Inactive)
REMARK    1  A    between atoms: C_7  and  C_8
REMARK    2  A    between atoms: N_9  and  N_10
REMARK    3  A    between atoms: N_10  and  C_11
REMARK    4  A    between atoms: C_11  and  N_13
REMARK    5  A    between atoms: N_13  and  C_14
REMARK                            x       y       z     vdW  Elec       q    Type
REMARK                         _______ _______ _______ _____ _____    ______ ____
ROOT
ATOM      1  C   UNL     1       3.812   4.623  17.347  0.00  0.00    +0.000 C 
ATOM      2  N   UNL     1       4.158   3.968  16.289  0.00  0.00    +0.000 NA
ENDROOT
BRANCH   1   9
ATOM      3  F   UNL     1       1.377   2.048  21.682  0.00  0.00    +0.000 F 
ATOM      4  C   UNL     1       1.966   2.654  20.641  0.00  0.00    +0.000 A 
ATOM      5  C   UNL     1       3.347   2.660  20.534  0.00  0.00    +0.000 A 
ATOM      6  F   UNL     1       4.096   2.064  21.472  0.00  0.00    +0.000 F 
ATOM      7  C   UNL     1       3.963   3.291  19.461  0.00  0.00    +0.000 A 
ATOM      8  F   UNL     1       5.301   3.295  19.412  0.00  0.00    +0.000 F 
ATOM      9  C   UNL     1       3.191   3.923  18.479  0.00  0.00    +0.000 A 
ATOM     10  C   UNL     1       1.804   3.923  18.597  0.00  0.00    +0.000 A 
ATOM     11  F   UNL     1       1.043   4.536  17.679  0.00  0.00    +0.000 F 
ATOM     12  C   UNL     1       1.193   3.287  19.676  0.00  0.00    +0.000 A 
ATOM     13  F   UNL     1      -0.143   3.293  19.783  0.00  0.00    +0.000 F 
ENDBRANCH   1   9
BRANCH   2  14
ATOM     14  N   UNL     1       4.821   4.660  15.336  0.00  0.00    +0.000 N 
ATOM     15  H   UNL     1       4.528   5.605  15.106  0.00  0.00    +0.000 HD
BRANCH  14  16
ATOM     16  C   UNL     1       5.995   4.180  14.789  0.00  0.00    +0.000 C 
ATOM     17  S   UNL     1       6.229   3.705  13.206  0.00  0.00    +0.000 S 
BRANCH  16  18
ATOM     18  N   UNL     1       7.061   4.155  15.660  0.00  0.00    +0.000 N 
ATOM     19  H   UNL     1       7.500   3.249  15.783  0.00  0.00    +0.000 HD
BRANCH  18  20
ATOM     20  C   UNL     1       7.352   5.135  16.633  0.00  0.00    +0.000 A 
ATOM     21  C   UNL     1       7.653   4.730  17.929  0.00  0.00    +0.000 A 
ATOM     22  C   UNL     1       7.953   5.689  18.892  0.00  0.00    +0.000 A 
ATOM     23  C   UNL     1       7.910   7.028  18.534  0.00  0.00    +0.000 A 
ATOM     24  N   UNL     1       7.585   7.461  17.299  0.00  0.00    +0.000 NA
ATOM     25  C   UNL     1       7.299   6.508  16.383  0.00  0.00    +0.000 A 
ENDBRANCH  18  20
ENDBRANCH  16  18
ENDBRANCH  14  16
ENDBRANCH   2  14
TORSDOF 5
ENDMDL
MODEL 8
REMARK VINA RESULT:      -7.5      3.549      5.346
REMARK  Name = 
REMARK  5 active torsions:
REMARK  status: ('A' for Active; 'I' for Inactive)
REMARK    1  A    between atoms: C_7  and  C_8
REMARK    2  A    between atoms: N_9  and  N_10
REMARK    3  A    between atoms: N_10  and  C_11
REMARK    4  A    between atoms: C_11  and  N_13
REMARK    5  A    between atoms: N_13  and  C_14
REMARK                            x       y       z     vdW  Elec       q    Type
REMARK                         _______ _______ _______ _____ _____    ______ ____
ROOT
ATOM      1  C   UNL     1       2.969   6.341  18.459  0.00  0.00    +0.000 C 
ATOM      2  N   UNL     1       2.322   5.320  18.005  0.00  0.00    +0.000 NA
ENDROOT
BRANCH   1   9
ATOM      3  F   UNL     1       0.126  10.555  20.805  0.00  0.00    +0.000 F 
ATOM      4  C   UNL     1       0.816   9.554  20.242  0.00  0.00    +0.000 A 
ATOM      5  C   UNL     1       1.276   9.677  18.940  0.00  0.00    +0.000 A 
ATOM      6  F   UNL     1       1.028  10.794  18.244  0.00  0.00    +0.000 F 
ATOM      7  C   UNL     1       1.987   8.640  18.349  0.00  0.00    +0.000 A 
ATOM      8  F   UNL     1       2.388   8.793  17.080  0.00  0.00    +0.000 F 
ATOM      9  C   UNL     1       2.244   7.466  19.064  0.00  0.00    +0.000 A 
ATOM     10  C   UNL     1       1.771   7.343  20.368  0.00  0.00    +0.000 A 
ATOM     11  F   UNL     1       1.990   6.221  21.069  0.00  0.00    +0.000 F 
ATOM     12  C   UNL     1       1.059   8.388  20.956  0.00  0.00    +0.000 A 
ATOM     13  F   UNL     1       0.606   8.261  22.210  0.00  0.00    +0.000 F 
ENDBRANCH   1   9
BRANCH   2  14
ATOM     14  N   UNL     1       3.061   4.279  17.563  0.00  0.00    +0.000 N 
ATOM     15  H   UNL     1       2.998   3.996  16.589  0.00  0.00    +0.000 HD
BRANCH  14  16
ATOM     16  C   UNL     1       4.032   3.701  18.358  0.00  0.00    +0.000 C 
ATOM     17  S   UNL     1       3.786   2.935  19.821  0.00  0.00    +0.000 S 
BRANCH  16  18
ATOM     18  N   UNL     1       5.301   3.742  17.829  0.00  0.00    +0.000 N 
ATOM     19  H   UNL     1       5.774   2.847  17.766  0.00  0.00    +0.000 HD
BRANCH  18  20
ATOM     20  C   UNL     1       6.111   4.893  17.718  0.00  0.00    +0.000 A 
ATOM     21  C   UNL     1       6.907   5.263  18.796  0.00  0.00    +0.000 A 
ATOM     22  C   UNL     1       7.717   6.390  18.692  0.00  0.00    +0.000 A 
ATOM     23  C   UNL     1       7.680   7.131  17.520  0.00  0.00    +0.000 A 
ATOM     24  N   UNL     1       6.893   6.826  16.469  0.00  0.00    +0.000 NA
ATOM     25  C   UNL     1       6.116   5.726  16.597  0.00  0.00    +0.000 A 
ENDBRANCH  18  20
ENDBRANCH  16  18
ENDBRANCH  14  16
ENDBRANCH   2  14
TORSDOF 5
ENDMDL
MODEL 9
REMARK VINA RESULT:      -7.5      5.201      7.836
REMARK  Name = 
REMARK  5 active torsions:
REMARK  status: ('A' for Active; 'I' for Inactive)
REMARK    1  A    between atoms: C_7  and  C_8
REMARK    2  A    between atoms: N_9  and  N_10
REMARK    3  A    between atoms: N_10  and  C_11
REMARK    4  A    between atoms: C_11  and  N_13
REMARK    5  A    between atoms: N_13  and  C_14
REMARK                            x       y       z     vdW  Elec       q    Type
REMARK                         _______ _______ _______ _____ _____    ______ ____
ROOT
ATOM      1  C   UNL     1       2.492   7.443  18.774  0.00  0.00    +0.000 C 
ATOM      2  N   UNL     1       1.760   8.011  17.876  0.00  0.00    +0.000 NA
ENDROOT
BRANCH   1   9
ATOM      3  F   UNL     1       3.051   1.876  18.982  0.00  0.00    +0.000 F 
ATOM      4  C   UNL     1       2.913   3.208  18.921  0.00  0.00    +0.000 A 
ATOM      5  C   UNL     1       3.527   3.922  17.905  0.00  0.00    +0.000 A 
ATOM      6  F   UNL     1       4.263   3.283  16.985  0.00  0.00    +0.000 F 
ATOM      7  C   UNL     1       3.392   5.303  17.840  0.00  0.00    +0.000 A 
ATOM      8  F   UNL     1       4.025   5.955  16.856  0.00  0.00    +0.000 F 
ATOM      9  C   UNL     1       2.632   5.981  18.799  0.00  0.00    +0.000 A 
ATOM     10  C   UNL     1       2.026   5.261  19.824  0.00  0.00    +0.000 A 
ATOM     11  F   UNL     1       1.307   5.889  20.765  0.00  0.00    +0.000 F 
ATOM     12  C   UNL     1       2.165   3.875  19.883  0.00  0.00    +0.000 A 
ATOM     13  F   UNL     1       1.579   3.189  20.873  0.00  0.00    +0.000 F 
ENDBRANCH   1   9
BRANCH   2  14
ATOM     14  N   UNL     1       1.767   9.363  17.850  0.00  0.00    +0.000 N 
ATOM     15  H   UNL     1       2.479   9.850  17.314  0.00  0.00    +0.000 HD
BRANCH  14  16
ATOM     16  C   UNL     1       0.727  10.095  18.389  0.00  0.00    +0.000 C 
ATOM     17  S   UNL     1      -0.834  10.177  17.802  0.00  0.00    +0.000 S 
BRANCH  16  18
ATOM     18  N   UNL     1       1.042  10.765  19.549  0.00  0.00    +0.000 N 
ATOM     19  H   UNL     1       1.930  11.254  19.540  0.00  0.00    +0.000 HD
BRANCH  18  20
ATOM     20  C   UNL     1       0.458  10.540  20.815  0.00  0.00    +0.000 A 
ATOM     21  C   UNL     1       0.259   9.232  21.243  0.00  0.00    +0.000 A 
ATOM     22  C   UNL     1      -0.306   9.002  22.493  0.00  0.00    +0.000 A 
ATOM     23  C   UNL     1      -0.684  10.090  23.264  0.00  0.00    +0.000 A 
ATOM     24  N   UNL     1      -0.542  11.371  22.868  0.00  0.00    +0.000 NA
ATOM     25  C   UNL     1       0.010  11.566  21.648  0.00  0.00    +0.000 A 
ENDBRANCH  18  20
ENDBRANCH  16  18
ENDBRANCH  14  16
ENDBRANCH   2  14
TORSDOF 5
ENDMDL
