MODEL 1
REMARK VINA RESULT:      -6.8      0.000      0.000
REMARK  Name = 
REMARK  6 active torsions:
REMARK  status: ('A' for Active; 'I' for Inactive)
REMARK    1  A    between atoms: N_1  and  C_2
REMARK    2  A    between atoms: C_2  and  C_3
REMARK    3  A    between atoms: C_3  and  C_4
REMARK    4  A    between atoms: C_4  and  C_5
REMARK    5  A    between atoms: C_5  and  N_6
REMARK    6  A    between atoms: N_6  and  C_7
REMARK                            x       y       z     vdW  Elec       q    Type
REMARK                         _______ _______ _______ _____ _____    ______ ____
ROOT
ATOM      1  C   UNL     1       6.366   5.432  16.724  0.00  0.00    +0.000 A 
ATOM      2  C   UNL     1       7.352   6.032  17.510  0.00  0.00    +0.000 A 
ATOM      3  C   UNL     1       7.358   5.815  18.874  0.00  0.00    +0.000 A 
ATOM      4  N   UNL     1       6.442   5.074  19.517  0.00  0.00    +0.000 NA
ATOM      5  C   UNL     1       5.460   4.526  18.791  0.00  0.00    +0.000 A 
ATOM      6  C   UNL     1       4.501   3.802  19.482  0.00  0.00    +0.000 A 
ATOM      7  C   UNL     1       3.434   3.205  18.822  0.00  0.00    +0.000 A 
ATOM      8 CL   UNL     1       2.258   2.327  19.721  0.00  0.00    +0.000 Cl
ATOM      9  C   UNL     1       3.308   3.322  17.445  0.00  0.00    +0.000 A 
ATOM     10  C   UNL     1       4.264   4.049  16.731  0.00  0.00    +0.000 A 
ATOM     11  C   UNL     1       5.361   4.664  17.386  0.00  0.00    +0.000 A 
ENDROOT
BRANCH   1  12
ATOM     12  N   UNL     1       6.299   5.654  15.331  0.00  0.00    +0.000 N 
ATOM     13  H   UNL     1       5.356   5.914  15.044  0.00  0.00    +0.000 HD
BRANCH  12  14
ATOM     14  C   UNL     1       6.932   4.700  14.422  0.00  0.00    +0.000 C 
BRANCH  14  15
ATOM     15  C   UNL     1       5.898   3.970  13.571  0.00  0.00    +0.000 C 
BRANCH  15  16
ATOM     16  C   UNL     1       6.469   3.476  12.237  0.00  0.00    +0.000 C 
BRANCH  16  17
ATOM     17  C   UNL     1       5.718   2.260  11.697  0.00  0.00    +0.000 C 
BRANCH  17  18
ATOM     18  N   UNL     1       6.638   1.257  11.171  0.00  0.00    +0.000 NA
ATOM     19  H   UNL     1       6.885   1.492  10.212  0.00  0.00    +0.000 HD
ATOM     20  H   UNL     1       6.171   0.352  11.135  0.00  0.00    +0.000 HD
ENDBRANCH  17  18
ENDBRANCH  16  17
ENDBRANCH  15  16
ENDBRANCH  14  15
ENDBRANCH  12  14
ENDBRANCH   1  12
TORSDOF 6
ENDMDL
MODEL 2
REMARK VINA RESULT:      -6.7      1.173      1.206
REMARK  Name = 
REMARK  6 active torsions:
REMARK  status: ('A' for Active; 'I' for Inactive)
REMARK    1  A    between atoms: N_1  and  C_2
REMARK    2  A    between atoms: C_2  and  C_3
REMARK    3  A    between atoms: C_3  and  C_4
REMARK    4  A    between atoms: C_4  and  C_5
REMARK    5  A    between atoms: C_5  and  N_6
REMARK    6  A    between atoms: N_6  and  C_7
REMARK                            x       y       z     vdW  Elec       q    Type
REMARK                         _______ _______ _______ _____ _____    ______ ____
ROOT
ATOM      1  C   UNL     1       6.158   4.142  16.512  0.00  0.00    +0.000 A 
ATOM      2  C   UNL     1       7.385   4.591  17.006  0.00  0.00    +0.000 A 
ATOM      3  C   UNL     1       7.462   5.062  18.303  0.00  0.00    +0.000 A 
ATOM      4  N   UNL     1       6.410   5.148  19.132  0.00  0.00    +0.000 NA
ATOM      5  C   UNL     1       5.215   4.765  18.665  0.00  0.00    +0.000 A 
ATOM      6  C   UNL     1       4.135   4.905  19.524  0.00  0.00    +0.000 A 
ATOM      7  C   UNL     1       2.851   4.549  19.130  0.00  0.00    +0.000 A 
ATOM      8 CL   UNL     1       1.537   4.751  20.223  0.00  0.00    +0.000 Cl
ATOM      9  C   UNL     1       2.623   4.041  17.858  0.00  0.00    +0.000 A 
ATOM     10  C   UNL     1       3.698   3.896  16.978  0.00  0.00    +0.000 A 
ATOM     11  C   UNL     1       5.016   4.251  17.362  0.00  0.00    +0.000 A 
ENDROOT
BRANCH   1  12
ATOM     12  N   UNL     1       6.023   3.687  15.182  0.00  0.00    +0.000 N 
ATOM     13  H   UNL     1       6.407   2.749  15.074  0.00  0.00    +0.000 HD
BRANCH  12  14
ATOM     14  C   UNL     1       6.373   4.580  14.079  0.00  0.00    +0.000 C 
BRANCH  14  15
ATOM     15  C   UNL     1       6.685   3.800  12.807  0.00  0.00    +0.000 C 
BRANCH  15  16
ATOM     16  C   UNL     1       5.428   3.245  12.129  0.00  0.00    +0.000 C 
BRANCH  16  17
ATOM     17  C   UNL     1       5.678   1.897  11.452  0.00  0.00    +0.000 C 
BRANCH  17  18
ATOM     18  N   UNL     1       7.105   1.622  11.327  0.00  0.00    +0.000 NA
ATOM     19  H   UNL     1       7.256   0.934  10.591  0.00  0.00    +0.000 HD
ATOM     20  H   UNL     1       7.449   1.202  12.189  0.00  0.00    +0.000 HD
ENDBRANCH  17  18
ENDBRANCH  16  17
ENDBRANCH  15  16
ENDBRANCH  14  15
ENDBRANCH  12  14
ENDBRANCH   1  12
TORSDOF 6
ENDMDL
MODEL 3
REMARK VINA RESULT:      -6.5      2.869      4.843
REMARK  Name = 
REMARK  6 active torsions:
REMARK  status: ('A' for Active; 'I' for Inactive)
REMARK    1  A    between atoms: N_1  and  C_2
REMARK    2  A    between atoms: C_2  and  C_3
REMARK    3  A    between atoms: C_3  and  C_4
REMARK    4  A    between atoms: C_4  and  C_5
REMARK    5  A    between atoms: C_5  and  N_6
REMARK    6  A    between atoms: N_6  and  C_7
REMARK                            x       y       z     vdW  Elec       q    Type
REMARK                         _______ _______ _______ _____ _____    ______ ____
ROOT
ATOM      1  C   UNL     1       4.023   4.257  17.248  0.00  0.00    +0.000 A 
ATOM      2  C   UNL     1       4.035   2.934  17.698  0.00  0.00    +0.000 A 
ATOM      3  C   UNL     1       3.396   2.614  18.880  0.00  0.00    +0.000 A 
ATOM      4  N   UNL     1       2.777   3.511  19.662  0.00  0.00    +0.000 NA
ATOM      5  C   UNL     1       2.791   4.793  19.275  0.00  0.00    +0.000 A 
ATOM      6  C   UNL     1       2.183   5.708  20.121  0.00  0.00    +0.000 A 
ATOM      7  C   UNL     1       2.157   7.064  19.816  0.00  0.00    +0.000 A 
ATOM      8 CL   UNL     1       1.403   8.167  20.901  0.00  0.00    +0.000 Cl
ATOM      9  C   UNL     1       2.742   7.531  18.648  0.00  0.00    +0.000 A 
ATOM     10  C   UNL     1       3.361   6.624  17.784  0.00  0.00    +0.000 A 
ATOM     11  C   UNL     1       3.397   5.237  18.076  0.00  0.00    +0.000 A 
ENDROOT
BRANCH   1  12
ATOM     12  N   UNL     1       4.692   4.637  16.065  0.00  0.00    +0.000 N 
ATOM     13  H   UNL     1       4.140   4.408  15.239  0.00  0.00    +0.000 HD
BRANCH  12  14
ATOM     14  C   UNL     1       6.112   4.322  15.910  0.00  0.00    +0.000 C 
BRANCH  14  15
ATOM     15  C   UNL     1       6.991   5.341  16.628  0.00  0.00    +0.000 C 
BRANCH  15  16
ATOM     16  C   UNL     1       7.576   4.802  17.937  0.00  0.00    +0.000 C 
BRANCH  16  17
ATOM     17  C   UNL     1       7.037   5.539  19.163  0.00  0.00    +0.000 C 
BRANCH  17  18
ATOM     18  N   UNL     1       7.968   5.459  20.283  0.00  0.00    +0.000 NA
ATOM     19  H   UNL     1       8.794   4.933  20.002  0.00  0.00    +0.000 HD
ATOM     20  H   UNL     1       7.539   4.936  21.046  0.00  0.00    +0.000 HD
ENDBRANCH  17  18
ENDBRANCH  16  17
ENDBRANCH  15  16
ENDBRANCH  14  15
ENDBRANCH  12  14
ENDBRANCH   1  12
TORSDOF 6
ENDMDL
MODEL 4
REMARK VINA RESULT:      -6.5      2.948      4.274
REMARK  Name = 
REMARK  6 active torsions:
REMARK  status: ('A' for Active; 'I' for Inactive)
REMARK    1  A    between atoms: N_1  and  C_2
REMARK    2  A    between atoms: C_2  and  C_3
REMARK    3  A    between atoms: C_3  and  C_4
REMARK    4  A    between atoms: C_4  and  C_5
REMARK    5  A    between atoms: C_5  and  N_6
REMARK    6  A    between atoms: N_6  and  C_7
REMARK                            x       y       z     vdW  Elec       q    Type
REMARK                         _______ _______ _______ _____ _____    ______ ____
ROOT
ATOM      1  C   UNL     1       3.776   5.746  17.669  0.00  0.00    +0.000 A 
ATOM      2  C   UNL     1       3.434   7.100  17.695  0.00  0.00    +0.000 A 
ATOM      3  C   UNL     1       2.649   7.582  18.724  0.00  0.00    +0.000 A 
ATOM      4  N   UNL     1       2.155   6.816  19.709  0.00  0.00    +0.000 NA
ATOM      5  C   UNL     1       2.432   5.507  19.681  0.00  0.00    +0.000 A 
ATOM      6  C   UNL     1       1.874   4.729  20.684  0.00  0.00    +0.000 A 
ATOM      7  C   UNL     1       2.089   3.356  20.735  0.00  0.00    +0.000 A 
ATOM      8 CL   UNL     1       1.366   2.426  21.990  0.00  0.00    +0.000 Cl
ATOM      9  C   UNL     1       2.876   2.734  19.776  0.00  0.00    +0.000 A 
ATOM     10  C   UNL     1       3.445   3.502  18.756  0.00  0.00    +0.000 A 
ATOM     11  C   UNL     1       3.238   4.903  18.688  0.00  0.00    +0.000 A 
ENDROOT
BRANCH   1  12
ATOM     12  N   UNL     1       4.545   5.201  16.618  0.00  0.00    +0.000 N 
ATOM     13  H   UNL     1       4.947   4.303  16.883  0.00  0.00    +0.000 HD
BRANCH  12  14
ATOM     14  C   UNL     1       5.485   6.060  15.898  0.00  0.00    +0.000 C 
BRANCH  14  15
ATOM     15  C   UNL     1       6.925   5.787  16.321  0.00  0.00    +0.000 C 
BRANCH  15  16
ATOM     16  C   UNL     1       7.334   6.570  17.574  0.00  0.00    +0.000 C 
BRANCH  16  17
ATOM     17  C   UNL     1       7.526   5.664  18.790  0.00  0.00    +0.000 C 
BRANCH  17  18
ATOM     18  N   UNL     1       7.032   4.317  18.532  0.00  0.00    +0.000 NA
ATOM     19  H   UNL     1       6.095   4.368  18.134  0.00  0.00    +0.000 HD
ATOM     20  H   UNL     1       6.942   3.812  19.413  0.00  0.00    +0.000 HD
ENDBRANCH  17  18
ENDBRANCH  16  17
ENDBRANCH  15  16
ENDBRANCH  14  15
ENDBRANCH  12  14
ENDBRANCH   1  12
TORSDOF 6
ENDMDL
MODEL 5
REMARK VINA RESULT:      -6.5      3.177      5.250
REMARK  Name = 
REMARK  6 active torsions:
REMARK  status: ('A' for Active; 'I' for Inactive)
REMARK    1  A    between atoms: N_1  and  C_2
REMARK    2  A    between atoms: C_2  and  C_3
REMARK    3  A    between atoms: C_3  and  C_4
REMARK    4  A    between atoms: C_4  and  C_5
REMARK    5  A    between atoms: C_5  and  N_6
REMARK    6  A    between atoms: N_6  and  C_7
REMARK                            x       y       z     vdW  Elec       q    Type
REMARK                         _______ _______ _______ _____ _____    ______ ____
ROOT
ATOM      1  C   UNL     1       5.446   4.814  18.748  0.00  0.00    +0.000 A 
ATOM      2  C   UNL     1       6.485   5.428  19.450  0.00  0.00    +0.000 A 
ATOM      3  C   UNL     1       7.614   5.839  18.770  0.00  0.00    +0.000 A 
ATOM      4  N   UNL     1       7.802   5.657  17.453  0.00  0.00    +0.000 NA
ATOM      5  C   UNL     1       6.839   5.030  16.767  0.00  0.00    +0.000 A 
ATOM      6  C   UNL     1       7.074   4.814  15.417  0.00  0.00    +0.000 A 
ATOM      7  C   UNL     1       6.142   4.160  14.619  0.00  0.00    +0.000 A 
ATOM      8 CL   UNL     1       6.480   3.901  12.952  0.00  0.00    +0.000 Cl
ATOM      9  C   UNL     1       4.948   3.708  15.163  0.00  0.00    +0.000 A 
ATOM     10  C   UNL     1       4.695   3.914  16.522  0.00  0.00    +0.000 A 
ATOM     11  C   UNL     1       5.631   4.581  17.352  0.00  0.00    +0.000 A 
ENDROOT
BRANCH   1  12
ATOM     12  N   UNL     1       4.288   4.346  19.406  0.00  0.00    +0.000 N 
ATOM     13  H   UNL     1       3.965   3.468  19.004  0.00  0.00    +0.000 HD
BRANCH  12  14
ATOM     14  C   UNL     1       3.200   5.280  19.694  0.00  0.00    +0.000 C 
BRANCH  14  15
ATOM     15  C   UNL     1       1.855   4.564  19.767  0.00  0.00    +0.000 C 
BRANCH  15  16
ATOM     16  C   UNL     1       1.466   3.894  18.445  0.00  0.00    +0.000 C 
BRANCH  16  17
ATOM     17  C   UNL     1       1.294   2.382  18.586  0.00  0.00    +0.000 C 
BRANCH  17  18
ATOM     18  N   UNL     1       2.577   1.692  18.519  0.00  0.00    +0.000 NA
ATOM     19  H   UNL     1       2.509   0.800  19.005  0.00  0.00    +0.000 HD
ATOM     20  H   UNL     1       3.283   2.237  19.013  0.00  0.00    +0.000 HD
ENDBRANCH  17  18
ENDBRANCH  16  17
ENDBRANCH  15  16
ENDBRANCH  14  15
ENDBRANCH  12  14
ENDBRANCH   1  12
TORSDOF 6
ENDMDL
MODEL 6
REMARK VINA RESULT:      -6.4      1.853      2.039
REMARK  Name = 
REMARK  6 active torsions:
REMARK  status: ('A' for Active; 'I' for Inactive)
REMARK    1  A    between atoms: N_1  and  C_2
REMARK    2  A    between atoms: C_2  and  C_3
REMARK    3  A    between atoms: C_3  and  C_4
REMARK    4  A    between atoms: C_4  and  C_5
REMARK    5  A    between atoms: C_5  and  N_6
REMARK    6  A    between atoms: N_6  and  C_7
REMARK                            x       y       z     vdW  Elec       q    Type
REMARK                         _______ _______ _______ _____ _____    ______ ____
ROOT
ATOM      1  C   UNL     1       5.236   4.616  16.619  0.00  0.00    +0.000 A 
ATOM      2  C   UNL     1       5.412   5.994  16.475  0.00  0.00    +0.000 A 
ATOM      3  C   UNL     1       4.566   6.859  17.141  0.00  0.00    +0.000 A 
ATOM      4  N   UNL     1       3.542   6.459  17.911  0.00  0.00    +0.000 NA
ATOM      5  C   UNL     1       3.325   5.143  18.027  0.00  0.00    +0.000 A 
ATOM      6  C   UNL     1       2.236   4.755  18.792  0.00  0.00    +0.000 A 
ATOM      7  C   UNL     1       1.917   3.413  18.963  0.00  0.00    +0.000 A 
ATOM      8 CL   UNL     1       0.547   2.975  19.909  0.00  0.00    +0.000 Cl
ATOM      9  C   UNL     1       2.692   2.427  18.369  0.00  0.00    +0.000 A 
ATOM     10  C   UNL     1       3.793   2.800  17.593  0.00  0.00    +0.000 A 
ATOM     11  C   UNL     1       4.136   4.163  17.408  0.00  0.00    +0.000 A 
ENDROOT
BRANCH   1  12
ATOM     12  N   UNL     1       6.053   3.694  15.930  0.00  0.00    +0.000 N 
ATOM     13  H   UNL     1       6.725   3.255  16.559  0.00  0.00    +0.000 HD
BRANCH  12  14
ATOM     14  C   UNL     1       6.637   4.074  14.644  0.00  0.00    +0.000 C 
BRANCH  14  15
ATOM     15  C   UNL     1       5.612   3.981  13.518  0.00  0.00    +0.000 C 
BRANCH  15  16
ATOM     16  C   UNL     1       6.211   3.440  12.215  0.00  0.00    +0.000 C 
BRANCH  16  17
ATOM     17  C   UNL     1       5.303   2.414  11.539  0.00  0.00    +0.000 C 
BRANCH  17  18
ATOM     18  N   UNL     1       4.031   3.009  11.142  0.00  0.00    +0.000 NA
ATOM     19  H   UNL     1       3.533   2.368  10.526  0.00  0.00    +0.000 HD
ATOM     20  H   UNL     1       4.205   3.854  10.598  0.00  0.00    +0.000 HD
ENDBRANCH  17  18
ENDBRANCH  16  17
ENDBRANCH  15  16
ENDBRANCH  14  15
ENDBRANCH  12  14
ENDBRANCH   1  12
TORSDOF 6
ENDMDL
MODEL 7
REMARK VINA RESULT:      -6.4      2.910      4.567
REMARK  Name = 
REMARK  6 active torsions:
REMARK  status: ('A' for Active; 'I' for Inactive)
REMARK    1  A    between atoms: N_1  and  C_2
REMARK    2  A    between atoms: C_2  and  C_3
REMARK    3  A    between atoms: C_3  and  C_4
REMARK    4  A    between atoms: C_4  and  C_5
REMARK    5  A    between atoms: C_5  and  N_6
REMARK    6  A    between atoms: N_6  and  C_7
REMARK                            x       y       z     vdW  Elec       q    Type
REMARK                         _______ _______ _______ _____ _____    ______ ____
ROOT
ATOM      1  C   UNL     1       4.409   5.708  17.328  0.00  0.00    +0.000 A 
ATOM      2  C   UNL     1       3.972   7.021  17.140  0.00  0.00    +0.000 A 
ATOM      3  C   UNL     1       3.055   7.564  18.020  0.00  0.00    +0.000 A 
ATOM      4  N   UNL     1       2.518   6.891  19.050  0.00  0.00    +0.000 NA
ATOM      5  C   UNL     1       2.888   5.616  19.223  0.00  0.00    +0.000 A 
ATOM      6  C   UNL     1       2.287   4.928  20.267  0.00  0.00    +0.000 A 
ATOM      7  C   UNL     1       2.593   3.596  20.522  0.00  0.00    +0.000 A 
ATOM      8 CL   UNL     1       1.814   2.776  21.819  0.00  0.00    +0.000 Cl
ATOM      9  C   UNL     1       3.514   2.925  19.731  0.00  0.00    +0.000 A 
ATOM     10  C   UNL     1       4.128   3.601  18.673  0.00  0.00    +0.000 A 
ATOM     11  C   UNL     1       3.832   4.960  18.398  0.00  0.00    +0.000 A 
ENDROOT
BRANCH   1  12
ATOM     12  N   UNL     1       5.317   5.100  16.434  0.00  0.00    +0.000 N 
ATOM     13  H   UNL     1       4.985   4.183  16.139  0.00  0.00    +0.000 HD
BRANCH  12  14
ATOM     14  C   UNL     1       6.747   5.121  16.741  0.00  0.00    +0.000 C 
BRANCH  14  15
ATOM     15  C   UNL     1       7.218   6.525  17.108  0.00  0.00    +0.000 C 
BRANCH  15  16
ATOM     16  C   UNL     1       7.814   6.600  18.518  0.00  0.00    +0.000 C 
BRANCH  16  17
ATOM     17  C   UNL     1       7.464   5.376  19.365  0.00  0.00    +0.000 C 
BRANCH  17  18
ATOM     18  N   UNL     1       8.190   5.380  20.629  0.00  0.00    +0.000 NA
ATOM     19  H   UNL     1       8.041   4.494  21.110  0.00  0.00    +0.000 HD
ATOM     20  H   UNL     1       7.813   6.105  21.238  0.00  0.00    +0.000 HD
ENDBRANCH  17  18
ENDBRANCH  16  17
ENDBRANCH  15  16
ENDBRANCH  14  15
ENDBRANCH  12  14
ENDBRANCH   1  12
TORSDOF 6
ENDMDL
MODEL 8
REMARK VINA RESULT:      -6.3      3.741      5.770
REMARK  Name = 
REMARK  6 active torsions:
REMARK  status: ('A' for Active; 'I' for Inactive)
REMARK    1  A    between atoms: N_1  and  C_2
REMARK    2  A    between atoms: C_2  and  C_3
REMARK    3  A    between atoms: C_3  and  C_4
REMARK    4  A    between atoms: C_4  and  C_5
REMARK    5  A    between atoms: C_5  and  N_6
REMARK    6  A    between atoms: N_6  and  C_7
REMARK                            x       y       z     vdW  Elec       q    Type
REMARK                         _______ _______ _______ _____ _____    ______ ____
ROOT
ATOM      1  C   UNL     1       2.945   5.990  19.655  0.00  0.00    +0.000 A 
ATOM      2  C   UNL     1       2.184   7.156  19.548  0.00  0.00    +0.000 A 
ATOM      3  C   UNL     1       2.357   7.981  18.454  0.00  0.00    +0.000 A 
ATOM      4  N   UNL     1       3.249   7.752  17.477  0.00  0.00    +0.000 NA
ATOM      5  C   UNL     1       4.022   6.663  17.581  0.00  0.00    +0.000 A 
ATOM      6  C   UNL     1       4.965   6.470  16.583  0.00  0.00    +0.000 A 
ATOM      7  C   UNL     1       5.825   5.378  16.607  0.00  0.00    +0.000 A 
ATOM      8 CL   UNL     1       6.991   5.183  15.356  0.00  0.00    +0.000 Cl
ATOM      9  C   UNL     1       5.753   4.451  17.637  0.00  0.00    +0.000 A 
ATOM     10  C   UNL     1       4.809   4.631  18.652  0.00  0.00    +0.000 A 
ATOM     11  C   UNL     1       3.922   5.736  18.646  0.00  0.00    +0.000 A 
ENDROOT
BRANCH   1  12
ATOM     12  N   UNL     1       2.828   5.135  20.773  0.00  0.00    +0.000 N 
ATOM     13  H   UNL     1       3.699   4.636  20.947  0.00  0.00    +0.000 HD
BRANCH  12  14
ATOM     14  C   UNL     1       1.645   4.287  20.905  0.00  0.00    +0.000 C 
BRANCH  14  15
ATOM     15  C   UNL     1       1.245   3.675  19.567  0.00  0.00    +0.000 C 
BRANCH  15  16
ATOM     16  C   UNL     1       1.725   2.228  19.409  0.00  0.00    +0.000 C 
BRANCH  16  17
ATOM     17  C   UNL     1       2.494   2.009  18.106  0.00  0.00    +0.000 C 
BRANCH  17  18
ATOM     18  N   UNL     1       3.691   1.204  18.325  0.00  0.00    +0.000 NA
ATOM     19  H   UNL     1       4.269   1.641  19.040  0.00  0.00    +0.000 HD
ATOM     20  H   UNL     1       4.250   1.186  17.473  0.00  0.00    +0.000 HD
ENDBRANCH  17  18
ENDBRANCH  16  17
ENDBRANCH  15  16
ENDBRANCH  14  15
ENDBRANCH  12  14
ENDBRANCH   1  12
TORSDOF 6
ENDMDL
MODEL 9
REMARK VINA RESULT:      -6.2      3.320      6.019
REMARK  Name = 
REMARK  6 active torsions:
REMARK  status: ('A' for Active; 'I' for Inactive)
REMARK    1  A    between atoms: N_1  and  C_2
REMARK    2  A    between atoms: C_2  and  C_3
REMARK    3  A    between atoms: C_3  and  C_4
REMARK    4  A    between atoms: C_4  and  C_5
REMARK    5  A    between atoms: C_5  and  N_6
REMARK    6  A    between atoms: N_6  and  C_7
REMARK                            x       y       z     vdW  Elec       q    Type
REMARK                         _______ _______ _______ _____ _____    ______ ____
ROOT
ATOM      1  C   UNL     1       4.783   4.262  18.098  0.00  0.00    +0.000 A 
ATOM      2  C   UNL     1       5.408   4.741  19.252  0.00  0.00    +0.000 A 
ATOM      3  C   UNL     1       6.600   5.431  19.141  0.00  0.00    +0.000 A 
ATOM      4  N   UNL     1       7.231   5.652  17.977  0.00  0.00    +0.000 NA
ATOM      5  C   UNL     1       6.673   5.163  16.862  0.00  0.00    +0.000 A 
ATOM      6  C   UNL     1       7.365   5.366  15.678  0.00  0.00    +0.000 A 
ATOM      7  C   UNL     1       6.878   4.885  14.468  0.00  0.00    +0.000 A 
ATOM      8 CL   UNL     1       7.775   5.147  13.023  0.00  0.00    +0.000 Cl
ATOM      9  C   UNL     1       5.678   4.189  14.422  0.00  0.00    +0.000 A 
ATOM     10  C   UNL     1       4.968   3.973  15.606  0.00  0.00    +0.000 A 
ATOM     11  C   UNL     1       5.447   4.457  16.850  0.00  0.00    +0.000 A 
ENDROOT
BRANCH   1  12
ATOM     12  N   UNL     1       3.583   3.521  18.165  0.00  0.00    +0.000 N 
ATOM     13  H   UNL     1       3.570   2.778  17.468  0.00  0.00    +0.000 HD
BRANCH  12  14
ATOM     14  C   UNL     1       2.309   4.229  18.274  0.00  0.00    +0.000 C 
BRANCH  14  15
ATOM     15  C   UNL     1       1.162   3.270  18.578  0.00  0.00    +0.000 C 
BRANCH  15  16
ATOM     16  C   UNL     1       1.443   2.374  19.789  0.00  0.00    +0.000 C 
BRANCH  16  17
ATOM     17  C   UNL     1       1.409   3.148  21.106  0.00  0.00    +0.000 C 
BRANCH  17  18
ATOM     18  N   UNL     1       2.495   2.741  21.990  0.00  0.00    +0.000 NA
ATOM     19  H   UNL     1       2.211   1.920  22.523  0.00  0.00    +0.000 HD
ATOM     20  H   UNL     1       2.675   3.478  22.671  0.00  0.00    +0.000 HD
ENDBRANCH  17  18
ENDBRANCH  16  17
ENDBRANCH  15  16
ENDBRANCH  14  15
ENDBRANCH  12  14
ENDBRANCH   1  12
TORSDOF 6
ENDMDL
