MODEL 1
REMARK VINA RESULT:      -8.0      0.000      0.000
REMARK  Name = 
REMARK  12 active torsions:
REMARK  status: ('A' for Active; 'I' for Inactive)
REMARK    1  A    between atoms: C_1  and  C_2
REMARK    2  A    between atoms: C_5  and  C_6
REMARK    3  A    between atoms: C_6  and  C_7
REMARK    4  A    between atoms: C_7  and  N_8
REMARK    5  A    between atoms: N_8  and  C_9
REMARK    6  A    between atoms: C_10  and  C_11
REMARK    7  A    between atoms: C_11  and  O_13
REMARK    8  A    between atoms: O_13  and  C_14
REMARK    9  A    between atoms: C_14  and  C_15
REMARK   10  A    between atoms: N_24  and  C_25
REMARK   11  A    between atoms: C_25  and  C_26
REMARK   12  A    between atoms: C_26  and  C_28
REMARK                            x       y       z     vdW  Elec       q    Type
REMARK                         _______ _______ _______ _____ _____    ______ ____
ROOT
ATOM      1  C   UNL     1       2.395   6.188  19.966  0.00  0.00    +0.000 A 
ATOM      2  C   UNL     1       2.843   4.961  20.513  0.00  0.00    +0.000 A 
ATOM      3  C   UNL     1       4.078   4.424  20.133  0.00  0.00    +0.000 A 
ATOM      4  N   UNL     1       4.873   4.880  19.137  0.00  0.00    +0.000 NA
ATOM      5  C   UNL     1       4.332   5.941  18.510  0.00  0.00    +0.000 A 
ATOM      6  C   UNL     1       3.176   6.628  18.866  0.00  0.00    +0.000 A 
ATOM      7  C   UNL     1       3.095   7.652  17.891  0.00  0.00    +0.000 A 
ATOM      8  N   UNL     1       4.053   7.582  16.963  0.00  0.00    +0.000 NA
ATOM      9  N   UNL     1       4.786   6.509  17.345  0.00  0.00    +0.000 N 
ENDROOT
BRANCH   1  10
ATOM     10  N   UNL     1       1.263   6.896  20.365  0.00  0.00    +0.000 N 
ATOM     11  H   UNL     1       0.447   6.804  19.767  0.00  0.00    +0.000 HD
BRANCH  10  12
ATOM     12  C   UNL     1       1.385   8.176  21.070  0.00  0.00    +0.000 C 
BRANCH  12  13
ATOM     13  C   UNL     1       0.805   9.334  20.257  0.00  0.00    +0.000 C 
BRANCH  13  18
ATOM     14  C   UNL     1      -2.593  12.686  23.596  0.00  0.00    +0.000 C 
ATOM     15  C   UNL     1      -1.683  11.847  22.750  0.00  0.00    +0.000 A 
ATOM     16  C   UNL     1      -1.287  12.276  21.479  0.00  0.00    +0.000 A 
ATOM     17  C   UNL     1      -0.486  11.461  20.678  0.00  0.00    +0.000 A 
ATOM     18  C   UNL     1      -0.072  10.200  21.130  0.00  0.00    +0.000 A 
ATOM     19  C   UNL     1      -0.434   9.790  22.417  0.00  0.00    +0.000 A 
ATOM     20  C   UNL     1      -1.238  10.605  23.218  0.00  0.00    +0.000 A 
ENDBRANCH  13  18
ENDBRANCH  12  13
ENDBRANCH  10  12
ENDBRANCH   1  10
BRANCH   2  21
ATOM     21  C   UNL     1       2.010   4.026  21.313  0.00  0.00    +0.000 C 
ATOM     22  O   UNL     1       2.400   3.475  22.332  0.00  0.00    +0.000 OA
BRANCH  21  23
ATOM     23  O   UNL     1       0.918   3.690  20.589  0.00  0.00    +0.000 OA
BRANCH  23  24
ATOM     24  C   UNL     1       0.937   2.378  20.017  0.00  0.00    +0.000 C 
BRANCH  24  25
ATOM     25  C   UNL     1       0.925   2.416  18.524  0.00  0.00    +0.000 C 
ATOM     26  C   UNL     1       1.497   3.552  17.713  0.00  0.00    +0.000 C 
ATOM     27  C   UNL     1       2.245   2.252  17.804  0.00  0.00    +0.000 C 
ENDBRANCH  24  25
ENDBRANCH  23  24
ENDBRANCH  21  23
ENDBRANCH   2  21
BRANCH   9  28
ATOM     28  C   UNL     1       5.735   5.920  16.415  0.00  0.00    +0.000 C 
BRANCH  28  29
ATOM     29  C   UNL     1       5.205   4.725  15.623  0.00  0.00    +0.000 C 
ATOM     30 CL   UNL     1       5.439   3.182  16.522  0.00  0.00    +0.000 Cl
BRANCH  29  31
ATOM     31  C   UNL     1       5.859   4.550  14.254  0.00  0.00    +0.000 A 
ATOM     32  C   UNL     1       7.098   5.134  13.939  0.00  0.00    +0.000 A 
ATOM     33  C   UNL     1       7.747   4.843  12.734  0.00  0.00    +0.000 A 
ATOM     34  C   UNL     1       7.167   3.968  11.819  0.00  0.00    +0.000 A 
ATOM     35  C   UNL     1       5.921   3.413  12.090  0.00  0.00    +0.000 A 
ATOM     36  C   UNL     1       5.269   3.704  13.298  0.00  0.00    +0.000 A 
ENDBRANCH  29  31
ENDBRANCH  28  29
ENDBRANCH   9  28
TORSDOF 11
ENDMDL
MODEL 2
REMARK VINA RESULT:      -7.5      3.368      6.755
REMARK  Name = 
REMARK  12 active torsions:
REMARK  status: ('A' for Active; 'I' for Inactive)
REMARK    1  A    between atoms: C_1  and  C_2
REMARK    2  A    between atoms: C_5  and  C_6
REMARK    3  A    between atoms: C_6  and  C_7
REMARK    4  A    between atoms: C_7  and  N_8
REMARK    5  A    between atoms: N_8  and  C_9
REMARK    6  A    between atoms: C_10  and  C_11
REMARK    7  A    between atoms: C_11  and  O_13
REMARK    8  A    between atoms: O_13  and  C_14
REMARK    9  A    between atoms: C_14  and  C_15
REMARK   10  A    between atoms: N_24  and  C_25
REMARK   11  A    between atoms: C_25  and  C_26
REMARK   12  A    between atoms: C_26  and  C_28
REMARK                            x       y       z     vdW  Elec       q    Type
REMARK                         _______ _______ _______ _____ _____    ______ ____
ROOT
ATOM      1  C   UNL     1       0.808  10.753  20.471  0.00  0.00    +0.000 A 
ATOM      2  C   UNL     1       0.611   9.982  21.642  0.00  0.00    +0.000 A 
ATOM      3  C   UNL     1       1.123   8.683  21.729  0.00  0.00    +0.000 A 
ATOM      4  N   UNL     1       1.681   7.976  20.718  0.00  0.00    +0.000 NA
ATOM      5  C   UNL     1       1.687   8.670  19.565  0.00  0.00    +0.000 A 
ATOM      6  C   UNL     1       1.314   9.998  19.381  0.00  0.00    +0.000 A 
ATOM      7  C   UNL     1       1.541  10.210  17.999  0.00  0.00    +0.000 A 
ATOM      8  N   UNL     1       1.942   9.113  17.351  0.00  0.00    +0.000 NA
ATOM      9  N   UNL     1       1.999   8.173  18.324  0.00  0.00    +0.000 N 
ENDROOT
BRANCH   1  10
ATOM     10  N   UNL     1       0.479  12.098  20.312  0.00  0.00    +0.000 N 
ATOM     11  H   UNL     1       0.564  12.679  21.142  0.00  0.00    +0.000 HD
BRANCH  10  12
ATOM     12  C   UNL     1      -0.552  12.514  19.357  0.00  0.00    +0.000 C 
BRANCH  12  13
ATOM     13  C   UNL     1      -1.852  11.732  19.543  0.00  0.00    +0.000 C 
BRANCH  13  18
ATOM     14  C   UNL     1      -3.895   9.964  14.382  0.00  0.00    +0.000 C 
ATOM     15  C   UNL     1      -3.398  10.391  15.731  0.00  0.00    +0.000 A 
ATOM     16  C   UNL     1      -4.081  11.358  16.474  0.00  0.00    +0.000 A 
ATOM     17  C   UNL     1      -3.578  11.789  17.702  0.00  0.00    +0.000 A 
ATOM     18  C   UNL     1      -2.379  11.265  18.206  0.00  0.00    +0.000 A 
ATOM     19  C   UNL     1      -1.718  10.268  17.482  0.00  0.00    +0.000 A 
ATOM     20  C   UNL     1      -2.222   9.839  16.251  0.00  0.00    +0.000 A 
ENDBRANCH  13  18
ENDBRANCH  12  13
ENDBRANCH  10  12
ENDBRANCH   1  10
BRANCH   2  21
ATOM     21  C   UNL     1      -0.311  10.333  22.752  0.00  0.00    +0.000 C 
ATOM     22  O   UNL     1      -0.302   9.777  23.840  0.00  0.00    +0.000 OA
BRANCH  21  23
ATOM     23  O   UNL     1      -1.294  11.124  22.266  0.00  0.00    +0.000 OA
BRANCH  23  24
ATOM     24  C   UNL     1      -1.724  12.178  23.134  0.00  0.00    +0.000 C 
BRANCH  24  25
ATOM     25  C   UNL     1      -3.161  12.042  23.515  0.00  0.00    +0.000 C 
ATOM     26  C   UNL     1      -3.889  13.028  24.395  0.00  0.00    +0.000 C 
ATOM     27  C   UNL     1      -4.146  13.020  22.914  0.00  0.00    +0.000 C 
ENDBRANCH  24  25
ENDBRANCH  23  24
ENDBRANCH  21  23
ENDBRANCH   2  21
BRANCH   9  28
ATOM     28  C   UNL     1       2.093   6.768  17.960  0.00  0.00    +0.000 C 
BRANCH  28  29
ATOM     29  C   UNL     1       3.400   6.084  18.362  0.00  0.00    +0.000 C 
ATOM     30 CL   UNL     1       4.721   6.449  17.194  0.00  0.00    +0.000 Cl
BRANCH  29  31
ATOM     31  C   UNL     1       3.297   4.564  18.463  0.00  0.00    +0.000 A 
ATOM     32  C   UNL     1       3.880   3.711  17.509  0.00  0.00    +0.000 A 
ATOM     33  C   UNL     1       3.898   2.324  17.697  0.00  0.00    +0.000 A 
ATOM     34  C   UNL     1       3.330   1.764  18.839  0.00  0.00    +0.000 A 
ATOM     35  C   UNL     1       2.709   2.584  19.775  0.00  0.00    +0.000 A 
ATOM     36  C   UNL     1       2.690   3.975  19.587  0.00  0.00    +0.000 A 
ENDBRANCH  29  31
ENDBRANCH  28  29
ENDBRANCH   9  28
TORSDOF 11
ENDMDL
MODEL 3
REMARK VINA RESULT:      -7.5      3.552      6.997
REMARK  Name = 
REMARK  12 active torsions:
REMARK  status: ('A' for Active; 'I' for Inactive)
REMARK    1  A    between atoms: C_1  and  C_2
REMARK    2  A    between atoms: C_5  and  C_6
REMARK    3  A    between atoms: C_6  and  C_7
REMARK    4  A    between atoms: C_7  and  N_8
REMARK    5  A    between atoms: N_8  and  C_9
REMARK    6  A    between atoms: C_10  and  C_11
REMARK    7  A    between atoms: C_11  and  O_13
REMARK    8  A    between atoms: O_13  and  C_14
REMARK    9  A    between atoms: C_14  and  C_15
REMARK   10  A    between atoms: N_24  and  C_25
REMARK   11  A    between atoms: C_25  and  C_26
REMARK   12  A    between atoms: C_26  and  C_28
REMARK                            x       y       z     vdW  Elec       q    Type
REMARK                         _______ _______ _______ _____ _____    ______ ____
ROOT
ATOM      1  C   UNL     1       0.910  10.305  20.387  0.00  0.00    +0.000 A 
ATOM      2  C   UNL     1       0.678   9.475  21.510  0.00  0.00    +0.000 A 
ATOM      3  C   UNL     1       1.240   8.195  21.573  0.00  0.00    +0.000 A 
ATOM      4  N   UNL     1       1.886   7.558  20.569  0.00  0.00    +0.000 NA
ATOM      5  C   UNL     1       1.930   8.302  19.449  0.00  0.00    +0.000 A 
ATOM      6  C   UNL     1       1.511   9.621  19.298  0.00  0.00    +0.000 A 
ATOM      7  C   UNL     1       1.809   9.903  17.943  0.00  0.00    +0.000 A 
ATOM      8  N   UNL     1       2.295   8.854  17.274  0.00  0.00    +0.000 NA
ATOM      9  N   UNL     1       2.335   7.874  18.209  0.00  0.00    +0.000 N 
ENDROOT
BRANCH   1  10
ATOM     10  N   UNL     1       0.533  11.642  20.265  0.00  0.00    +0.000 N 
ATOM     11  H   UNL     1       0.537  12.185  21.124  0.00  0.00    +0.000 HD
BRANCH  10  12
ATOM     12  C   UNL     1      -0.450  12.059  19.261  0.00  0.00    +0.000 C 
BRANCH  12  13
ATOM     13  C   UNL     1      -1.781  11.324  19.424  0.00  0.00    +0.000 C 
BRANCH  13  18
ATOM     14  C   UNL     1      -4.010   9.985  14.211  0.00  0.00    +0.000 C 
ATOM     15  C   UNL     1      -3.407  10.357  15.533  0.00  0.00    +0.000 A 
ATOM     16  C   UNL     1      -2.234   9.745  15.985  0.00  0.00    +0.000 A 
ATOM     17  C   UNL     1      -1.715  10.058  17.242  0.00  0.00    +0.000 A 
ATOM     18  C   UNL     1      -2.361  10.985  18.072  0.00  0.00    +0.000 A 
ATOM     19  C   UNL     1      -3.511  11.628  17.601  0.00  0.00    +0.000 A 
ATOM     20  C   UNL     1      -4.032  11.312  16.344  0.00  0.00    +0.000 A 
ENDBRANCH  13  18
ENDBRANCH  12  13
ENDBRANCH  10  12
ENDBRANCH   1  10
BRANCH   2  21
ATOM     21  C   UNL     1      -0.322   9.738  22.577  0.00  0.00    +0.000 C 
ATOM     22  O   UNL     1      -1.136   8.911  22.959  0.00  0.00    +0.000 OA
BRANCH  21  23
ATOM     23  O   UNL     1      -0.358  11.069  22.818  0.00  0.00    +0.000 OA
BRANCH  23  24
ATOM     24  C   UNL     1      -1.617  11.580  23.268  0.00  0.00    +0.000 C 
BRANCH  24  25
ATOM     25  C   UNL     1      -2.133  12.664  22.379  0.00  0.00    +0.000 C 
ATOM     26  C   UNL     1      -3.551  13.178  22.427  0.00  0.00    +0.000 C 
ATOM     27  C   UNL     1      -2.439  14.004  23.007  0.00  0.00    +0.000 C 
ENDBRANCH  24  25
ENDBRANCH  23  24
ENDBRANCH  21  23
ENDBRANCH   2  21
BRANCH   9  28
ATOM     28  C   UNL     1       2.512   6.492  17.793  0.00  0.00    +0.000 C 
BRANCH  28  29
ATOM     29  C   UNL     1       3.374   5.642  18.725  0.00  0.00    +0.000 C 
ATOM     30 CL   UNL     1       4.645   4.748  17.815  0.00  0.00    +0.000 Cl
BRANCH  29  31
ATOM     31  C   UNL     1       2.586   4.610  19.527  0.00  0.00    +0.000 A 
ATOM     32  C   UNL     1       1.399   4.033  19.040  0.00  0.00    +0.000 A 
ATOM     33  C   UNL     1       0.773   2.986  19.725  0.00  0.00    +0.000 A 
ATOM     34  C   UNL     1       1.317   2.498  20.910  0.00  0.00    +0.000 A 
ATOM     35  C   UNL     1       2.466   3.082  21.434  0.00  0.00    +0.000 A 
ATOM     36  C   UNL     1       3.095   4.133  20.749  0.00  0.00    +0.000 A 
ENDBRANCH  29  31
ENDBRANCH  28  29
ENDBRANCH   9  28
TORSDOF 11
ENDMDL
MODEL 4
REMARK VINA RESULT:      -7.5      3.464      6.563
REMARK  Name = 
REMARK  12 active torsions:
REMARK  status: ('A' for Active; 'I' for Inactive)
REMARK    1  A    between atoms: C_1  and  C_2
REMARK    2  A    between atoms: C_5  and  C_6
REMARK    3  A    between atoms: C_6  and  C_7
REMARK    4  A    between atoms: C_7  and  N_8
REMARK    5  A    between atoms: N_8  and  C_9
REMARK    6  A    between atoms: C_10  and  C_11
REMARK    7  A    between atoms: C_11  and  O_13
REMARK    8  A    between atoms: O_13  and  C_14
REMARK    9  A    between atoms: C_14  and  C_15
REMARK   10  A    between atoms: N_24  and  C_25
REMARK   11  A    between atoms: C_25  and  C_26
REMARK   12  A    between atoms: C_26  and  C_28
REMARK                            x       y       z     vdW  Elec       q    Type
REMARK                         _______ _______ _______ _____ _____    ______ ____
ROOT
ATOM      1  C   UNL     1       0.784  10.575  20.166  0.00  0.00    +0.000 A 
ATOM      2  C   UNL     1       0.632  10.113  21.496  0.00  0.00    +0.000 A 
ATOM      3  C   UNL     1       1.242   8.923  21.907  0.00  0.00    +0.000 A 
ATOM      4  N   UNL     1       1.868   8.030  21.105  0.00  0.00    +0.000 NA
ATOM      5  C   UNL     1       1.837   8.407  19.814  0.00  0.00    +0.000 A 
ATOM      6  C   UNL     1       1.364   9.611  19.301  0.00  0.00    +0.000 A 
ATOM      7  C   UNL     1       1.593   9.483  17.909  0.00  0.00    +0.000 A 
ATOM      8  N   UNL     1       2.087   8.293  17.558  0.00  0.00    +0.000 NA
ATOM      9  N   UNL     1       2.204   7.638  18.737  0.00  0.00    +0.000 N 
ENDROOT
BRANCH   1  10
ATOM     10  N   UNL     1       0.353  11.805  19.674  0.00  0.00    +0.000 N 
ATOM     11  H   UNL     1       0.486  12.603  20.289  0.00  0.00    +0.000 HD
BRANCH  10  12
ATOM     12  C   UNL     1      -0.797  11.894  18.769  0.00  0.00    +0.000 C 
BRANCH  12  13
ATOM     13  C   UNL     1      -1.966  11.031  19.246  0.00  0.00    +0.000 C 
BRANCH  13  18
ATOM     14  C   UNL     1      -6.973  13.040  17.047  0.00  0.00    +0.000 C 
ATOM     15  C   UNL     1      -5.707  12.488  17.631  0.00  0.00    +0.000 A 
ATOM     16  C   UNL     1      -5.373  12.717  18.969  0.00  0.00    +0.000 A 
ATOM     17  C   UNL     1      -4.165  12.247  19.485  0.00  0.00    +0.000 A 
ATOM     18  C   UNL     1      -3.265  11.545  18.671  0.00  0.00    +0.000 A 
ATOM     19  C   UNL     1      -3.618  11.281  17.343  0.00  0.00    +0.000 A 
ATOM     20  C   UNL     1      -4.827  11.754  16.827  0.00  0.00    +0.000 A 
ENDBRANCH  13  18
ENDBRANCH  12  13
ENDBRANCH  10  12
ENDBRANCH   1  10
BRANCH   2  21
ATOM     21  C   UNL     1      -0.331  10.659  22.487  0.00  0.00    +0.000 C 
ATOM     22  O   UNL     1      -1.138   9.973  23.095  0.00  0.00    +0.000 OA
BRANCH  21  23
ATOM     23  O   UNL     1      -0.349  12.007  22.376  0.00  0.00    +0.000 OA
BRANCH  23  24
ATOM     24  C   UNL     1      -1.583  12.639  22.730  0.00  0.00    +0.000 C 
BRANCH  24  25
ATOM     25  C   UNL     1      -1.577  14.099  22.418  0.00  0.00    +0.000 C 
ATOM     26  C   UNL     1      -1.640  14.653  21.016  0.00  0.00    +0.000 C 
ATOM     27  C   UNL     1      -2.856  14.713  21.896  0.00  0.00    +0.000 C 
ENDBRANCH  24  25
ENDBRANCH  23  24
ENDBRANCH  21  23
ENDBRANCH   2  21
BRANCH   9  28
ATOM     28  C   UNL     1       2.414   6.199  18.742  0.00  0.00    +0.000 C 
BRANCH  28  29
ATOM     29  C   UNL     1       3.398   5.686  17.691  0.00  0.00    +0.000 C 
ATOM     30 CL   UNL     1       3.248   3.906  17.460  0.00  0.00    +0.000 Cl
BRANCH  29  31
ATOM     31  C   UNL     1       4.861   5.975  18.020  0.00  0.00    +0.000 A 
ATOM     32  C   UNL     1       5.527   5.338  19.081  0.00  0.00    +0.000 A 
ATOM     33  C   UNL     1       6.902   5.507  19.275  0.00  0.00    +0.000 A 
ATOM     34  C   UNL     1       7.637   6.319  18.414  0.00  0.00    +0.000 A 
ATOM     35  C   UNL     1       6.991   6.994  17.383  0.00  0.00    +0.000 A 
ATOM     36  C   UNL     1       5.611   6.825  17.188  0.00  0.00    +0.000 A 
ENDBRANCH  29  31
ENDBRANCH  28  29
ENDBRANCH   9  28
TORSDOF 11
ENDMDL
MODEL 5
REMARK VINA RESULT:      -7.5      2.192      9.345
REMARK  Name = 
REMARK  12 active torsions:
REMARK  status: ('A' for Active; 'I' for Inactive)
REMARK    1  A    between atoms: C_1  and  C_2
REMARK    2  A    between atoms: C_5  and  C_6
REMARK    3  A    between atoms: C_6  and  C_7
REMARK    4  A    between atoms: C_7  and  N_8
REMARK    5  A    between atoms: N_8  and  C_9
REMARK    6  A    between atoms: C_10  and  C_11
REMARK    7  A    between atoms: C_11  and  O_13
REMARK    8  A    between atoms: O_13  and  C_14
REMARK    9  A    between atoms: C_14  and  C_15
REMARK   10  A    between atoms: N_24  and  C_25
REMARK   11  A    between atoms: C_25  and  C_26
REMARK   12  A    between atoms: C_26  and  C_28
REMARK                            x       y       z     vdW  Elec       q    Type
REMARK                         _______ _______ _______ _____ _____    ______ ____
ROOT
ATOM      1  C   UNL     1       3.656   6.356  18.080  0.00  0.00    +0.000 A 
ATOM      2  C   UNL     1       3.536   5.504  19.204  0.00  0.00    +0.000 A 
ATOM      3  C   UNL     1       2.576   5.761  20.189  0.00  0.00    +0.000 A 
ATOM      4  N   UNL     1       1.807   6.871  20.283  0.00  0.00    +0.000 NA
ATOM      5  C   UNL     1       2.074   7.750  19.300  0.00  0.00    +0.000 A 
ATOM      6  C   UNL     1       2.918   7.562  18.209  0.00  0.00    +0.000 A 
ATOM      7  C   UNL     1       2.804   8.780  17.497  0.00  0.00    +0.000 A 
ATOM      8  N   UNL     1       2.031   9.683  18.106  0.00  0.00    +0.000 NA
ATOM      9  N   UNL     1       1.615   9.042  19.223  0.00  0.00    +0.000 N 
ENDROOT
BRANCH   1  10
ATOM     10  N   UNL     1       4.465   6.133  16.967  0.00  0.00    +0.000 N 
ATOM     11  H   UNL     1       4.417   5.203  16.560  0.00  0.00    +0.000 HD
BRANCH  10  12
ATOM     12  C   UNL     1       5.754   6.816  16.824  0.00  0.00    +0.000 C 
BRANCH  12  13
ATOM     13  C   UNL     1       6.895   5.833  16.560  0.00  0.00    +0.000 C 
BRANCH  13  18
ATOM     14  C   UNL     1       5.839   2.813  11.691  0.00  0.00    +0.000 C 
ATOM     15  C   UNL     1       6.137   3.556  12.959  0.00  0.00    +0.000 A 
ATOM     16  C   UNL     1       5.436   3.278  14.136  0.00  0.00    +0.000 A 
ATOM     17  C   UNL     1       5.683   4.016  15.295  0.00  0.00    +0.000 A 
ATOM     18  C   UNL     1       6.630   5.050  15.295  0.00  0.00    +0.000 A 
ATOM     19  C   UNL     1       7.360   5.300  14.129  0.00  0.00    +0.000 A 
ATOM     20  C   UNL     1       7.111   4.562  12.968  0.00  0.00    +0.000 A 
ENDBRANCH  13  18
ENDBRANCH  12  13
ENDBRANCH  10  12
ENDBRANCH   1  10
BRANCH   2  21
ATOM     21  C   UNL     1       4.508   4.447  19.584  0.00  0.00    +0.000 C 
ATOM     22  O   UNL     1       5.698   4.490  19.306  0.00  0.00    +0.000 OA
BRANCH  21  23
ATOM     23  O   UNL     1       3.824   3.359  20.005  0.00  0.00    +0.000 OA
BRANCH  23  24
ATOM     24  C   UNL     1       3.407   2.456  18.976  0.00  0.00    +0.000 C 
BRANCH  24  25
ATOM     25  C   UNL     1       2.007   1.979  19.179  0.00  0.00    +0.000 C 
ATOM     26  C   UNL     1       1.012   2.671  20.078  0.00  0.00    +0.000 C 
ATOM     27  C   UNL     1       0.888   2.805  18.587  0.00  0.00    +0.000 C 
ENDBRANCH  24  25
ENDBRANCH  23  24
ENDBRANCH  21  23
ENDBRANCH   2  21
BRANCH   9  28
ATOM     28  C   UNL     1       1.008   9.803  20.304  0.00  0.00    +0.000 C 
BRANCH  28  29
ATOM     29  C   UNL     1      -0.509   9.959  20.210  0.00  0.00    +0.000 C 
ATOM     30 CL   UNL     1      -1.043  10.194  18.505  0.00  0.00    +0.000 Cl
BRANCH  29  31
ATOM     31  C   UNL     1      -1.062  11.130  21.018  0.00  0.00    +0.000 A 
ATOM     32  C   UNL     1      -1.773  12.184  20.417  0.00  0.00    +0.000 A 
ATOM     33  C   UNL     1      -2.395  13.169  21.192  0.00  0.00    +0.000 A 
ATOM     34  C   UNL     1      -2.313  13.124  22.582  0.00  0.00    +0.000 A 
ATOM     35  C   UNL     1      -1.578  12.115  23.197  0.00  0.00    +0.000 A 
ATOM     36  C   UNL     1      -0.955  11.126  22.421  0.00  0.00    +0.000 A 
ENDBRANCH  29  31
ENDBRANCH  28  29
ENDBRANCH   9  28
TORSDOF 11
ENDMDL
MODEL 6
REMARK VINA RESULT:      -7.4      3.008      5.248
REMARK  Name = 
REMARK  12 active torsions:
REMARK  status: ('A' for Active; 'I' for Inactive)
REMARK    1  A    between atoms: C_1  and  C_2
REMARK    2  A    between atoms: C_5  and  C_6
REMARK    3  A    between atoms: C_6  and  C_7
REMARK    4  A    between atoms: C_7  and  N_8
REMARK    5  A    between atoms: N_8  and  C_9
REMARK    6  A    between atoms: C_10  and  C_11
REMARK    7  A    between atoms: C_11  and  O_13
REMARK    8  A    between atoms: O_13  and  C_14
REMARK    9  A    between atoms: C_14  and  C_15
REMARK   10  A    between atoms: N_24  and  C_25
REMARK   11  A    between atoms: C_25  and  C_26
REMARK   12  A    between atoms: C_26  and  C_28
REMARK                            x       y       z     vdW  Elec       q    Type
REMARK                         _______ _______ _______ _____ _____    ______ ____
ROOT
ATOM      1  C   UNL     1       0.654   9.469  19.992  0.00  0.00    +0.000 A 
ATOM      2  C   UNL     1       1.158  10.301  18.963  0.00  0.00    +0.000 A 
ATOM      3  C   UNL     1       1.974   9.770  17.958  0.00  0.00    +0.000 A 
ATOM      4  N   UNL     1       2.496   8.522  17.932  0.00  0.00    +0.000 NA
ATOM      5  C   UNL     1       2.149   7.810  19.019  0.00  0.00    +0.000 A 
ATOM      6  C   UNL     1       1.260   8.185  20.022  0.00  0.00    +0.000 A 
ATOM      7  C   UNL     1       1.254   7.065  20.887  0.00  0.00    +0.000 A 
ATOM      8  N   UNL     1       2.108   6.105  20.521  0.00  0.00    +0.000 NA
ATOM      9  N   UNL     1       2.667   6.593  19.389  0.00  0.00    +0.000 N 
ENDROOT
BRANCH   1  10
ATOM     10  N   UNL     1      -0.277   9.839  20.960  0.00  0.00    +0.000 N 
ATOM     11  H   UNL     1      -1.154  10.218  20.614  0.00  0.00    +0.000 HD
BRANCH  10  12
ATOM     12  C   UNL     1       0.155  10.346  22.266  0.00  0.00    +0.000 C 
BRANCH  12  13
ATOM     13  C   UNL     1      -1.022  10.532  23.225  0.00  0.00    +0.000 C 
BRANCH  13  18
ATOM     14  C   UNL     1      -3.354  15.834  22.604  0.00  0.00    +0.000 C 
ATOM     15  C   UNL     1      -2.772  14.458  22.724  0.00  0.00    +0.000 A 
ATOM     16  C   UNL     1      -3.545  13.388  23.185  0.00  0.00    +0.000 A 
ATOM     17  C   UNL     1      -2.976  12.125  23.347  0.00  0.00    +0.000 A 
ATOM     18  C   UNL     1      -1.622  11.908  23.056  0.00  0.00    +0.000 A 
ATOM     19  C   UNL     1      -0.859  12.968  22.555  0.00  0.00    +0.000 A 
ATOM     20  C   UNL     1      -1.429  14.234  22.396  0.00  0.00    +0.000 A 
ENDBRANCH  13  18
ENDBRANCH  12  13
ENDBRANCH  10  12
ENDBRANCH   1  10
BRANCH   2  21
ATOM     21  C   UNL     1       1.096  11.785  18.956  0.00  0.00    +0.000 C 
ATOM     22  O   UNL     1       2.085  12.503  18.969  0.00  0.00    +0.000 OA
BRANCH  21  23
ATOM     23  O   UNL     1      -0.174  12.168  19.220  0.00  0.00    +0.000 OA
BRANCH  23  24
ATOM     24  C   UNL     1      -1.046  12.233  18.087  0.00  0.00    +0.000 C 
BRANCH  24  25
ATOM     25  C   UNL     1      -2.118  11.194  18.142  0.00  0.00    +0.000 C 
ATOM     26  C   UNL     1      -3.349  11.218  17.270  0.00  0.00    +0.000 C 
ATOM     27  C   UNL     1      -2.242  10.247  16.969  0.00  0.00    +0.000 C 
ENDBRANCH  24  25
ENDBRANCH  23  24
ENDBRANCH  21  23
ENDBRANCH   2  21
BRANCH   9  28
ATOM     28  C   UNL     1       3.874   5.978  18.861  0.00  0.00    +0.000 C 
BRANCH  28  29
ATOM     29  C   UNL     1       3.672   5.132  17.604  0.00  0.00    +0.000 C 
ATOM     30 CL   UNL     1       3.062   3.486  18.008  0.00  0.00    +0.000 Cl
BRANCH  29  31
ATOM     31  C   UNL     1       4.937   4.950  16.770  0.00  0.00    +0.000 A 
ATOM     32  C   UNL     1       4.995   4.059  15.684  0.00  0.00    +0.000 A 
ATOM     33  C   UNL     1       6.114   4.014  14.846  0.00  0.00    +0.000 A 
ATOM     34  C   UNL     1       7.199   4.855  15.079  0.00  0.00    +0.000 A 
ATOM     35  C   UNL     1       7.183   5.715  16.173  0.00  0.00    +0.000 A 
ATOM     36  C   UNL     1       6.061   5.761  17.015  0.00  0.00    +0.000 A 
ENDBRANCH  29  31
ENDBRANCH  28  29
ENDBRANCH   9  28
TORSDOF 11
ENDMDL
MODEL 7
REMARK VINA RESULT:      -7.4      3.728      6.907
REMARK  Name = 
REMARK  12 active torsions:
REMARK  status: ('A' for Active; 'I' for Inactive)
REMARK    1  A    between atoms: C_1  and  C_2
REMARK    2  A    between atoms: C_5  and  C_6
REMARK    3  A    between atoms: C_6  and  C_7
REMARK    4  A    between atoms: C_7  and  N_8
REMARK    5  A    between atoms: N_8  and  C_9
REMARK    6  A    between atoms: C_10  and  C_11
REMARK    7  A    between atoms: C_11  and  O_13
REMARK    8  A    between atoms: O_13  and  C_14
REMARK    9  A    between atoms: C_14  and  C_15
REMARK   10  A    between atoms: N_24  and  C_25
REMARK   11  A    between atoms: C_25  and  C_26
REMARK   12  A    between atoms: C_26  and  C_28
REMARK                            x       y       z     vdW  Elec       q    Type
REMARK                         _______ _______ _______ _____ _____    ______ ____
ROOT
ATOM      1  C   UNL     1       0.721  10.869  20.125  0.00  0.00    +0.000 A 
ATOM      2  C   UNL     1       0.537  10.564  21.495  0.00  0.00    +0.000 A 
ATOM      3  C   UNL     1       1.090   9.401  22.042  0.00  0.00    +0.000 A 
ATOM      4  N   UNL     1       1.681   8.398  21.352  0.00  0.00    +0.000 NA
ATOM      5  C   UNL     1       1.676   8.631  20.027  0.00  0.00    +0.000 A 
ATOM      6  C   UNL     1       1.262   9.791  19.378  0.00  0.00    +0.000 A 
ATOM      7  C   UNL     1       1.496   9.500  18.012  0.00  0.00    +0.000 A 
ATOM      8  N   UNL     1       1.939   8.257  17.800  0.00  0.00    +0.000 NA
ATOM      9  N   UNL     1       2.017   7.732  19.046  0.00  0.00    +0.000 N 
ENDROOT
BRANCH   1  10
ATOM     10  N   UNL     1       0.350  12.056  19.494  0.00  0.00    +0.000 N 
ATOM     11  H   UNL     1       0.935  12.864  19.685  0.00  0.00    +0.000 HD
BRANCH  10  12
ATOM     12  C   UNL     1      -1.058  12.352  19.214  0.00  0.00    +0.000 C 
BRANCH  12  13
ATOM     13  C   UNL     1      -1.922  11.090  19.230  0.00  0.00    +0.000 C 
BRANCH  13  18
ATOM     14  C   UNL     1      -3.968  10.002  13.885  0.00  0.00    +0.000 C 
ATOM     15  C   UNL     1      -3.471  10.253  15.278  0.00  0.00    +0.000 A 
ATOM     16  C   UNL     1      -4.144  11.129  16.134  0.00  0.00    +0.000 A 
ATOM     17  C   UNL     1      -3.640  11.398  17.407  0.00  0.00    +0.000 A 
ATOM     18  C   UNL     1      -2.449  10.800  17.845  0.00  0.00    +0.000 A 
ATOM     19  C   UNL     1      -1.799   9.891  17.003  0.00  0.00    +0.000 A 
ATOM     20  C   UNL     1      -2.304   9.624  15.728  0.00  0.00    +0.000 A 
ENDBRANCH  13  18
ENDBRANCH  12  13
ENDBRANCH  10  12
ENDBRANCH   1  10
BRANCH   2  21
ATOM     21  C   UNL     1      -0.407  11.259  22.407  0.00  0.00    +0.000 C 
ATOM     22  O   UNL     1      -1.435  10.751  22.832  0.00  0.00    +0.000 OA
BRANCH  21  23
ATOM     23  O   UNL     1      -0.093  12.574  22.438  0.00  0.00    +0.000 OA
BRANCH  23  24
ATOM     24  C   UNL     1      -1.142  13.450  22.862  0.00  0.00    +0.000 C 
BRANCH  24  25
ATOM     25  C   UNL     1      -0.854  14.877  22.527  0.00  0.00    +0.000 C 
ATOM     26  C   UNL     1      -0.396  15.338  21.164  0.00  0.00    +0.000 C 
ATOM     27  C   UNL     1      -1.812  15.590  21.600  0.00  0.00    +0.000 C 
ENDBRANCH  24  25
ENDBRANCH  23  24
ENDBRANCH  21  23
ENDBRANCH   2  21
BRANCH   9  28
ATOM     28  C   UNL     1       2.161   6.295  19.211  0.00  0.00    +0.000 C 
BRANCH  28  29
ATOM     29  C   UNL     1       2.626   5.545  17.964  0.00  0.00    +0.000 C 
ATOM     30 CL   UNL     1       1.865   3.915  17.853  0.00  0.00    +0.000 Cl
BRANCH  29  31
ATOM     31  C   UNL     1       4.137   5.340  17.892  0.00  0.00    +0.000 A 
ATOM     32  C   UNL     1       4.966   5.498  19.016  0.00  0.00    +0.000 A 
ATOM     33  C   UNL     1       6.324   5.165  18.963  0.00  0.00    +0.000 A 
ATOM     34  C   UNL     1       6.881   4.675  17.785  0.00  0.00    +0.000 A 
ATOM     35  C   UNL     1       6.089   4.551  16.647  0.00  0.00    +0.000 A 
ATOM     36  C   UNL     1       4.727   4.884  16.699  0.00  0.00    +0.000 A 
ENDBRANCH  29  31
ENDBRANCH  28  29
ENDBRANCH   9  28
TORSDOF 11
ENDMDL
MODEL 8
REMARK VINA RESULT:      -7.3      3.303      6.364
REMARK  Name = 
REMARK  12 active torsions:
REMARK  status: ('A' for Active; 'I' for Inactive)
REMARK    1  A    between atoms: C_1  and  C_2
REMARK    2  A    between atoms: C_5  and  C_6
REMARK    3  A    between atoms: C_6  and  C_7
REMARK    4  A    between atoms: C_7  and  N_8
REMARK    5  A    between atoms: N_8  and  C_9
REMARK    6  A    between atoms: C_10  and  C_11
REMARK    7  A    between atoms: C_11  and  O_13
REMARK    8  A    between atoms: O_13  and  C_14
REMARK    9  A    between atoms: C_14  and  C_15
REMARK   10  A    between atoms: N_24  and  C_25
REMARK   11  A    between atoms: C_25  and  C_26
REMARK   12  A    between atoms: C_26  and  C_28
REMARK                            x       y       z     vdW  Elec       q    Type
REMARK                         _______ _______ _______ _____ _____    ______ ____
ROOT
ATOM      1  C   UNL     1       0.673  10.328  20.158  0.00  0.00    +0.000 A 
ATOM      2  C   UNL     1       0.581   9.889  21.501  0.00  0.00    +0.000 A 
ATOM      3  C   UNL     1       1.300   8.768  21.930  0.00  0.00    +0.000 A 
ATOM      4  N   UNL     1       1.990   7.912  21.140  0.00  0.00    +0.000 NA
ATOM      5  C   UNL     1       1.906   8.251  19.841  0.00  0.00    +0.000 A 
ATOM      6  C   UNL     1       1.321   9.396  19.306  0.00  0.00    +0.000 A 
ATOM      7  C   UNL     1       1.540   9.252  17.915  0.00  0.00    +0.000 A 
ATOM      8  N   UNL     1       2.131   8.101  17.584  0.00  0.00    +0.000 NA
ATOM      9  N   UNL     1       2.323   7.489  18.777  0.00  0.00    +0.000 N 
ENDROOT
BRANCH   1  10
ATOM     10  N   UNL     1       0.128  11.503  19.643  0.00  0.00    +0.000 N 
ATOM     11  H   UNL     1       0.297  12.347  20.183  0.00  0.00    +0.000 HD
BRANCH  10  12
ATOM     12  C   UNL     1      -1.126  11.483  18.884  0.00  0.00    +0.000 C 
BRANCH  12  13
ATOM     13  C   UNL     1      -1.961  12.741  19.127  0.00  0.00    +0.000 C 
BRANCH  13  18
ATOM     14  C   UNL     1      -7.497  11.283  20.200  0.00  0.00    +0.000 C 
ATOM     15  C   UNL     1      -6.087  11.692  19.898  0.00  0.00    +0.000 A 
ATOM     16  C   UNL     1      -5.466  11.305  18.707  0.00  0.00    +0.000 A 
ATOM     17  C   UNL     1      -4.134  11.643  18.463  0.00  0.00    +0.000 A 
ATOM     18  C   UNL     1      -3.397  12.370  19.409  0.00  0.00    +0.000 A 
ATOM     19  C   UNL     1      -4.031  12.793  20.582  0.00  0.00    +0.000 A 
ATOM     20  C   UNL     1      -5.364  12.451  20.826  0.00  0.00    +0.000 A 
ENDBRANCH  13  18
ENDBRANCH  12  13
ENDBRANCH  10  12
ENDBRANCH   1  10
BRANCH   2  21
ATOM     21  C   UNL     1      -0.410  10.375  22.494  0.00  0.00    +0.000 C 
ATOM     22  O   UNL     1      -1.042   9.638  23.236  0.00  0.00    +0.000 OA
BRANCH  21  23
ATOM     23  O   UNL     1      -0.683  11.674  22.234  0.00  0.00    +0.000 OA
BRANCH  23  24
ATOM     24  C   UNL     1      -1.560  12.318  23.164  0.00  0.00    +0.000 C 
BRANCH  24  25
ATOM     25  C   UNL     1      -1.225  13.762  23.346  0.00  0.00    +0.000 C 
ATOM     26  C   UNL     1      -1.223  14.767  22.220  0.00  0.00    +0.000 C 
ATOM     27  C   UNL     1      -2.347  14.768  23.217  0.00  0.00    +0.000 C 
ENDBRANCH  24  25
ENDBRANCH  23  24
ENDBRANCH  21  23
ENDBRANCH   2  21
BRANCH   9  28
ATOM     28  C   UNL     1       2.657   6.075  18.814  0.00  0.00    +0.000 C 
BRANCH  28  29
ATOM     29  C   UNL     1       3.537   5.590  17.662  0.00  0.00    +0.000 C 
ATOM     30 CL   UNL     1       3.307   3.830  17.353  0.00  0.00    +0.000 Cl
BRANCH  29  31
ATOM     31  C   UNL     1       5.031   5.814  17.887  0.00  0.00    +0.000 A 
ATOM     32  C   UNL     1       5.783   6.691  17.086  0.00  0.00    +0.000 A 
ATOM     33  C   UNL     1       7.113   6.992  17.399  0.00  0.00    +0.000 A 
ATOM     34  C   UNL     1       7.718   6.420  18.516  0.00  0.00    +0.000 A 
ATOM     35  C   UNL     1       7.007   5.516  19.298  0.00  0.00    +0.000 A 
ATOM     36  C   UNL     1       5.672   5.213  18.985  0.00  0.00    +0.000 A 
ENDBRANCH  29  31
ENDBRANCH  28  29
ENDBRANCH   9  28
TORSDOF 11
ENDMDL
MODEL 9
REMARK VINA RESULT:      -7.3      3.136      5.717
REMARK  Name = 
REMARK  12 active torsions:
REMARK  status: ('A' for Active; 'I' for Inactive)
REMARK    1  A    between atoms: C_1  and  C_2
REMARK    2  A    between atoms: C_5  and  C_6
REMARK    3  A    between atoms: C_6  and  C_7
REMARK    4  A    between atoms: C_7  and  N_8
REMARK    5  A    between atoms: N_8  and  C_9
REMARK    6  A    between atoms: C_10  and  C_11
REMARK    7  A    between atoms: C_11  and  O_13
REMARK    8  A    between atoms: O_13  and  C_14
REMARK    9  A    between atoms: C_14  and  C_15
REMARK   10  A    between atoms: N_24  and  C_25
REMARK   11  A    between atoms: C_25  and  C_26
REMARK   12  A    between atoms: C_26  and  C_28
REMARK                            x       y       z     vdW  Elec       q    Type
REMARK                         _______ _______ _______ _____ _____    ______ ____
ROOT
ATOM      1  C   UNL     1       1.342   9.402  20.126  0.00  0.00    +0.000 A 
ATOM      2  C   UNL     1       0.915   8.650  21.247  0.00  0.00    +0.000 A 
ATOM      3  C   UNL     1       1.321   7.320  21.404  0.00  0.00    +0.000 A 
ATOM      4  N   UNL     1       1.984   6.575  20.489  0.00  0.00    +0.000 NA
ATOM      5  C   UNL     1       2.216   7.263  19.356  0.00  0.00    +0.000 A 
ATOM      6  C   UNL     1       1.963   8.611  19.124  0.00  0.00    +0.000 A 
ATOM      7  C   UNL     1       2.417   8.803  17.796  0.00  0.00    +0.000 A 
ATOM      8  N   UNL     1       2.842   7.680  17.211  0.00  0.00    +0.000 NA
ATOM      9  N   UNL     1       2.685   6.742  18.175  0.00  0.00    +0.000 N 
ENDROOT
BRANCH   1  10
ATOM     10  N   UNL     1       1.130  10.765  19.927  0.00  0.00    +0.000 N 
ATOM     11  H   UNL     1       1.177  11.349  20.757  0.00  0.00    +0.000 HD
BRANCH  10  12
ATOM     12  C   UNL     1       0.228  11.241  18.873  0.00  0.00    +0.000 C 
BRANCH  12  13
ATOM     13  C   UNL     1      -1.234  10.924  19.187  0.00  0.00    +0.000 C 
BRANCH  13  18
ATOM     14  C   UNL     1      -4.214  10.055  14.257  0.00  0.00    +0.000 C 
ATOM     15  C   UNL     1      -3.419  10.306  15.504  0.00  0.00    +0.000 A 
ATOM     16  C   UNL     1      -2.238   9.602  15.756  0.00  0.00    +0.000 A 
ATOM     17  C   UNL     1      -1.538   9.803  16.946  0.00  0.00    +0.000 A 
ATOM     18  C   UNL     1      -2.009  10.707  17.909  0.00  0.00    +0.000 A 
ATOM     19  C   UNL     1      -3.169  11.441  17.638  0.00  0.00    +0.000 A 
ATOM     20  C   UNL     1      -3.871  11.237  16.446  0.00  0.00    +0.000 A 
ENDBRANCH  13  18
ENDBRANCH  12  13
ENDBRANCH  10  12
ENDBRANCH   1  10
BRANCH   2  21
ATOM     21  C   UNL     1      -0.145   9.064  22.201  0.00  0.00    +0.000 C 
ATOM     22  O   UNL     1      -1.181   8.438  22.375  0.00  0.00    +0.000 OA
BRANCH  21  23
ATOM     23  O   UNL     1       0.098  10.335  22.595  0.00  0.00    +0.000 OA
BRANCH  23  24
ATOM     24  C   UNL     1      -1.059  11.113  22.918  0.00  0.00    +0.000 C 
BRANCH  24  25
ATOM     25  C   UNL     1      -0.890  12.551  22.552  0.00  0.00    +0.000 C 
ATOM     26  C   UNL     1      -1.950  13.363  21.849  0.00  0.00    +0.000 C 
ATOM     27  C   UNL     1      -1.701  13.572  23.317  0.00  0.00    +0.000 C 
ENDBRANCH  24  25
ENDBRANCH  23  24
ENDBRANCH  21  23
ENDBRANCH   2  21
BRANCH   9  28
ATOM     28  C   UNL     1       2.745   5.333  17.822  0.00  0.00    +0.000 C 
BRANCH  28  29
ATOM     29  C   UNL     1       4.096   4.662  18.066  0.00  0.00    +0.000 C 
ATOM     30 CL   UNL     1       4.928   5.360  19.503  0.00  0.00    +0.000 Cl
BRANCH  29  31
ATOM     31  C   UNL     1       5.063   4.773  16.889  0.00  0.00    +0.000 A 
ATOM     32  C   UNL     1       6.413   5.125  17.063  0.00  0.00    +0.000 A 
ATOM     33  C   UNL     1       7.314   5.079  15.994  0.00  0.00    +0.000 A 
ATOM     34  C   UNL     1       6.882   4.686  14.729  0.00  0.00    +0.000 A 
ATOM     35  C   UNL     1       5.542   4.376  14.524  0.00  0.00    +0.000 A 
ATOM     36  C   UNL     1       4.637   4.421  15.596  0.00  0.00    +0.000 A 
ENDBRANCH  29  31
ENDBRANCH  28  29
ENDBRANCH   9  28
TORSDOF 11
ENDMDL
