MODEL 1
REMARK VINA RESULT:      -7.8      0.000      0.000
REMARK  Name = 
REMARK  6 active torsions:
REMARK  status: ('A' for Active; 'I' for Inactive)
REMARK    1  A    between atoms: C_1  and  O_2
REMARK    2  A    between atoms: O_2  and  C_3
REMARK    3  A    between atoms: C_6  and  C_7
REMARK    4  A    between atoms: C_7  and  C_8
REMARK    5  A    between atoms: C_7  and  N_10
REMARK    6  A    between atoms: C_13  and  C_14
REMARK                            x       y       z     vdW  Elec       q    Type
REMARK                         _______ _______ _______ _____ _____    ______ ____
ROOT
ATOM      1  C   UNL     1       4.013   3.617  18.906  0.00  0.00    +0.000 C 
ENDROOT
BRANCH   1   5
ATOM      2  C   UNL     1       6.778   5.055  15.865  0.00  0.00    +0.000 A 
ATOM      3  C   UNL     1       5.487   4.652  15.527  0.00  0.00    +0.000 A 
ATOM      4  C   UNL     1       4.603   4.203  16.514  0.00  0.00    +0.000 A 
ATOM      5  C   UNL     1       5.009   4.122  17.858  0.00  0.00    +0.000 A 
ATOM      6  C   UNL     1       6.309   4.535  18.185  0.00  0.00    +0.000 A 
ATOM      7  C   UNL     1       7.189   4.990  17.197  0.00  0.00    +0.000 A 
BRANCH   2   9
ATOM      8  C   UNL     1       7.304   4.812  13.574  0.00  0.00    +0.000 C 
ATOM      9  O   UNL     1       7.558   5.458  14.817  0.00  0.00    +0.000 OA
ENDBRANCH   2   9
ENDBRANCH   1   5
BRANCH   1  10
ATOM     10  N   UNL     1       3.372   4.740  19.613  0.00  0.00    +0.000 N 
ATOM     11  C   UNL     1       2.368   4.426  20.621  0.00  0.00    +0.000 C 
ATOM     12  C   UNL     1       1.711   5.782  20.839  0.00  0.00    +0.000 C 
ATOM     13  C   UNL     1       2.297   6.567  19.695  0.00  0.00    +0.000 C 
ATOM     14  N   UNL     1       3.185   5.928  18.995  0.00  0.00    +0.000 NA
BRANCH  13  15
ATOM     15  C   UNL     1       1.888   7.962  19.410  0.00  0.00    +0.000 A 
ATOM     16  C   UNL     1       1.221   8.737  20.366  0.00  0.00    +0.000 A 
ATOM     17  C   UNL     1       0.867  10.058  20.072  0.00  0.00    +0.000 A 
ATOM     18  C   UNL     1       1.177  10.607  18.828  0.00  0.00    +0.000 A 
ATOM     19  C   UNL     1       1.846   9.841  17.875  0.00  0.00    +0.000 A 
ATOM     20  C   UNL     1       2.204   8.523  18.166  0.00  0.00    +0.000 A 
ENDBRANCH  13  15
ENDBRANCH   1  10
BRANCH   1  21
ATOM     21  C   UNL     1       4.571   2.575  19.810  0.00  0.00    +0.000 C 
ATOM     22  N   UNL     1       5.042   1.782  20.519  0.00  0.00    +0.000 NA
ENDBRANCH   1  21
TORSDOF 5
ENDMDL
MODEL 2
REMARK VINA RESULT:      -7.8      0.216      1.053
REMARK  Name = 
REMARK  6 active torsions:
REMARK  status: ('A' for Active; 'I' for Inactive)
REMARK    1  A    between atoms: C_1  and  O_2
REMARK    2  A    between atoms: O_2  and  C_3
REMARK    3  A    between atoms: C_6  and  C_7
REMARK    4  A    between atoms: C_7  and  C_8
REMARK    5  A    between atoms: C_7  and  N_10
REMARK    6  A    between atoms: C_13  and  C_14
REMARK                            x       y       z     vdW  Elec       q    Type
REMARK                         _______ _______ _______ _____ _____    ______ ____
ROOT
ATOM      1  C   UNL     1       4.084   3.519  19.077  0.00  0.00    +0.000 C 
ENDROOT
BRANCH   1   5
ATOM      2  C   UNL     1       6.880   4.870  16.025  0.00  0.00    +0.000 A 
ATOM      3  C   UNL     1       5.675   4.261  15.676  0.00  0.00    +0.000 A 
ATOM      4  C   UNL     1       4.779   3.843  16.664  0.00  0.00    +0.000 A 
ATOM      5  C   UNL     1       5.089   3.999  18.027  0.00  0.00    +0.000 A 
ATOM      6  C   UNL     1       6.302   4.617  18.365  0.00  0.00    +0.000 A 
ATOM      7  C   UNL     1       7.193   5.041  17.374  0.00  0.00    +0.000 A 
BRANCH   2   9
ATOM      8  C   UNL     1       7.197   4.878  13.684  0.00  0.00    +0.000 C 
ATOM      9  O   UNL     1       7.683   5.222  14.977  0.00  0.00    +0.000 OA
ENDBRANCH   2   9
ENDBRANCH   1   5
BRANCH   1  10
ATOM     10  N   UNL     1       3.407   4.657  19.724  0.00  0.00    +0.000 N 
ATOM     11  C   UNL     1       2.343   4.367  20.676  0.00  0.00    +0.000 C 
ATOM     12  C   UNL     1       1.681   5.728  20.829  0.00  0.00    +0.000 C 
ATOM     13  C   UNL     1       2.337   6.490  19.708  0.00  0.00    +0.000 C 
ATOM     14  N   UNL     1       3.262   5.834  19.074  0.00  0.00    +0.000 NA
BRANCH  13  15
ATOM     15  C   UNL     1       1.952   7.880  19.373  0.00  0.00    +0.000 A 
ATOM     16  C   UNL     1       2.264   8.445  18.132  0.00  0.00    +0.000 A 
ATOM     17  C   UNL     1       1.867   9.754  17.839  0.00  0.00    +0.000 A 
ATOM     18  C   UNL     1       1.162  10.500  18.783  0.00  0.00    +0.000 A 
ATOM     19  C   UNL     1       0.844   9.940  20.019  0.00  0.00    +0.000 A 
ATOM     20  C   UNL     1       1.235   8.632  20.313  0.00  0.00    +0.000 A 
ENDBRANCH  13  15
ENDBRANCH   1  10
BRANCH   1  21
ATOM     21  C   UNL     1       4.645   2.528  20.036  0.00  0.00    +0.000 C 
ATOM     22  N   UNL     1       5.048   1.738  20.789  0.00  0.00    +0.000 NA
ENDBRANCH   1  21
TORSDOF 5
ENDMDL
MODEL 3
REMARK VINA RESULT:      -7.7      0.111      1.459
REMARK  Name = 
REMARK  6 active torsions:
REMARK  status: ('A' for Active; 'I' for Inactive)
REMARK    1  A    between atoms: C_1  and  O_2
REMARK    2  A    between atoms: O_2  and  C_3
REMARK    3  A    between atoms: C_6  and  C_7
REMARK    4  A    between atoms: C_7  and  C_8
REMARK    5  A    between atoms: C_7  and  N_10
REMARK    6  A    between atoms: C_13  and  C_14
REMARK                            x       y       z     vdW  Elec       q    Type
REMARK                         _______ _______ _______ _____ _____    ______ ____
ROOT
ATOM      1  C   UNL     1       3.970   3.565  18.915  0.00  0.00    +0.000 C 
ENDROOT
BRANCH   1   5
ATOM      2  C   UNL     1       6.717   4.924  15.822  0.00  0.00    +0.000 A 
ATOM      3  C   UNL     1       7.094   4.918  17.165  0.00  0.00    +0.000 A 
ATOM      4  C   UNL     1       6.208   4.468  18.148  0.00  0.00    +0.000 A 
ATOM      5  C   UNL     1       4.912   4.042  17.806  0.00  0.00    +0.000 A 
ATOM      6  C   UNL     1       4.547   4.049  16.452  0.00  0.00    +0.000 A 
ATOM      7  C   UNL     1       5.438   4.493  15.469  0.00  0.00    +0.000 A 
BRANCH   2   9
ATOM      8  C   UNL     1       7.507   4.995  13.596  0.00  0.00    +0.000 C 
ATOM      9  O   UNL     1       7.658   5.400  14.953  0.00  0.00    +0.000 OA
ENDBRANCH   2   9
ENDBRANCH   1   5
BRANCH   1  10
ATOM     10  N   UNL     1       3.349   4.705  19.613  0.00  0.00    +0.000 N 
ATOM     11  C   UNL     1       2.341   4.420  20.624  0.00  0.00    +0.000 C 
ATOM     12  C   UNL     1       1.709   5.789  20.830  0.00  0.00    +0.000 C 
ATOM     13  C   UNL     1       2.308   6.553  19.679  0.00  0.00    +0.000 C 
ATOM     14  N   UNL     1       3.183   5.891  18.984  0.00  0.00    +0.000 NA
BRANCH  13  15
ATOM     15  C   UNL     1       1.923   7.952  19.381  0.00  0.00    +0.000 A 
ATOM     16  C   UNL     1       2.212   8.542  18.145  0.00  0.00    +0.000 A 
ATOM     17  C   UNL     1       1.816   9.858  17.889  0.00  0.00    +0.000 A 
ATOM     18  C   UNL     1       1.135  10.588  18.863  0.00  0.00    +0.000 A 
ATOM     19  C   UNL     1       0.840  10.003  20.093  0.00  0.00    +0.000 A 
ATOM     20  C   UNL     1       1.230   8.688  20.351  0.00  0.00    +0.000 A 
ENDBRANCH  13  15
ENDBRANCH   1  10
BRANCH   1  21
ATOM     21  C   UNL     1       4.580   2.560  19.828  0.00  0.00    +0.000 C 
ATOM     22  N   UNL     1       5.044   1.797  20.573  0.00  0.00    +0.000 NA
ENDBRANCH   1  21
TORSDOF 5
ENDMDL
MODEL 4
REMARK VINA RESULT:      -7.7      0.129      1.034
REMARK  Name = 
REMARK  6 active torsions:
REMARK  status: ('A' for Active; 'I' for Inactive)
REMARK    1  A    between atoms: C_1  and  O_2
REMARK    2  A    between atoms: O_2  and  C_3
REMARK    3  A    between atoms: C_6  and  C_7
REMARK    4  A    between atoms: C_7  and  C_8
REMARK    5  A    between atoms: C_7  and  N_10
REMARK    6  A    between atoms: C_13  and  C_14
REMARK                            x       y       z     vdW  Elec       q    Type
REMARK                         _______ _______ _______ _____ _____    ______ ____
ROOT
ATOM      1  C   UNL     1       3.978   3.532  18.935  0.00  0.00    +0.000 C 
ENDROOT
BRANCH   1   5
ATOM      2  C   UNL     1       6.721   4.905  15.844  0.00  0.00    +0.000 A 
ATOM      3  C   UNL     1       7.086   4.930  17.190  0.00  0.00    +0.000 A 
ATOM      4  C   UNL     1       6.202   4.475  18.173  0.00  0.00    +0.000 A 
ATOM      5  C   UNL     1       4.919   4.013  17.827  0.00  0.00    +0.000 A 
ATOM      6  C   UNL     1       4.566   3.990  16.469  0.00  0.00    +0.000 A 
ATOM      7  C   UNL     1       5.456   4.439  15.487  0.00  0.00    +0.000 A 
BRANCH   2   9
ATOM      8  C   UNL     1       7.489   5.016  13.612  0.00  0.00    +0.000 C 
ATOM      9  O   UNL     1       7.659   5.389  14.975  0.00  0.00    +0.000 OA
ENDBRANCH   2   9
ENDBRANCH   1   5
BRANCH   1  10
ATOM     10  N   UNL     1       3.350   4.670  19.630  0.00  0.00    +0.000 N 
ATOM     11  C   UNL     1       2.350   4.379  20.649  0.00  0.00    +0.000 C 
ATOM     12  C   UNL     1       1.706   5.743  20.851  0.00  0.00    +0.000 C 
ATOM     13  C   UNL     1       2.290   6.507  19.693  0.00  0.00    +0.000 C 
ATOM     14  N   UNL     1       3.169   5.850  18.996  0.00  0.00    +0.000 NA
BRANCH  13  15
ATOM     15  C   UNL     1       1.891   7.901  19.391  0.00  0.00    +0.000 A 
ATOM     16  C   UNL     1       1.211   8.685  20.329  0.00  0.00    +0.000 A 
ATOM     17  C   UNL     1       0.866  10.005  20.019  0.00  0.00    +0.000 A 
ATOM     18  C   UNL     1       1.198  10.543  18.776  0.00  0.00    +0.000 A 
ATOM     19  C   UNL     1       1.881   9.768  17.841  0.00  0.00    +0.000 A 
ATOM     20  C   UNL     1       2.229   8.451  18.148  0.00  0.00    +0.000 A 
ENDBRANCH  13  15
ENDBRANCH   1  10
BRANCH   1  21
ATOM     21  C   UNL     1       4.592   2.532  19.849  0.00  0.00    +0.000 C 
ATOM     22  N   UNL     1       5.040   1.753  20.589  0.00  0.00    +0.000 NA
ENDBRANCH   1  21
TORSDOF 5
ENDMDL
MODEL 5
REMARK VINA RESULT:      -7.3      2.441      6.636
REMARK  Name = 
REMARK  6 active torsions:
REMARK  status: ('A' for Active; 'I' for Inactive)
REMARK    1  A    between atoms: C_1  and  O_2
REMARK    2  A    between atoms: O_2  and  C_3
REMARK    3  A    between atoms: C_6  and  C_7
REMARK    4  A    between atoms: C_7  and  C_8
REMARK    5  A    between atoms: C_7  and  N_10
REMARK    6  A    between atoms: C_13  and  C_14
REMARK                            x       y       z     vdW  Elec       q    Type
REMARK                         _______ _______ _______ _____ _____    ______ ____
ROOT
ATOM      1  C   UNL     1       3.757   3.906  18.582  0.00  0.00    +0.000 C 
ENDROOT
BRANCH   1   5
ATOM      2  C   UNL     1       2.059   7.864  19.223  0.00  0.00    +0.000 A 
ATOM      3  C   UNL     1       2.635   7.520  18.001  0.00  0.00    +0.000 A 
ATOM      4  C   UNL     1       3.166   6.242  17.802  0.00  0.00    +0.000 A 
ATOM      5  C   UNL     1       3.157   5.291  18.839  0.00  0.00    +0.000 A 
ATOM      6  C   UNL     1       2.570   5.649  20.062  0.00  0.00    +0.000 A 
ATOM      7  C   UNL     1       2.033   6.926  20.255  0.00  0.00    +0.000 A 
BRANCH   2   9
ATOM      8  C   UNL     1       1.553   9.871  18.084  0.00  0.00    +0.000 C 
ATOM      9  O   UNL     1       1.588   9.145  19.308  0.00  0.00    +0.000 OA
ENDBRANCH   2   9
ENDBRANCH   1   5
BRANCH   1  10
ATOM     10  N   UNL     1       4.988   4.001  17.778  0.00  0.00    +0.000 N 
ATOM     11  C   UNL     1       6.076   4.823  18.290  0.00  0.00    +0.000 C 
ATOM     12  C   UNL     1       6.968   4.959  17.065  0.00  0.00    +0.000 C 
ATOM     13  C   UNL     1       6.066   4.403  15.995  0.00  0.00    +0.000 C 
ATOM     14  N   UNL     1       4.939   3.926  16.428  0.00  0.00    +0.000 NA
BRANCH  13  15
ATOM     15  C   UNL     1       6.453   4.400  14.565  0.00  0.00    +0.000 A 
ATOM     16  C   UNL     1       7.480   5.221  14.085  0.00  0.00    +0.000 A 
ATOM     17  C   UNL     1       7.835   5.179  12.733  0.00  0.00    +0.000 A 
ATOM     18  C   UNL     1       7.168   4.320  11.859  0.00  0.00    +0.000 A 
ATOM     19  C   UNL     1       6.150   3.497  12.334  0.00  0.00    +0.000 A 
ATOM     20  C   UNL     1       5.794   3.534  13.684  0.00  0.00    +0.000 A 
ENDBRANCH  13  15
ENDBRANCH   1  10
BRANCH   1  21
ATOM     21  C   UNL     1       2.775   2.914  18.065  0.00  0.00    +0.000 C 
ATOM     22  N   UNL     1       1.983   2.149  17.691  0.00  0.00    +0.000 NA
ENDBRANCH   1  21
TORSDOF 5
ENDMDL
MODEL 6
REMARK VINA RESULT:      -7.2      2.454      6.782
REMARK  Name = 
REMARK  6 active torsions:
REMARK  status: ('A' for Active; 'I' for Inactive)
REMARK    1  A    between atoms: C_1  and  O_2
REMARK    2  A    between atoms: O_2  and  C_3
REMARK    3  A    between atoms: C_6  and  C_7
REMARK    4  A    between atoms: C_7  and  C_8
REMARK    5  A    between atoms: C_7  and  N_10
REMARK    6  A    between atoms: C_13  and  C_14
REMARK                            x       y       z     vdW  Elec       q    Type
REMARK                         _______ _______ _______ _____ _____    ______ ____
ROOT
ATOM      1  C   UNL     1       3.526   4.116  18.638  0.00  0.00    +0.000 C 
ENDROOT
BRANCH   1   5
ATOM      2  C   UNL     1       1.972   8.147  19.181  0.00  0.00    +0.000 A 
ATOM      3  C   UNL     1       1.880   7.199  20.200  0.00  0.00    +0.000 A 
ATOM      4  C   UNL     1       2.393   5.911  20.019  0.00  0.00    +0.000 A 
ATOM      5  C   UNL     1       2.984   5.539  18.798  0.00  0.00    +0.000 A 
ATOM      6  C   UNL     1       3.074   6.503  17.783  0.00  0.00    +0.000 A 
ATOM      7  C   UNL     1       2.566   7.793  17.970  0.00  0.00    +0.000 A 
BRANCH   2   9
ATOM      8  C   UNL     1       0.823   9.488  20.751  0.00  0.00    +0.000 C 
ATOM      9  O   UNL     1       1.421   9.365  19.465  0.00  0.00    +0.000 OA
ENDBRANCH   2   9
ENDBRANCH   1   5
BRANCH   1  10
ATOM     10  N   UNL     1       4.774   4.107  17.855  0.00  0.00    +0.000 N 
ATOM     11  C   UNL     1       5.921   4.828  18.392  0.00  0.00    +0.000 C 
ATOM     12  C   UNL     1       6.842   4.893  17.182  0.00  0.00    +0.000 C 
ATOM     13  C   UNL     1       5.914   4.425  16.093  0.00  0.00    +0.000 C 
ATOM     14  N   UNL     1       4.742   4.045  16.504  0.00  0.00    +0.000 NA
BRANCH  13  15
ATOM     15  C   UNL     1       6.324   4.397  14.670  0.00  0.00    +0.000 A 
ATOM     16  C   UNL     1       7.376   5.190  14.198  0.00  0.00    +0.000 A 
ATOM     17  C   UNL     1       7.752   5.124  12.853  0.00  0.00    +0.000 A 
ATOM     18  C   UNL     1       7.081   4.270  11.978  0.00  0.00    +0.000 A 
ATOM     19  C   UNL     1       6.037   3.474  12.445  0.00  0.00    +0.000 A 
ATOM     20  C   UNL     1       5.661   3.534  13.788  0.00  0.00    +0.000 A 
ENDBRANCH  13  15
ENDBRANCH   1  10
BRANCH   1  21
ATOM     21  C   UNL     1       2.510   3.138  18.162  0.00  0.00    +0.000 C 
ATOM     22  N   UNL     1       1.723   2.351  17.823  0.00  0.00    +0.000 NA
ENDBRANCH   1  21
TORSDOF 5
ENDMDL
MODEL 7
REMARK VINA RESULT:      -7.2      2.478      6.837
REMARK  Name = 
REMARK  6 active torsions:
REMARK  status: ('A' for Active; 'I' for Inactive)
REMARK    1  A    between atoms: C_1  and  O_2
REMARK    2  A    between atoms: O_2  and  C_3
REMARK    3  A    between atoms: C_6  and  C_7
REMARK    4  A    between atoms: C_7  and  C_8
REMARK    5  A    between atoms: C_7  and  N_10
REMARK    6  A    between atoms: C_13  and  C_14
REMARK                            x       y       z     vdW  Elec       q    Type
REMARK                         _______ _______ _______ _____ _____    ______ ____
ROOT
ATOM      1  C   UNL     1       3.638   4.194  18.574  0.00  0.00    +0.000 C 
ENDROOT
BRANCH   1   5
ATOM      2  C   UNL     1       1.961   8.160  19.220  0.00  0.00    +0.000 A 
ATOM      3  C   UNL     1       1.924   7.193  20.224  0.00  0.00    +0.000 A 
ATOM      4  C   UNL     1       2.477   5.927  20.010  0.00  0.00    +0.000 A 
ATOM      5  C   UNL     1       3.052   5.594  18.770  0.00  0.00    +0.000 A 
ATOM      6  C   UNL     1       3.087   6.578  17.770  0.00  0.00    +0.000 A 
ATOM      7  C   UNL     1       2.539   7.846  17.990  0.00  0.00    +0.000 A 
BRANCH   2   9
ATOM      8  C   UNL     1       0.669   9.387  20.772  0.00  0.00    +0.000 C 
ATOM      9  O   UNL     1       1.376   9.354  19.536  0.00  0.00    +0.000 OA
ENDBRANCH   2   9
ENDBRANCH   1   5
BRANCH   1  10
ATOM     10  N   UNL     1       4.876   4.242  17.774  0.00  0.00    +0.000 N 
ATOM     11  C   UNL     1       5.944   5.123  18.224  0.00  0.00    +0.000 C 
ATOM     12  C   UNL     1       6.845   5.172  16.999  0.00  0.00    +0.000 C 
ATOM     13  C   UNL     1       5.963   4.513  15.972  0.00  0.00    +0.000 C 
ATOM     14  N   UNL     1       4.840   4.054  16.436  0.00  0.00    +0.000 NA
BRANCH  13  15
ATOM     15  C   UNL     1       6.364   4.398  14.551  0.00  0.00    +0.000 A 
ATOM     16  C   UNL     1       5.687   3.549  13.668  0.00  0.00    +0.000 A 
ATOM     17  C   UNL     1       6.078   3.479  12.327  0.00  0.00    +0.000 A 
ATOM     18  C   UNL     1       7.142   4.254  11.865  0.00  0.00    +0.000 A 
ATOM     19  C   UNL     1       7.814   5.106  12.739  0.00  0.00    +0.000 A 
ATOM     20  C   UNL     1       7.425   5.180  14.078  0.00  0.00    +0.000 A 
ENDBRANCH  13  15
ENDBRANCH   1  10
BRANCH   1  21
ATOM     21  C   UNL     1       2.649   3.192  18.092  0.00  0.00    +0.000 C 
ATOM     22  N   UNL     1       1.851   2.420  17.745  0.00  0.00    +0.000 NA
ENDBRANCH   1  21
TORSDOF 5
ENDMDL
MODEL 8
REMARK VINA RESULT:      -7.2      0.931      1.407
REMARK  Name = 
REMARK  6 active torsions:
REMARK  status: ('A' for Active; 'I' for Inactive)
REMARK    1  A    between atoms: C_1  and  O_2
REMARK    2  A    between atoms: O_2  and  C_3
REMARK    3  A    between atoms: C_6  and  C_7
REMARK    4  A    between atoms: C_7  and  C_8
REMARK    5  A    between atoms: C_7  and  N_10
REMARK    6  A    between atoms: C_13  and  C_14
REMARK                            x       y       z     vdW  Elec       q    Type
REMARK                         _______ _______ _______ _____ _____    ______ ____
ROOT
ATOM      1  C   UNL     1       3.575   3.698  17.711  0.00  0.00    +0.000 C 
ENDROOT
BRANCH   1   5
ATOM      2  C   UNL     1       6.987   5.041  15.362  0.00  0.00    +0.000 A 
ATOM      3  C   UNL     1       5.726   4.904  14.783  0.00  0.00    +0.000 A 
ATOM      4  C   UNL     1       4.635   4.484  15.550  0.00  0.00    +0.000 A 
ATOM      5  C   UNL     1       4.794   4.163  16.910  0.00  0.00    +0.000 A 
ATOM      6  C   UNL     1       6.067   4.309  17.482  0.00  0.00    +0.000 A 
ATOM      7  C   UNL     1       7.155   4.737  16.713  0.00  0.00    +0.000 A 
BRANCH   2   9
ATOM      8  C   UNL     1       7.819   5.061  13.151  0.00  0.00    +0.000 C 
ATOM      9  O   UNL     1       7.980   5.442  14.513  0.00  0.00    +0.000 OA
ENDBRANCH   2   9
ENDBRANCH   1   5
BRANCH   1  10
ATOM     10  N   UNL     1       3.232   4.668  18.767  0.00  0.00    +0.000 N 
ATOM     11  C   UNL     1       2.628   4.160  19.991  0.00  0.00    +0.000 C 
ATOM     12  C   UNL     1       2.107   5.436  20.635  0.00  0.00    +0.000 C 
ATOM     13  C   UNL     1       2.279   6.415  19.504  0.00  0.00    +0.000 C 
ATOM     14  N   UNL     1       2.864   5.931  18.450  0.00  0.00    +0.000 NA
BRANCH  13  15
ATOM     15  C   UNL     1       1.820   7.820  19.605  0.00  0.00    +0.000 A 
ATOM     16  C   UNL     1       1.847   8.678  18.500  0.00  0.00    +0.000 A 
ATOM     17  C   UNL     1       1.387   9.993  18.624  0.00  0.00    +0.000 A 
ATOM     18  C   UNL     1       0.899  10.452  19.848  0.00  0.00    +0.000 A 
ATOM     19  C   UNL     1       0.864   9.599  20.949  0.00  0.00    +0.000 A 
ATOM     20  C   UNL     1       1.320   8.285  20.828  0.00  0.00    +0.000 A 
ENDBRANCH  13  15
ENDBRANCH   1  10
BRANCH   1  21
ATOM     21  C   UNL     1       3.675   2.294  18.194  0.00  0.00    +0.000 C 
ATOM     22  N   UNL     1       3.773   1.187  18.537  0.00  0.00    +0.000 NA
ENDBRANCH   1  21
TORSDOF 5
ENDMDL
MODEL 9
REMARK VINA RESULT:      -7.1      1.031      1.482
REMARK  Name = 
REMARK  6 active torsions:
REMARK  status: ('A' for Active; 'I' for Inactive)
REMARK    1  A    between atoms: C_1  and  O_2
REMARK    2  A    between atoms: O_2  and  C_3
REMARK    3  A    between atoms: C_6  and  C_7
REMARK    4  A    between atoms: C_7  and  C_8
REMARK    5  A    between atoms: C_7  and  N_10
REMARK    6  A    between atoms: C_13  and  C_14
REMARK                            x       y       z     vdW  Elec       q    Type
REMARK                         _______ _______ _______ _____ _____    ______ ____
ROOT
ATOM      1  C   UNL     1       3.550   3.710  17.531  0.00  0.00    +0.000 C 
ENDROOT
BRANCH   1   5
ATOM      2  C   UNL     1       6.917   4.924  15.051  0.00  0.00    +0.000 A 
ATOM      3  C   UNL     1       7.014   4.923  16.442  0.00  0.00    +0.000 A 
ATOM      4  C   UNL     1       5.931   4.519  17.228  0.00  0.00    +0.000 A 
ATOM      5  C   UNL     1       4.715   4.137  16.633  0.00  0.00    +0.000 A 
ATOM      6  C   UNL     1       4.632   4.138  15.233  0.00  0.00    +0.000 A 
ATOM      7  C   UNL     1       5.721   4.535  14.449  0.00  0.00    +0.000 A 
BRANCH   2   9
ATOM      8  C   UNL     1       7.958   5.319  12.967  0.00  0.00    +0.000 C 
ATOM      9  O   UNL     1       8.033   5.353  14.388  0.00  0.00    +0.000 OA
ENDBRANCH   2   9
ENDBRANCH   1   5
BRANCH   1  10
ATOM     10  N   UNL     1       3.286   4.717  18.574  0.00  0.00    +0.000 N 
ATOM     11  C   UNL     1       2.838   4.248  19.878  0.00  0.00    +0.000 C 
ATOM     12  C   UNL     1       2.341   5.535  20.519  0.00  0.00    +0.000 C 
ATOM     13  C   UNL     1       2.352   6.464  19.334  0.00  0.00    +0.000 C 
ATOM     14  N   UNL     1       2.838   5.950  18.245  0.00  0.00    +0.000 NA
BRANCH  13  15
ATOM     15  C   UNL     1       1.853   7.856  19.423  0.00  0.00    +0.000 A 
ATOM     16  C   UNL     1       1.348   8.376  20.621  0.00  0.00    +0.000 A 
ATOM     17  C   UNL     1       0.904   9.700  20.676  0.00  0.00    +0.000 A 
ATOM     18  C   UNL     1       0.962  10.507  19.540  0.00  0.00    +0.000 A 
ATOM     19  C   UNL     1       1.469   9.996  18.347  0.00  0.00    +0.000 A 
ATOM     20  C   UNL     1       1.917   8.675  18.289  0.00  0.00    +0.000 A 
ENDBRANCH  13  15
ENDBRANCH   1  10
BRANCH   1  21
ATOM     21  C   UNL     1       3.673   2.321  18.052  0.00  0.00    +0.000 C 
ATOM     22  N   UNL     1       3.803   1.232  18.438  0.00  0.00    +0.000 NA
ENDBRANCH   1  21
TORSDOF 5
ENDMDL
