MODEL 1
REMARK VINA RESULT:      -6.9      0.000      0.000
REMARK  Name = 
REMARK  9 active torsions:
REMARK  status: ('A' for Active; 'I' for Inactive)
REMARK    1  A    between atoms: C_1  and  C_2
REMARK    2  A    between atoms: N_5  and  C_6
REMARK    3  A    between atoms: C_6  and  C_7
REMARK    4  A    between atoms: N_9  and  C_10
REMARK    5  A    between atoms: C_10  and  C_11
REMARK    6  A    between atoms: N_13  and  C_14
REMARK    7  A    between atoms: N_13  and  C_15
REMARK    8  A    between atoms: C_15  and  C_16
REMARK    9  A    between atoms: N_19  and  C_20
REMARK                            x       y       z     vdW  Elec       q    Type
REMARK                         _______ _______ _______ _____ _____    ______ ____
ROOT
ATOM      1  C   UNL     1       5.012   4.551  18.032  0.00  0.00    +0.000 C 
ATOM      2  C   UNL     1       4.809   5.685  19.074  0.00  0.00    +0.000 C 
ATOM      3  N   UNL     1       3.452   5.708  19.670  0.00  0.00    +0.000 NA
ATOM      4  C   UNL     1       3.164   4.354  20.196  0.00  0.00    +0.000 C 
ATOM      5  C   UNL     1       3.396   3.231  19.172  0.00  0.00    +0.000 C 
ATOM      6  O   UNL     1       4.728   3.270  18.636  0.00  0.00    +0.000 OA
ENDROOT
BRANCH   1   7
ATOM      7  C   UNL     1       6.440   4.527  17.488  0.00  0.00    +0.000 C 
BRANCH   7  12
ATOM      8  C   UNL     1       5.852   3.418  12.649  0.00  0.00    +0.000 C 
ATOM      9  C   UNL     1       6.257   4.060  13.919  0.00  0.00    +0.000 A 
ATOM     10  C   UNL     1       7.226   5.067  14.125  0.00  0.00    +0.000 A 
ATOM     11  N   UNL     1       7.373   5.380  15.420  0.00  0.00    +0.000 NA
ATOM     12  N   UNL     1       6.486   4.579  16.041  0.00  0.00    +0.000 N 
ATOM     13  C   UNL     1       5.781   3.788  15.183  0.00  0.00    +0.000 A 
ENDBRANCH   7  12
ENDBRANCH   1   7
BRANCH   3  14
ATOM     14  C   UNL     1       2.471   6.140  18.645  0.00  0.00    +0.000 C 
BRANCH  14  15
ATOM     15  C   UNL     1       2.368   7.664  18.488  0.00  0.00    +0.000 C 
ATOM     16  O   UNL     1       2.802   8.245  17.489  0.00  0.00    +0.000 OA
ATOM     17  N   UNL     1       1.740   8.363  19.520  0.00  0.00    +0.000 N 
ATOM     18  C   UNL     1       1.171   7.774  20.728  0.00  0.00    +0.000 C 
BRANCH  17  19
ATOM     19  C   UNL     1       1.693   9.815  19.417  0.00  0.00    +0.000 C 
BRANCH  19  20
ATOM     20  C   UNL     1       0.297  10.301  19.253  0.00  0.00    +0.000 A 
ATOM     21  C   UNL     1      -0.468  11.062  20.171  0.00  0.00    +0.000 A 
ATOM     22  N   UNL     1      -1.649  11.435  19.672  0.00  0.00    +0.000 NA
ATOM     23  N   UNL     1      -1.641  10.931  18.427  0.00  0.00    +0.000 N 
ATOM     24  C   UNL     1      -2.694  11.258  17.497  0.00  0.00    +0.000 C 
ATOM     25  C   UNL     1      -0.525  10.197  18.149  0.00  0.00    +0.000 A 
ENDBRANCH  19  20
ENDBRANCH  17  19
ENDBRANCH  14  15
ENDBRANCH   3  14
TORSDOF 6
ENDMDL
MODEL 2
REMARK VINA RESULT:      -6.9      1.357      1.617
REMARK  Name = 
REMARK  9 active torsions:
REMARK  status: ('A' for Active; 'I' for Inactive)
REMARK    1  A    between atoms: C_1  and  C_2
REMARK    2  A    between atoms: N_5  and  C_6
REMARK    3  A    between atoms: C_6  and  C_7
REMARK    4  A    between atoms: N_9  and  C_10
REMARK    5  A    between atoms: C_10  and  C_11
REMARK    6  A    between atoms: N_13  and  C_14
REMARK    7  A    between atoms: N_13  and  C_15
REMARK    8  A    between atoms: C_15  and  C_16
REMARK    9  A    between atoms: N_19  and  C_20
REMARK                            x       y       z     vdW  Elec       q    Type
REMARK                         _______ _______ _______ _____ _____    ______ ____
ROOT
ATOM      1  C   UNL     1       4.951   4.692  17.751  0.00  0.00    +0.000 C 
ATOM      2  C   UNL     1       4.871   5.267  19.192  0.00  0.00    +0.000 C 
ATOM      3  N   UNL     1       3.486   5.378  19.710  0.00  0.00    +0.000 NA
ATOM      4  C   UNL     1       2.837   4.056  19.556  0.00  0.00    +0.000 C 
ATOM      5  C   UNL     1       2.945   3.475  18.136  0.00  0.00    +0.000 C 
ATOM      6  O   UNL     1       4.312   3.398  17.699  0.00  0.00    +0.000 OA
ENDROOT
BRANCH   1   7
ATOM      7  C   UNL     1       6.397   4.539  17.279  0.00  0.00    +0.000 C 
BRANCH   7  12
ATOM      8  C   UNL     1       6.209   3.414  12.412  0.00  0.00    +0.000 C 
ATOM      9  C   UNL     1       6.473   4.084  13.705  0.00  0.00    +0.000 A 
ATOM     10  C   UNL     1       7.324   5.179  13.970  0.00  0.00    +0.000 A 
ATOM     11  N   UNL     1       7.362   5.496  15.272  0.00  0.00    +0.000 NA
ATOM     12  N   UNL     1       6.523   4.606  15.838  0.00  0.00    +0.000 N 
ATOM     13  C   UNL     1       5.952   3.756  14.938  0.00  0.00    +0.000 A 
ENDBRANCH   7  12
ENDBRANCH   1   7
BRANCH   3  14
ATOM     14  C   UNL     1       2.770   6.451  18.978  0.00  0.00    +0.000 C 
BRANCH  14  15
ATOM     15  C   UNL     1       1.932   7.366  19.883  0.00  0.00    +0.000 C 
ATOM     16  O   UNL     1       1.563   7.009  21.004  0.00  0.00    +0.000 OA
ATOM     17  N   UNL     1       1.622   8.633  19.384  0.00  0.00    +0.000 N 
ATOM     18  C   UNL     1       2.029   9.163  18.087  0.00  0.00    +0.000 C 
BRANCH  17  19
ATOM     19  C   UNL     1       0.773   9.488  20.202  0.00  0.00    +0.000 C 
BRANCH  19  20
ATOM     20  C   UNL     1       0.246  10.637  19.419  0.00  0.00    +0.000 A 
ATOM     21  C   UNL     1      -0.877  10.654  18.556  0.00  0.00    +0.000 A 
ATOM     22  N   UNL     1      -1.152  11.877  18.093  0.00  0.00    +0.000 NA
ATOM     23  N   UNL     1      -0.218  12.651  18.668  0.00  0.00    +0.000 N 
ATOM     24  C   UNL     1      -0.275  14.087  18.538  0.00  0.00    +0.000 C 
ATOM     25  C   UNL     1       0.676  11.949  19.424  0.00  0.00    +0.000 A 
ENDBRANCH  19  20
ENDBRANCH  17  19
ENDBRANCH  14  15
ENDBRANCH   3  14
TORSDOF 6
ENDMDL
MODEL 3
REMARK VINA RESULT:      -6.6      1.648      2.085
REMARK  Name = 
REMARK  9 active torsions:
REMARK  status: ('A' for Active; 'I' for Inactive)
REMARK    1  A    between atoms: C_1  and  C_2
REMARK    2  A    between atoms: N_5  and  C_6
REMARK    3  A    between atoms: C_6  and  C_7
REMARK    4  A    between atoms: N_9  and  C_10
REMARK    5  A    between atoms: C_10  and  C_11
REMARK    6  A    between atoms: N_13  and  C_14
REMARK    7  A    between atoms: N_13  and  C_15
REMARK    8  A    between atoms: C_15  and  C_16
REMARK    9  A    between atoms: N_19  and  C_20
REMARK                            x       y       z     vdW  Elec       q    Type
REMARK                         _______ _______ _______ _____ _____    ______ ____
ROOT
ATOM      1  C   UNL     1       3.307   3.951  18.791  0.00  0.00    +0.000 C 
ATOM      2  C   UNL     1       3.539   4.836  20.046  0.00  0.00    +0.000 C 
ATOM      3  N   UNL     1       2.340   5.603  20.461  0.00  0.00    +0.000 NA
ATOM      4  C   UNL     1       1.216   4.648  20.601  0.00  0.00    +0.000 C 
ATOM      5  C   UNL     1       1.009   3.751  19.370  0.00  0.00    +0.000 C 
ATOM      6  O   UNL     1       2.209   3.041  19.025  0.00  0.00    +0.000 OA
ENDROOT
BRANCH   1   7
ATOM      7  C   UNL     1       4.548   3.134  18.435  0.00  0.00    +0.000 C 
BRANCH   7  12
ATOM      8  C   UNL     1       6.971   4.900  14.434  0.00  0.00    +0.000 C 
ATOM      9  C   UNL     1       6.552   4.598  15.821  0.00  0.00    +0.000 A 
ATOM     10  C   UNL     1       7.246   4.853  17.025  0.00  0.00    +0.000 A 
ATOM     11  N   UNL     1       6.590   4.397  18.101  0.00  0.00    +0.000 NA
ATOM     12  N   UNL     1       5.468   3.860  17.583  0.00  0.00    +0.000 N 
ATOM     13  C   UNL     1       5.391   3.975  16.227  0.00  0.00    +0.000 A 
ENDBRANCH   7  12
ENDBRANCH   1   7
BRANCH   3  14
ATOM     14  C   UNL     1       2.062   6.663  19.461  0.00  0.00    +0.000 C 
BRANCH  14  15
ATOM     15  C   UNL     1       1.611   7.995  20.079  0.00  0.00    +0.000 C 
ATOM     16  O   UNL     1       1.354   8.100  21.281  0.00  0.00    +0.000 OA
ATOM     17  N   UNL     1       1.527   9.092  19.219  0.00  0.00    +0.000 N 
ATOM     18  C   UNL     1       1.832   9.083  17.791  0.00  0.00    +0.000 C 
BRANCH  17  19
ATOM     19  C   UNL     1       1.039  10.346  19.775  0.00  0.00    +0.000 C 
BRANCH  19  20
ATOM     20  C   UNL     1      -0.207  10.792  19.095  0.00  0.00    +0.000 A 
ATOM     21  C   UNL     1      -0.470  12.055  18.511  0.00  0.00    +0.000 A 
ATOM     22  N   UNL     1      -1.646  12.095  17.879  0.00  0.00    +0.000 NA
ATOM     23  N   UNL     1      -2.135  10.855  18.041  0.00  0.00    +0.000 N 
ATOM     24  C   UNL     1      -3.339  10.448  17.357  0.00  0.00    +0.000 C 
ATOM     25  C   UNL     1      -1.339  10.055  18.809  0.00  0.00    +0.000 A 
ENDBRANCH  19  20
ENDBRANCH  17  19
ENDBRANCH  14  15
ENDBRANCH   3  14
TORSDOF 6
ENDMDL
MODEL 4
REMARK VINA RESULT:      -6.5      0.832      1.419
REMARK  Name = 
REMARK  9 active torsions:
REMARK  status: ('A' for Active; 'I' for Inactive)
REMARK    1  A    between atoms: C_1  and  C_2
REMARK    2  A    between atoms: N_5  and  C_6
REMARK    3  A    between atoms: C_6  and  C_7
REMARK    4  A    between atoms: N_9  and  C_10
REMARK    5  A    between atoms: C_10  and  C_11
REMARK    6  A    between atoms: N_13  and  C_14
REMARK    7  A    between atoms: N_13  and  C_15
REMARK    8  A    between atoms: C_15  and  C_16
REMARK    9  A    between atoms: N_19  and  C_20
REMARK                            x       y       z     vdW  Elec       q    Type
REMARK                         _______ _______ _______ _____ _____    ______ ____
ROOT
ATOM      1  C   UNL     1       5.205   4.623  17.736  0.00  0.00    +0.000 C 
ATOM      2  C   UNL     1       4.999   5.818  18.708  0.00  0.00    +0.000 C 
ATOM      3  N   UNL     1       3.663   5.838  19.350  0.00  0.00    +0.000 NA
ATOM      4  C   UNL     1       3.440   4.513  19.974  0.00  0.00    +0.000 C 
ATOM      5  C   UNL     1       3.675   3.332  19.019  0.00  0.00    +0.000 C 
ATOM      6  O   UNL     1       4.986   3.377  18.434  0.00  0.00    +0.000 OA
ENDROOT
BRANCH   1   7
ATOM      7  C   UNL     1       6.613   4.608  17.143  0.00  0.00    +0.000 C 
BRANCH   7  12
ATOM      8  C   UNL     1       5.755   3.312  12.392  0.00  0.00    +0.000 C 
ATOM      9  C   UNL     1       6.258   3.982  13.611  0.00  0.00    +0.000 A 
ATOM     10  C   UNL     1       7.311   4.916  13.732  0.00  0.00    +0.000 A 
ATOM     11  N   UNL     1       7.531   5.280  15.003  0.00  0.00    +0.000 NA
ATOM     12  N   UNL     1       6.608   4.585  15.695  0.00  0.00    +0.000 N 
ATOM     13  C   UNL     1       5.810   3.812  14.904  0.00  0.00    +0.000 A 
ENDBRANCH   7  12
ENDBRANCH   1   7
BRANCH   3  14
ATOM     14  C   UNL     1       2.633   6.167  18.335  0.00  0.00    +0.000 C 
BRANCH  14  15
ATOM     15  C   UNL     1       2.533   7.666  18.016  0.00  0.00    +0.000 C 
ATOM     16  O   UNL     1       2.918   8.128  16.939  0.00  0.00    +0.000 OA
ATOM     17  N   UNL     1       1.966   8.483  18.996  0.00  0.00    +0.000 N 
ATOM     18  C   UNL     1       1.457   8.036  20.289  0.00  0.00    +0.000 C 
BRANCH  17  19
ATOM     19  C   UNL     1       1.924   9.915  18.737  0.00  0.00    +0.000 C 
BRANCH  19  20
ATOM     20  C   UNL     1       0.809  10.567  19.474  0.00  0.00    +0.000 A 
ATOM     21  C   UNL     1      -0.563  10.593  19.122  0.00  0.00    +0.000 A 
ATOM     22  N   UNL     1      -1.324  11.166  20.058  0.00  0.00    +0.000 NA
ATOM     23  N   UNL     1      -0.447  11.496  21.020  0.00  0.00    +0.000 N 
ATOM     24  C   UNL     1      -0.910  12.005  22.289  0.00  0.00    +0.000 C 
ATOM     25  C   UNL     1       0.847  11.211  20.694  0.00  0.00    +0.000 A 
ENDBRANCH  19  20
ENDBRANCH  17  19
ENDBRANCH  14  15
ENDBRANCH   3  14
TORSDOF 6
ENDMDL
MODEL 5
REMARK VINA RESULT:      -6.4      1.610      8.245
REMARK  Name = 
REMARK  9 active torsions:
REMARK  status: ('A' for Active; 'I' for Inactive)
REMARK    1  A    between atoms: C_1  and  C_2
REMARK    2  A    between atoms: N_5  and  C_6
REMARK    3  A    between atoms: C_6  and  C_7
REMARK    4  A    between atoms: N_9  and  C_10
REMARK    5  A    between atoms: C_10  and  C_11
REMARK    6  A    between atoms: N_13  and  C_14
REMARK    7  A    between atoms: N_13  and  C_15
REMARK    8  A    between atoms: C_15  and  C_16
REMARK    9  A    between atoms: N_19  and  C_20
REMARK                            x       y       z     vdW  Elec       q    Type
REMARK                         _______ _______ _______ _____ _____    ______ ____
ROOT
ATOM      1  C   UNL     1       2.330   7.892  18.729  0.00  0.00    +0.000 C 
ATOM      2  C   UNL     1       2.428   6.447  18.166  0.00  0.00    +0.000 C 
ATOM      3  N   UNL     1       2.831   5.442  19.178  0.00  0.00    +0.000 NA
ATOM      4  C   UNL     1       1.917   5.572  20.336  0.00  0.00    +0.000 C 
ATOM      5  C   UNL     1       1.796   7.008  20.872  0.00  0.00    +0.000 C 
ATOM      6  O   UNL     1       1.405   7.927  19.839  0.00  0.00    +0.000 OA
ENDROOT
BRANCH   1   7
ATOM      7  C   UNL     1       1.854   8.885  17.669  0.00  0.00    +0.000 C 
BRANCH   7  12
ATOM      8  C   UNL     1      -2.095  11.766  18.715  0.00  0.00    +0.000 C 
ATOM      9  C   UNL     1      -0.728  11.205  18.638  0.00  0.00    +0.000 A 
ATOM     10  C   UNL     1       0.491  11.802  19.028  0.00  0.00    +0.000 A 
ATOM     11  N   UNL     1       1.551  11.025  18.766  0.00  0.00    +0.000 NA
ATOM     12  N   UNL     1       1.005   9.922  18.218  0.00  0.00    +0.000 N 
ATOM     13  C   UNL     1      -0.355   9.975  18.140  0.00  0.00    +0.000 A 
ENDBRANCH   7  12
ENDBRANCH   1   7
BRANCH   3  14
ATOM     14  C   UNL     1       4.251   5.658  19.550  0.00  0.00    +0.000 C 
BRANCH  14  15
ATOM     15  C   UNL     1       5.233   4.741  18.806  0.00  0.00    +0.000 C 
ATOM     16  O   UNL     1       5.294   3.531  19.036  0.00  0.00    +0.000 OA
ATOM     17  N   UNL     1       6.042   5.338  17.836  0.00  0.00    +0.000 N 
ATOM     18  C   UNL     1       6.031   6.750  17.468  0.00  0.00    +0.000 C 
BRANCH  17  19
ATOM     19  C   UNL     1       7.023   4.495  17.168  0.00  0.00    +0.000 C 
BRANCH  19  20
ATOM     20  C   UNL     1       6.849   4.528  15.691  0.00  0.00    +0.000 A 
ATOM     21  C   UNL     1       7.562   5.315  14.753  0.00  0.00    +0.000 A 
ATOM     22  N   UNL     1       7.242   5.024  13.489  0.00  0.00    +0.000 NA
ATOM     23  N   UNL     1       6.337   4.040  13.610  0.00  0.00    +0.000 N 
ATOM     24  C   UNL     1       5.859   3.337  12.443  0.00  0.00    +0.000 C 
ATOM     25  C   UNL     1       6.026   3.747  14.906  0.00  0.00    +0.000 A 
ENDBRANCH  19  20
ENDBRANCH  17  19
ENDBRANCH  14  15
ENDBRANCH   3  14
TORSDOF 6
ENDMDL
MODEL 6
REMARK VINA RESULT:      -6.4      1.392      1.757
REMARK  Name = 
REMARK  9 active torsions:
REMARK  status: ('A' for Active; 'I' for Inactive)
REMARK    1  A    between atoms: C_1  and  C_2
REMARK    2  A    between atoms: N_5  and  C_6
REMARK    3  A    between atoms: C_6  and  C_7
REMARK    4  A    between atoms: N_9  and  C_10
REMARK    5  A    between atoms: C_10  and  C_11
REMARK    6  A    between atoms: N_13  and  C_14
REMARK    7  A    between atoms: N_13  and  C_15
REMARK    8  A    between atoms: C_15  and  C_16
REMARK    9  A    between atoms: N_19  and  C_20
REMARK                            x       y       z     vdW  Elec       q    Type
REMARK                         _______ _______ _______ _____ _____    ______ ____
ROOT
ATOM      1  C   UNL     1       4.352   4.779  18.038  0.00  0.00    +0.000 C 
ATOM      2  C   UNL     1       4.256   5.336  19.485  0.00  0.00    +0.000 C 
ATOM      3  N   UNL     1       2.896   5.794  19.857  0.00  0.00    +0.000 NA
ATOM      4  C   UNL     1       1.953   4.686  19.579  0.00  0.00    +0.000 C 
ATOM      5  C   UNL     1       2.071   4.115  18.156  0.00  0.00    +0.000 C 
ATOM      6  O   UNL     1       3.413   3.694  17.865  0.00  0.00    +0.000 OA
ENDROOT
BRANCH   1   7
ATOM      7  C   UNL     1       5.754   4.264  17.718  0.00  0.00    +0.000 C 
BRANCH   7  12
ATOM      8  C   UNL     1       7.845   5.305  13.298  0.00  0.00    +0.000 C 
ATOM      9  C   UNL     1       6.951   4.792  14.360  0.00  0.00    +0.000 A 
ATOM     10  C   UNL     1       5.682   4.186  14.224  0.00  0.00    +0.000 A 
ATOM     11  N   UNL     1       5.126   3.889  15.408  0.00  0.00    +0.000 NA
ATOM     12  N   UNL     1       6.049   4.295  16.301  0.00  0.00    +0.000 N 
ATOM     13  C   UNL     1       7.165   4.822  15.721  0.00  0.00    +0.000 A 
ENDBRANCH   7  12
ENDBRANCH   1   7
BRANCH   3  14
ATOM     14  C   UNL     1       2.565   7.025  19.097  0.00  0.00    +0.000 C 
BRANCH  14  15
ATOM     15  C   UNL     1       1.720   8.033  19.890  0.00  0.00    +0.000 C 
ATOM     16  O   UNL     1       1.321   7.792  21.031  0.00  0.00    +0.000 OA
ATOM     17  N   UNL     1       1.441   9.250  19.264  0.00  0.00    +0.000 N 
ATOM     18  C   UNL     1       1.884   9.646  17.931  0.00  0.00    +0.000 C 
BRANCH  17  19
ATOM     19  C   UNL     1       0.587  10.191  19.975  0.00  0.00    +0.000 C 
BRANCH  19  20
ATOM     20  C   UNL     1      -0.436  10.783  19.072  0.00  0.00    +0.000 A 
ATOM     21  C   UNL     1      -0.686  12.157  18.831  0.00  0.00    +0.000 A 
ATOM     22  N   UNL     1      -1.599  12.354  17.876  0.00  0.00    +0.000 NA
ATOM     23  N   UNL     1      -1.926  11.110  17.489  0.00  0.00    +0.000 N 
ATOM     24  C   UNL     1      -2.782  10.900  16.347  0.00  0.00    +0.000 C 
ATOM     25  C   UNL     1      -1.301  10.136  18.213  0.00  0.00    +0.000 A 
ENDBRANCH  19  20
ENDBRANCH  17  19
ENDBRANCH  14  15
ENDBRANCH   3  14
TORSDOF 6
ENDMDL
MODEL 7
REMARK VINA RESULT:      -6.4      2.161      2.947
REMARK  Name = 
REMARK  9 active torsions:
REMARK  status: ('A' for Active; 'I' for Inactive)
REMARK    1  A    between atoms: C_1  and  C_2
REMARK    2  A    between atoms: N_5  and  C_6
REMARK    3  A    between atoms: C_6  and  C_7
REMARK    4  A    between atoms: N_9  and  C_10
REMARK    5  A    between atoms: C_10  and  C_11
REMARK    6  A    between atoms: N_13  and  C_14
REMARK    7  A    between atoms: N_13  and  C_15
REMARK    8  A    between atoms: C_15  and  C_16
REMARK    9  A    between atoms: N_19  and  C_20
REMARK                            x       y       z     vdW  Elec       q    Type
REMARK                         _______ _______ _______ _____ _____    ______ ____
ROOT
ATOM      1  C   UNL     1       3.944   4.851  17.951  0.00  0.00    +0.000 C 
ATOM      2  C   UNL     1       3.832   5.399  19.400  0.00  0.00    +0.000 C 
ATOM      3  N   UNL     1       2.448   5.750  19.797  0.00  0.00    +0.000 NA
ATOM      4  C   UNL     1       1.587   4.574  19.533  0.00  0.00    +0.000 C 
ATOM      5  C   UNL     1       1.723   4.015  18.108  0.00  0.00    +0.000 C 
ATOM      6  O   UNL     1       3.088   3.697  17.792  0.00  0.00    +0.000 OA
ENDROOT
BRANCH   1   7
ATOM      7  C   UNL     1       5.376   4.445  17.605  0.00  0.00    +0.000 C 
BRANCH   7  12
ATOM      8  C   UNL     1       8.240   8.541  17.746  0.00  0.00    +0.000 C 
ATOM      9  C   UNL     1       7.631   7.224  18.036  0.00  0.00    +0.000 A 
ATOM     10  C   UNL     1       8.093   6.215  18.911  0.00  0.00    +0.000 A 
ATOM     11  N   UNL     1       7.317   5.122  18.889  0.00  0.00    +0.000 NA
ATOM     12  N   UNL     1       6.349   5.439  18.007  0.00  0.00    +0.000 N 
ATOM     13  C   UNL     1       6.484   6.693  17.487  0.00  0.00    +0.000 A 
ENDBRANCH   7  12
ENDBRANCH   1   7
BRANCH   3  14
ATOM     14  C   UNL     1       2.010   6.953  19.046  0.00  0.00    +0.000 C 
BRANCH  14  15
ATOM     15  C   UNL     1       1.527   8.102  19.943  0.00  0.00    +0.000 C 
ATOM     16  O   UNL     1       1.230   7.921  21.126  0.00  0.00    +0.000 OA
ATOM     17  N   UNL     1       1.460   9.370  19.362  0.00  0.00    +0.000 N 
ATOM     18  C   UNL     1       1.812   9.697  17.983  0.00  0.00    +0.000 C 
BRANCH  17  19
ATOM     19  C   UNL     1       0.942  10.457  20.180  0.00  0.00    +0.000 C 
BRANCH  19  20
ATOM     20  C   UNL     1      -0.396  10.901  19.706  0.00  0.00    +0.000 A 
ATOM     21  C   UNL     1      -1.194  10.316  18.693  0.00  0.00    +0.000 A 
ATOM     22  N   UNL     1      -2.396  10.888  18.588  0.00  0.00    +0.000 NA
ATOM     23  N   UNL     1      -2.381  11.832  19.543  0.00  0.00    +0.000 N 
ATOM     24  C   UNL     1      -3.578  12.575  19.857  0.00  0.00    +0.000 C 
ATOM     25  C   UNL     1      -1.188  11.918  20.201  0.00  0.00    +0.000 A 
ENDBRANCH  19  20
ENDBRANCH  17  19
ENDBRANCH  14  15
ENDBRANCH   3  14
TORSDOF 6
ENDMDL
MODEL 8
REMARK VINA RESULT:      -6.2      3.010      8.692
REMARK  Name = 
REMARK  9 active torsions:
REMARK  status: ('A' for Active; 'I' for Inactive)
REMARK    1  A    between atoms: C_1  and  C_2
REMARK    2  A    between atoms: N_5  and  C_6
REMARK    3  A    between atoms: C_6  and  C_7
REMARK    4  A    between atoms: N_9  and  C_10
REMARK    5  A    between atoms: C_10  and  C_11
REMARK    6  A    between atoms: N_13  and  C_14
REMARK    7  A    between atoms: N_13  and  C_15
REMARK    8  A    between atoms: C_15  and  C_16
REMARK    9  A    between atoms: N_19  and  C_20
REMARK                            x       y       z     vdW  Elec       q    Type
REMARK                         _______ _______ _______ _____ _____    ______ ____
ROOT
ATOM      1  C   UNL     1       0.380  11.259  21.648  0.00  0.00    +0.000 C 
ATOM      2  C   UNL     1      -0.089  10.300  20.519  0.00  0.00    +0.000 C 
ATOM      3  N   UNL     1       0.117   8.866  20.834  0.00  0.00    +0.000 NA
ATOM      4  C   UNL     1      -0.510   8.595  22.149  0.00  0.00    +0.000 C 
ATOM      5  C   UNL     1      -0.068   9.565  23.257  0.00  0.00    +0.000 C 
ATOM      6  O   UNL     1      -0.295  10.934  22.884  0.00  0.00    +0.000 OA
ENDROOT
BRANCH   1   7
ATOM      7  C   UNL     1       0.095  12.721  21.308  0.00  0.00    +0.000 C 
BRANCH   7  12
ATOM      8  C   UNL     1       3.893  14.400  18.525  0.00  0.00    +0.000 C 
ATOM      9  C   UNL     1       2.966  14.130  19.646  0.00  0.00    +0.000 A 
ATOM     10  C   UNL     1       3.137  14.419  21.018  0.00  0.00    +0.000 A 
ATOM     11  N   UNL     1       2.111  13.986  21.765  0.00  0.00    +0.000 NA
ATOM     12  N   UNL     1       1.277  13.431  20.865  0.00  0.00    +0.000 N 
ATOM     13  C   UNL     1       1.736  13.512  19.583  0.00  0.00    +0.000 A 
ENDBRANCH   7  12
ENDBRANCH   1   7
BRANCH   3  14
ATOM     14  C   UNL     1       1.569   8.563  20.825  0.00  0.00    +0.000 C 
BRANCH  14  15
ATOM     15  C   UNL     1       2.036   7.802  19.575  0.00  0.00    +0.000 C 
ATOM     16  O   UNL     1       2.336   8.388  18.532  0.00  0.00    +0.000 OA
ATOM     17  N   UNL     1       2.126   6.413  19.681  0.00  0.00    +0.000 N 
ATOM     18  C   UNL     1       1.822   5.625  20.872  0.00  0.00    +0.000 C 
BRANCH  17  19
ATOM     19  C   UNL     1       2.504   5.671  18.486  0.00  0.00    +0.000 C 
BRANCH  19  20
ATOM     20  C   UNL     1       3.918   5.214  18.556  0.00  0.00    +0.000 A 
ATOM     21  C   UNL     1       4.427   4.077  19.229  0.00  0.00    +0.000 A 
ATOM     22  N   UNL     1       5.729   3.883  19.001  0.00  0.00    +0.000 NA
ATOM     23  N   UNL     1       6.056   4.884  18.169  0.00  0.00    +0.000 N 
ATOM     24  C   UNL     1       7.363   4.931  17.557  0.00  0.00    +0.000 C 
ATOM     25  C   UNL     1       5.023   5.740  17.918  0.00  0.00    +0.000 A 
ENDBRANCH  19  20
ENDBRANCH  17  19
ENDBRANCH  14  15
ENDBRANCH   3  14
TORSDOF 6
ENDMDL
MODEL 9
REMARK VINA RESULT:      -6.2      3.388      5.614
REMARK  Name = 
REMARK  9 active torsions:
REMARK  status: ('A' for Active; 'I' for Inactive)
REMARK    1  A    between atoms: C_1  and  C_2
REMARK    2  A    between atoms: N_5  and  C_6
REMARK    3  A    between atoms: C_6  and  C_7
REMARK    4  A    between atoms: N_9  and  C_10
REMARK    5  A    between atoms: C_10  and  C_11
REMARK    6  A    between atoms: N_13  and  C_14
REMARK    7  A    between atoms: N_13  and  C_15
REMARK    8  A    between atoms: C_15  and  C_16
REMARK    9  A    between atoms: N_19  and  C_20
REMARK                            x       y       z     vdW  Elec       q    Type
REMARK                         _______ _______ _______ _____ _____    ______ ____
ROOT
ATOM      1  C   UNL     1       1.817   8.283  18.588  0.00  0.00    +0.000 C 
ATOM      2  C   UNL     1       1.832   9.741  18.051  0.00  0.00    +0.000 C 
ATOM      3  N   UNL     1       0.737  10.583  18.588  0.00  0.00    +0.000 NA
ATOM      4  C   UNL     1       0.774  10.488  20.066  0.00  0.00    +0.000 C 
ATOM      5  C   UNL     1       0.790   9.044  20.593  0.00  0.00    +0.000 C 
ATOM      6  O   UNL     1       1.874   8.287  20.031  0.00  0.00    +0.000 OA
ENDROOT
BRANCH   1   7
ATOM      7  C   UNL     1       2.995   7.469  18.056  0.00  0.00    +0.000 C 
BRANCH   7  12
ATOM      8  C   UNL     1       1.353   2.780  18.614  0.00  0.00    +0.000 C 
ATOM      9  C   UNL     1       2.158   4.019  18.683  0.00  0.00    +0.000 A 
ATOM     10  C   UNL     1       3.276   4.298  19.501  0.00  0.00    +0.000 A 
ATOM     11  N   UNL     1       3.730   5.549  19.340  0.00  0.00    +0.000 NA
ATOM     12  N   UNL     1       2.907   6.066  18.408  0.00  0.00    +0.000 N 
ATOM     13  C   UNL     1       1.965   5.183  17.970  0.00  0.00    +0.000 A 
ENDBRANCH   7  12
ENDBRANCH   1   7
BRANCH   3  14
ATOM     14  C   UNL     1      -0.557  10.128  18.023  0.00  0.00    +0.000 C 
BRANCH  14  15
ATOM     15  C   UNL     1      -1.616  11.237  17.928  0.00  0.00    +0.000 C 
ATOM     16  O   UNL     1      -1.311  12.431  17.970  0.00  0.00    +0.000 OA
ATOM     17  N   UNL     1      -2.942  10.830  17.770  0.00  0.00    +0.000 N 
ATOM     18  C   UNL     1      -3.407   9.449  17.684  0.00  0.00    +0.000 C 
BRANCH  17  19
ATOM     19  C   UNL     1      -3.965  11.866  17.745  0.00  0.00    +0.000 C 
BRANCH  19  20
ATOM     20  C   UNL     1      -4.651  11.983  19.059  0.00  0.00    +0.000 A 
ATOM     21  C   UNL     1      -4.152  12.571  20.247  0.00  0.00    +0.000 A 
ATOM     22  N   UNL     1      -5.064  12.616  21.222  0.00  0.00    +0.000 NA
ATOM     23  N   UNL     1      -6.156  12.073  20.659  0.00  0.00    +0.000 N 
ATOM     24  C   UNL     1      -7.421  12.085  21.354  0.00  0.00    +0.000 C 
ATOM     25  C   UNL     1      -5.944  11.626  19.387  0.00  0.00    +0.000 A 
ENDBRANCH  19  20
ENDBRANCH  17  19
ENDBRANCH  14  15
ENDBRANCH   3  14
TORSDOF 6
ENDMDL
