MODEL 1
REMARK VINA RESULT:      -7.3      0.000      0.000
REMARK  Name = 
REMARK  2 active torsions:
REMARK  status: ('A' for Active; 'I' for Inactive)
REMARK    1  A    between atoms: C_1  and  C_2
REMARK    2  A    between atoms: C_5  and  N_6
REMARK                            x       y       z     vdW  Elec       q    Type
REMARK                         _______ _______ _______ _____ _____    ______ ____
ROOT
ATOM      1  N   UNL     1       4.195   3.987  18.300  0.00  0.00    +0.000 N 
ATOM      2  N   UNL     1       4.074   2.946  17.423  0.00  0.00    +0.000 NA
ATOM      3  N   UNL     1       3.103   2.144  17.841  0.00  0.00    +0.000 NA
ATOM      4  C   UNL     1       2.575   2.682  18.976  0.00  0.00    +0.000 A 
ATOM      5  C   UNL     1       1.525   2.264  19.804  0.00  0.00    +0.000 A 
ATOM      6  C   UNL     1       1.210   3.074  20.897  0.00  0.00    +0.000 A 
ATOM      7  C   UNL     1       1.945   4.231  21.117  0.00  0.00    +0.000 A 
ATOM      8  N   UNL     1       2.972   4.667  20.353  0.00  0.00    +0.000 NA
ATOM      9  C   UNL     1       3.242   3.855  19.303  0.00  0.00    +0.000 A 
ENDROOT
BRANCH   1  14
ATOM     10  C   UNL     1       8.040   8.189  17.604  0.00  0.00    +0.000 C 
ATOM     11  C   UNL     1       7.038   7.085  17.755  0.00  0.00    +0.000 A 
ATOM     12  C   UNL     1       5.846   7.076  17.025  0.00  0.00    +0.000 A 
ATOM     13  C   UNL     1       4.917   6.043  17.192  0.00  0.00    +0.000 A 
ATOM     14  C   UNL     1       5.168   5.006  18.104  0.00  0.00    +0.000 A 
ATOM     15  C   UNL     1       6.374   5.003  18.816  0.00  0.00    +0.000 A 
ATOM     16  C   UNL     1       7.301   6.033  18.639  0.00  0.00    +0.000 A 
ENDBRANCH   1  14
TORSDOF 1
ENDMDL
MODEL 2
REMARK VINA RESULT:      -7.2      0.073      1.209
REMARK  Name = 
REMARK  2 active torsions:
REMARK  status: ('A' for Active; 'I' for Inactive)
REMARK    1  A    between atoms: C_1  and  C_2
REMARK    2  A    between atoms: C_5  and  N_6
REMARK                            x       y       z     vdW  Elec       q    Type
REMARK                         _______ _______ _______ _____ _____    ______ ____
ROOT
ATOM      1  N   UNL     1       4.186   4.012  18.330  0.00  0.00    +0.000 N 
ATOM      2  N   UNL     1       4.109   2.978  17.438  0.00  0.00    +0.000 NA
ATOM      3  N   UNL     1       3.152   2.145  17.829  0.00  0.00    +0.000 NA
ATOM      4  C   UNL     1       2.589   2.655  18.961  0.00  0.00    +0.000 A 
ATOM      5  C   UNL     1       1.536   2.200  19.765  0.00  0.00    +0.000 A 
ATOM      6  C   UNL     1       1.180   2.988  20.861  0.00  0.00    +0.000 A 
ATOM      7  C   UNL     1       1.880   4.162  21.107  0.00  0.00    +0.000 A 
ATOM      8  N   UNL     1       2.908   4.634  20.367  0.00  0.00    +0.000 NA
ATOM      9  C   UNL     1       3.219   3.842  19.313  0.00  0.00    +0.000 A 
ENDROOT
BRANCH   1  14
ATOM     10  C   UNL     1       8.090   8.145  17.559  0.00  0.00    +0.000 C 
ATOM     11  C   UNL     1       7.068   7.073  17.791  0.00  0.00    +0.000 A 
ATOM     12  C   UNL     1       7.289   6.041  18.707  0.00  0.00    +0.000 A 
ATOM     13  C   UNL     1       6.328   5.041  18.898  0.00  0.00    +0.000 A 
ATOM     14  C   UNL     1       5.134   5.059  18.163  0.00  0.00    +0.000 A 
ATOM     15  C   UNL     1       4.903   6.107  17.264  0.00  0.00    +0.000 A 
ATOM     16  C   UNL     1       5.862   7.107  17.084  0.00  0.00    +0.000 A 
ENDBRANCH   1  14
TORSDOF 1
ENDMDL
MODEL 3
REMARK VINA RESULT:      -7.0      2.236      5.655
REMARK  Name = 
REMARK  2 active torsions:
REMARK  status: ('A' for Active; 'I' for Inactive)
REMARK    1  A    between atoms: C_1  and  C_2
REMARK    2  A    between atoms: C_5  and  N_6
REMARK                            x       y       z     vdW  Elec       q    Type
REMARK                         _______ _______ _______ _____ _____    ______ ____
ROOT
ATOM      1  N   UNL     1       5.747   4.357  18.356  0.00  0.00    +0.000 N 
ATOM      2  N   UNL     1       6.954   4.751  18.864  0.00  0.00    +0.000 NA
ATOM      3  N   UNL     1       7.779   5.011  17.857  0.00  0.00    +0.000 NA
ATOM      4  C   UNL     1       7.096   4.812  16.694  0.00  0.00    +0.000 A 
ATOM      5  C   UNL     1       7.474   4.964  15.354  0.00  0.00    +0.000 A 
ATOM      6  C   UNL     1       6.507   4.699  14.382  0.00  0.00    +0.000 A 
ATOM      7  C   UNL     1       5.239   4.296  14.780  0.00  0.00    +0.000 A 
ATOM      8  N   UNL     1       4.834   4.126  16.058  0.00  0.00    +0.000 NA
ATOM      9  C   UNL     1       5.800   4.395  16.968  0.00  0.00    +0.000 A 
ENDROOT
BRANCH   1  14
ATOM     10  C   UNL     1       1.296   2.940  21.687  0.00  0.00    +0.000 C 
ATOM     11  C   UNL     1       2.468   3.331  20.839  0.00  0.00    +0.000 A 
ATOM     12  C   UNL     1       2.647   4.647  20.404  0.00  0.00    +0.000 A 
ATOM     13  C   UNL     1       3.741   4.988  19.600  0.00  0.00    +0.000 A 
ATOM     14  C   UNL     1       4.667   4.009  19.213  0.00  0.00    +0.000 A 
ATOM     15  C   UNL     1       4.500   2.695  19.670  0.00  0.00    +0.000 A 
ATOM     16  C   UNL     1       3.411   2.363  20.479  0.00  0.00    +0.000 A 
ENDBRANCH   1  14
TORSDOF 1
ENDMDL
MODEL 4
REMARK VINA RESULT:      -6.9      2.268      5.751
REMARK  Name = 
REMARK  2 active torsions:
REMARK  status: ('A' for Active; 'I' for Inactive)
REMARK    1  A    between atoms: C_1  and  C_2
REMARK    2  A    between atoms: C_5  and  N_6
REMARK                            x       y       z     vdW  Elec       q    Type
REMARK                         _______ _______ _______ _____ _____    ______ ____
ROOT
ATOM      1  N   UNL     1       5.708   4.346  18.158  0.00  0.00    +0.000 N 
ATOM      2  N   UNL     1       6.909   4.690  18.713  0.00  0.00    +0.000 NA
ATOM      3  N   UNL     1       7.777   4.935  17.739  0.00  0.00    +0.000 NA
ATOM      4  C   UNL     1       7.128   4.777  16.550  0.00  0.00    +0.000 A 
ATOM      5  C   UNL     1       7.558   4.935  15.226  0.00  0.00    +0.000 A 
ATOM      6  C   UNL     1       6.617   4.719  14.217  0.00  0.00    +0.000 A 
ATOM      7  C   UNL     1       5.323   4.355  14.565  0.00  0.00    +0.000 A 
ATOM      8  N   UNL     1       4.867   4.181  15.826  0.00  0.00    +0.000 NA
ATOM      9  C   UNL     1       5.810   4.402  16.773  0.00  0.00    +0.000 A 
ENDROOT
BRANCH   1  14
ATOM     10  C   UNL     1       1.281   3.016  21.557  0.00  0.00    +0.000 C 
ATOM     11  C   UNL     1       2.423   3.349  20.644  0.00  0.00    +0.000 A 
ATOM     12  C   UNL     1       3.151   2.350  19.993  0.00  0.00    +0.000 A 
ATOM     13  C   UNL     1       4.224   2.682  19.157  0.00  0.00    +0.000 A 
ATOM     14  C   UNL     1       4.587   4.024  18.971  0.00  0.00    +0.000 A 
ATOM     15  C   UNL     1       3.840   5.025  19.605  0.00  0.00    +0.000 A 
ATOM     16  C   UNL     1       2.765   4.688  20.431  0.00  0.00    +0.000 A 
ENDBRANCH   1  14
TORSDOF 1
ENDMDL
MODEL 5
REMARK VINA RESULT:      -6.9      2.038      5.731
REMARK  Name = 
REMARK  2 active torsions:
REMARK  status: ('A' for Active; 'I' for Inactive)
REMARK    1  A    between atoms: C_1  and  C_2
REMARK    2  A    between atoms: C_5  and  N_6
REMARK                            x       y       z     vdW  Elec       q    Type
REMARK                         _______ _______ _______ _____ _____    ______ ____
ROOT
ATOM      1  N   UNL     1       4.742   5.516  17.321  0.00  0.00    +0.000 N 
ATOM      2  N   UNL     1       4.736   6.238  16.161  0.00  0.00    +0.000 NA
ATOM      3  N   UNL     1       5.834   6.983  16.114  0.00  0.00    +0.000 NA
ATOM      4  C   UNL     1       6.567   6.720  17.233  0.00  0.00    +0.000 A 
ATOM      5  C   UNL     1       7.806   7.204  17.670  0.00  0.00    +0.000 A 
ATOM      6  C   UNL     1       8.302   6.702  18.875  0.00  0.00    +0.000 A 
ATOM      7  C   UNL     1       7.552   5.768  19.578  0.00  0.00    +0.000 A 
ATOM      8  N   UNL     1       6.349   5.281  19.201  0.00  0.00    +0.000 NA
ATOM      9  C   UNL     1       5.906   5.792  18.028  0.00  0.00    +0.000 A 
ENDROOT
BRANCH   1  14
ATOM     10  C   UNL     1       0.515   1.908  18.748  0.00  0.00    +0.000 C 
ATOM     11  C   UNL     1       1.618   2.839  18.346  0.00  0.00    +0.000 A 
ATOM     12  C   UNL     1       2.821   2.361  17.820  0.00  0.00    +0.000 A 
ATOM     13  C   UNL     1       3.845   3.247  17.464  0.00  0.00    +0.000 A 
ATOM     14  C   UNL     1       3.677   4.628  17.641  0.00  0.00    +0.000 A 
ATOM     15  C   UNL     1       2.462   5.108  18.145  0.00  0.00    +0.000 A 
ATOM     16  C   UNL     1       1.441   4.219  18.490  0.00  0.00    +0.000 A 
ENDBRANCH   1  14
TORSDOF 1
ENDMDL
MODEL 6
REMARK VINA RESULT:      -6.9      1.160      1.177
REMARK  Name = 
REMARK  2 active torsions:
REMARK  status: ('A' for Active; 'I' for Inactive)
REMARK    1  A    between atoms: C_1  and  C_2
REMARK    2  A    between atoms: C_5  and  N_6
REMARK                            x       y       z     vdW  Elec       q    Type
REMARK                         _______ _______ _______ _____ _____    ______ ____
ROOT
ATOM      1  N   UNL     1       4.855   4.153  19.360  0.00  0.00    +0.000 N 
ATOM      2  N   UNL     1       5.277   2.855  19.437  0.00  0.00    +0.000 NA
ATOM      3  N   UNL     1       4.302   2.117  19.954  0.00  0.00    +0.000 NA
ATOM      4  C   UNL     1       3.236   2.935  20.186  0.00  0.00    +0.000 A 
ATOM      5  C   UNL     1       1.956   2.677  20.694  0.00  0.00    +0.000 A 
ATOM      6  C   UNL     1       1.072   3.754  20.781  0.00  0.00    +0.000 A 
ATOM      7  C   UNL     1       1.497   5.013  20.378  0.00  0.00    +0.000 A 
ATOM      8  N   UNL     1       2.724   5.311  19.893  0.00  0.00    +0.000 NA
ATOM      9  C   UNL     1       3.548   4.239  19.822  0.00  0.00    +0.000 A 
ENDROOT
BRANCH   1  14
ATOM     10  C   UNL     1       8.198   8.370  17.368  0.00  0.00    +0.000 C 
ATOM     11  C   UNL     1       7.324   7.255  17.859  0.00  0.00    +0.000 A 
ATOM     12  C   UNL     1       6.070   7.009  17.297  0.00  0.00    +0.000 A 
ATOM     13  C   UNL     1       5.263   5.972  17.780  0.00  0.00    +0.000 A 
ATOM     14  C   UNL     1       5.703   5.172  18.845  0.00  0.00    +0.000 A 
ATOM     15  C   UNL     1       6.971   5.404  19.392  0.00  0.00    +0.000 A 
ATOM     16  C   UNL     1       7.775   6.435  18.899  0.00  0.00    +0.000 A 
ENDBRANCH   1  14
TORSDOF 1
ENDMDL
MODEL 7
REMARK VINA RESULT:      -6.8      1.950      5.699
REMARK  Name = 
REMARK  2 active torsions:
REMARK  status: ('A' for Active; 'I' for Inactive)
REMARK    1  A    between atoms: C_1  and  C_2
REMARK    2  A    between atoms: C_5  and  N_6
REMARK                            x       y       z     vdW  Elec       q    Type
REMARK                         _______ _______ _______ _____ _____    ______ ____
ROOT
ATOM      1  N   UNL     1       4.703   5.559  17.447  0.00  0.00    +0.000 N 
ATOM      2  N   UNL     1       4.637   6.292  16.295  0.00  0.00    +0.000 NA
ATOM      3  N   UNL     1       5.725   7.046  16.204  0.00  0.00    +0.000 NA
ATOM      4  C   UNL     1       6.512   6.780  17.284  0.00  0.00    +0.000 A 
ATOM      5  C   UNL     1       7.767   7.271  17.667  0.00  0.00    +0.000 A 
ATOM      6  C   UNL     1       8.322   6.761  18.843  0.00  0.00    +0.000 A 
ATOM      7  C   UNL     1       7.614   5.815  19.572  0.00  0.00    +0.000 A 
ATOM      8  N   UNL     1       6.398   5.322  19.247  0.00  0.00    +0.000 NA
ATOM      9  C   UNL     1       5.897   5.839  18.101  0.00  0.00    +0.000 A 
ENDROOT
BRANCH   1  14
ATOM     10  C   UNL     1       0.414   1.994  18.793  0.00  0.00    +0.000 C 
ATOM     11  C   UNL     1       1.541   2.929  18.473  0.00  0.00    +0.000 A 
ATOM     12  C   UNL     1       1.566   4.237  18.963  0.00  0.00    +0.000 A 
ATOM     13  C   UNL     1       2.620   5.099  18.640  0.00  0.00    +0.000 A 
ATOM     14  C   UNL     1       3.662   4.661  17.808  0.00  0.00    +0.000 A 
ATOM     15  C   UNL     1       3.648   3.342  17.338  0.00  0.00    +0.000 A 
ATOM     16  C   UNL     1       2.597   2.484  17.671  0.00  0.00    +0.000 A 
ENDBRANCH   1  14
TORSDOF 1
ENDMDL
MODEL 8
REMARK VINA RESULT:      -6.8      1.058      1.598
REMARK  Name = 
REMARK  2 active torsions:
REMARK  status: ('A' for Active; 'I' for Inactive)
REMARK    1  A    between atoms: C_1  and  C_2
REMARK    2  A    between atoms: C_5  and  N_6
REMARK                            x       y       z     vdW  Elec       q    Type
REMARK                         _______ _______ _______ _____ _____    ______ ____
ROOT
ATOM      1  N   UNL     1       4.749   4.123  19.279  0.00  0.00    +0.000 N 
ATOM      2  N   UNL     1       5.176   2.825  19.246  0.00  0.00    +0.000 NA
ATOM      3  N   UNL     1       4.217   2.047  19.733  0.00  0.00    +0.000 NA
ATOM      4  C   UNL     1       3.157   2.839  20.057  0.00  0.00    +0.000 A 
ATOM      5  C   UNL     1       1.893   2.538  20.579  0.00  0.00    +0.000 A 
ATOM      6  C   UNL     1       1.009   3.601  20.773  0.00  0.00    +0.000 A 
ATOM      7  C   UNL     1       1.419   4.889  20.453  0.00  0.00    +0.000 A 
ATOM      8  N   UNL     1       2.630   5.228  19.958  0.00  0.00    +0.000 NA
ATOM      9  C   UNL     1       3.455   4.168  19.784  0.00  0.00    +0.000 A 
ENDROOT
BRANCH   1  14
ATOM     10  C   UNL     1       8.172   8.297  17.333  0.00  0.00    +0.000 C 
ATOM     11  C   UNL     1       7.279   7.219  17.871  0.00  0.00    +0.000 A 
ATOM     12  C   UNL     1       7.698   6.370  18.898  0.00  0.00    +0.000 A 
ATOM     13  C   UNL     1       6.854   5.361  19.376  0.00  0.00    +0.000 A 
ATOM     14  C   UNL     1       5.579   5.183  18.819  0.00  0.00    +0.000 A 
ATOM     15  C   UNL     1       5.151   6.050  17.807  0.00  0.00    +0.000 A 
ATOM     16  C   UNL     1       5.994   7.061  17.340  0.00  0.00    +0.000 A 
ENDBRANCH   1  14
TORSDOF 1
ENDMDL
MODEL 9
REMARK VINA RESULT:      -6.7      1.939      2.884
REMARK  Name = 
REMARK  2 active torsions:
REMARK  status: ('A' for Active; 'I' for Inactive)
REMARK    1  A    between atoms: C_1  and  C_2
REMARK    2  A    between atoms: C_5  and  N_6
REMARK                            x       y       z     vdW  Elec       q    Type
REMARK                         _______ _______ _______ _____ _____    ______ ____
ROOT
ATOM      1  N   UNL     1       3.664   4.965  18.249  0.00  0.00    +0.000 N 
ATOM      2  N   UNL     1       3.826   5.922  19.211  0.00  0.00    +0.000 NA
ATOM      3  N   UNL     1       2.920   5.731  20.163  0.00  0.00    +0.000 NA
ATOM      4  C   UNL     1       2.188   4.630  19.830  0.00  0.00    +0.000 A 
ATOM      5  C   UNL     1       1.135   3.978  20.484  0.00  0.00    +0.000 A 
ATOM      6  C   UNL     1       0.612   2.836  19.876  0.00  0.00    +0.000 A 
ATOM      7  C   UNL     1       1.143   2.410  18.665  0.00  0.00    +0.000 A 
ATOM      8  N   UNL     1       2.150   3.012  17.993  0.00  0.00    +0.000 NA
ATOM      9  C   UNL     1       2.630   4.113  18.619  0.00  0.00    +0.000 A 
ENDROOT
BRANCH   1  14
ATOM     10  C   UNL     1       7.157   4.863  13.698  0.00  0.00    +0.000 C 
ATOM     11  C   UNL     1       6.221   4.902  14.869  0.00  0.00    +0.000 A 
ATOM     12  C   UNL     1       5.640   6.097  15.299  0.00  0.00    +0.000 A 
ATOM     13  C   UNL     1       4.781   6.114  16.404  0.00  0.00    +0.000 A 
ATOM     14  C   UNL     1       4.500   4.928  17.099  0.00  0.00    +0.000 A 
ATOM     15  C   UNL     1       5.063   3.727  16.652  0.00  0.00    +0.000 A 
ATOM     16  C   UNL     1       5.913   3.716  15.543  0.00  0.00    +0.000 A 
ENDBRANCH   1  14
TORSDOF 1
ENDMDL
