MODEL 1
REMARK VINA RESULT:      -7.6      0.000      0.000
REMARK  Name = 
REMARK  5 active torsions:
REMARK  status: ('A' for Active; 'I' for Inactive)
REMARK    1  A    between atoms: O_1  and  C_2
REMARK    2  A    between atoms: C_11  and  O_12
REMARK    3  A    between atoms: O_12  and  C_13
REMARK    4  A    between atoms: C_13  and  C_14
REMARK    5  A    between atoms: C_20  and  C_21
REMARK                            x       y       z     vdW  Elec       q    Type
REMARK                         _______ _______ _______ _____ _____    ______ ____
ROOT
ATOM      1  C   UNL     1       2.770   8.119  17.991  0.00  0.00    +0.000 A 
ATOM      2  N   UNL     1       1.947   9.133  18.308  0.00  0.00    +0.000 NA
ATOM      3  C   UNL     1       1.276   9.039  19.453  0.00  0.00    +0.000 A 
ATOM      4  C   UNL     1       0.461  10.105  19.800  0.00  0.00    +0.000 A 
ATOM      5  C   UNL     1      -0.251  10.107  20.993  0.00  0.00    +0.000 A 
ATOM      6 CL   UNL     1      -1.234  11.460  21.398  0.00  0.00    +0.000 Cl
ATOM      7  C   UNL     1      -0.164   9.027  21.858  0.00  0.00    +0.000 A 
ATOM      8  C   UNL     1       0.641   7.940  21.511  0.00  0.00    +0.000 A 
ATOM      9  C   UNL     1       1.383   7.920  20.305  0.00  0.00    +0.000 A 
ATOM     10  C   UNL     1       2.235   6.839  19.900  0.00  0.00    +0.000 A 
ATOM     11  C   UNL     1       2.991   6.933  18.706  0.00  0.00    +0.000 A 
ENDROOT
BRANCH  11  12
ATOM     12  C   UNL     1       3.988   5.951  18.195  0.00  0.00    +0.000 A 
ATOM     13  C   UNL     1       3.746   5.218  17.013  0.00  0.00    +0.000 A 
ATOM     14  C   UNL     1       4.684   4.323  16.490  0.00  0.00    +0.000 A 
ATOM     15  C   UNL     1       5.869   4.087  17.174  0.00  0.00    +0.000 A 
ATOM     16  C   UNL     1       6.128   4.773  18.356  0.00  0.00    +0.000 A 
ATOM     17  C   UNL     1       5.218   5.724  18.836  0.00  0.00    +0.000 A 
ENDBRANCH  11  12
BRANCH   1  18
ATOM     18  O   UNL     1       3.436   8.408  16.841  0.00  0.00    +0.000 OA
ATOM     19  H   UNL     1       3.266   7.590  16.341  0.00  0.00    +0.000 HD
ENDBRANCH   1  18
BRANCH  10  20
ATOM     20  O   UNL     1       2.256   5.810  20.824  0.00  0.00    +0.000 OA
BRANCH  20  21
ATOM     21  C   UNL     1       1.409   4.681  20.663  0.00  0.00    +0.000 C 
BRANCH  21  22
ATOM     22  C   UNL     1       2.090   3.536  19.950  0.00  0.00    +0.000 A 
ATOM     23  C   UNL     1       1.523   3.036  18.767  0.00  0.00    +0.000 A 
ATOM     24  C   UNL     1       2.173   2.054  18.025  0.00  0.00    +0.000 A 
ATOM     25  C   UNL     1       3.401   1.559  18.456  0.00  0.00    +0.000 A 
ATOM     26  C   UNL     1       3.976   2.043  19.632  0.00  0.00    +0.000 A 
ATOM     27  C   UNL     1       3.325   3.030  20.379  0.00  0.00    +0.000 A 
ENDBRANCH  21  22
ENDBRANCH  20  21
ENDBRANCH  10  20
TORSDOF 5
ENDMDL
MODEL 2
REMARK VINA RESULT:      -7.4      1.476      3.639
REMARK  Name = 
REMARK  5 active torsions:
REMARK  status: ('A' for Active; 'I' for Inactive)
REMARK    1  A    between atoms: O_1  and  C_2
REMARK    2  A    between atoms: C_11  and  O_12
REMARK    3  A    between atoms: O_12  and  C_13
REMARK    4  A    between atoms: C_13  and  C_14
REMARK    5  A    between atoms: C_20  and  C_21
REMARK                            x       y       z     vdW  Elec       q    Type
REMARK                         _______ _______ _______ _____ _____    ______ ____
ROOT
ATOM      1  C   UNL     1       1.824   6.279  20.385  0.00  0.00    +0.000 A 
ATOM      2  N   UNL     1       1.319   7.420  20.882  0.00  0.00    +0.000 NA
ATOM      3  C   UNL     1       1.386   8.504  20.112  0.00  0.00    +0.000 A 
ATOM      4  C   UNL     1       0.826   9.670  20.609  0.00  0.00    +0.000 A 
ATOM      5  C   UNL     1       0.823  10.841  19.859  0.00  0.00    +0.000 A 
ATOM      6 CL   UNL     1       0.097  12.263  20.501  0.00  0.00    +0.000 Cl
ATOM      7  C   UNL     1       1.394  10.862  18.597  0.00  0.00    +0.000 A 
ATOM      8  C   UNL     1       1.977   9.697  18.093  0.00  0.00    +0.000 A 
ATOM      9  C   UNL     1       1.984   8.490  18.834  0.00  0.00    +0.000 A 
ATOM     10  C   UNL     1       2.555   7.260  18.367  0.00  0.00    +0.000 A 
ATOM     11  C   UNL     1       2.459   6.084  19.150  0.00  0.00    +0.000 A 
ENDROOT
BRANCH  11  12
ATOM     12  C   UNL     1       2.909   4.714  18.773  0.00  0.00    +0.000 A 
ATOM     13  C   UNL     1       2.217   3.964  17.798  0.00  0.00    +0.000 A 
ATOM     14  C   UNL     1       2.645   2.695  17.397  0.00  0.00    +0.000 A 
ATOM     15  C   UNL     1       3.744   2.111  18.011  0.00  0.00    +0.000 A 
ATOM     16  C   UNL     1       4.434   2.812  18.995  0.00  0.00    +0.000 A 
ATOM     17  C   UNL     1       4.046   4.114  19.340  0.00  0.00    +0.000 A 
ENDBRANCH  11  12
BRANCH   1  18
ATOM     18  O   UNL     1       1.601   5.258  21.256  0.00  0.00    +0.000 OA
ATOM     19  H   UNL     1       1.384   4.548  20.627  0.00  0.00    +0.000 HD
ENDBRANCH   1  18
BRANCH  10  20
ATOM     20  O   UNL     1       3.100   7.379  17.102  0.00  0.00    +0.000 OA
BRANCH  20  21
ATOM     21  C   UNL     1       4.475   7.700  16.939  0.00  0.00    +0.000 C 
BRANCH  21  22
ATOM     22  C   UNL     1       5.359   6.475  16.888  0.00  0.00    +0.000 A 
ATOM     23  C   UNL     1       5.107   5.492  15.918  0.00  0.00    +0.000 A 
ATOM     24  C   UNL     1       5.960   4.403  15.770  0.00  0.00    +0.000 A 
ATOM     25  C   UNL     1       7.078   4.280  16.592  0.00  0.00    +0.000 A 
ATOM     26  C   UNL     1       7.339   5.247  17.565  0.00  0.00    +0.000 A 
ATOM     27  C   UNL     1       6.484   6.343  17.714  0.00  0.00    +0.000 A 
ENDBRANCH  21  22
ENDBRANCH  20  21
ENDBRANCH  10  20
TORSDOF 5
ENDMDL
MODEL 3
REMARK VINA RESULT:      -7.4      1.476      3.861
REMARK  Name = 
REMARK  5 active torsions:
REMARK  status: ('A' for Active; 'I' for Inactive)
REMARK    1  A    between atoms: O_1  and  C_2
REMARK    2  A    between atoms: C_11  and  O_12
REMARK    3  A    between atoms: O_12  and  C_13
REMARK    4  A    between atoms: C_13  and  C_14
REMARK    5  A    between atoms: C_20  and  C_21
REMARK                            x       y       z     vdW  Elec       q    Type
REMARK                         _______ _______ _______ _____ _____    ______ ____
ROOT
ATOM      1  C   UNL     1       1.819   6.252  20.367  0.00  0.00    +0.000 A 
ATOM      2  N   UNL     1       1.311   7.387  20.875  0.00  0.00    +0.000 NA
ATOM      3  C   UNL     1       1.384   8.480  20.119  0.00  0.00    +0.000 A 
ATOM      4  C   UNL     1       0.821   9.640  20.626  0.00  0.00    +0.000 A 
ATOM      5  C   UNL     1       0.822  10.820  19.891  0.00  0.00    +0.000 A 
ATOM      6 CL   UNL     1       0.093  12.234  20.546  0.00  0.00    +0.000 Cl
ATOM      7  C   UNL     1       1.401  10.856  18.632  0.00  0.00    +0.000 A 
ATOM      8  C   UNL     1       1.987   9.697  18.118  0.00  0.00    +0.000 A 
ATOM      9  C   UNL     1       1.988   8.481  18.844  0.00  0.00    +0.000 A 
ATOM     10  C   UNL     1       2.562   7.256  18.366  0.00  0.00    +0.000 A 
ATOM     11  C   UNL     1       2.461   6.071  19.133  0.00  0.00    +0.000 A 
ENDROOT
BRANCH  11  12
ATOM     12  C   UNL     1       2.913   4.706  18.743  0.00  0.00    +0.000 A 
ATOM     13  C   UNL     1       4.055   4.121  19.333  0.00  0.00    +0.000 A 
ATOM     14  C   UNL     1       4.473   2.827  19.015  0.00  0.00    +0.000 A 
ATOM     15  C   UNL     1       3.796   2.102  18.043  0.00  0.00    +0.000 A 
ATOM     16  C   UNL     1       2.683   2.658  17.422  0.00  0.00    +0.000 A 
ATOM     17  C   UNL     1       2.223   3.926  17.799  0.00  0.00    +0.000 A 
ENDBRANCH  11  12
BRANCH   1  18
ATOM     18  O   UNL     1       1.591   5.221  21.225  0.00  0.00    +0.000 OA
ATOM     19  H   UNL     1       1.344   4.527  20.587  0.00  0.00    +0.000 HD
ENDBRANCH   1  18
BRANCH  10  20
ATOM     20  O   UNL     1       3.115   7.391  17.105  0.00  0.00    +0.000 OA
BRANCH  20  21
ATOM     21  C   UNL     1       4.484   7.740  16.954  0.00  0.00    +0.000 C 
BRANCH  21  22
ATOM     22  C   UNL     1       5.376   6.535  16.763  0.00  0.00    +0.000 A 
ATOM     23  C   UNL     1       6.481   6.364  17.613  0.00  0.00    +0.000 A 
ATOM     24  C   UNL     1       7.265   5.217  17.538  0.00  0.00    +0.000 A 
ATOM     25  C   UNL     1       6.956   4.224  16.612  0.00  0.00    +0.000 A 
ATOM     26  C   UNL     1       5.864   4.382  15.757  0.00  0.00    +0.000 A 
ATOM     27  C   UNL     1       5.074   5.533  15.830  0.00  0.00    +0.000 A 
ENDBRANCH  21  22
ENDBRANCH  20  21
ENDBRANCH  10  20
TORSDOF 5
ENDMDL
MODEL 4
REMARK VINA RESULT:      -7.4      0.088      1.338
REMARK  Name = 
REMARK  5 active torsions:
REMARK  status: ('A' for Active; 'I' for Inactive)
REMARK    1  A    between atoms: O_1  and  C_2
REMARK    2  A    between atoms: C_11  and  O_12
REMARK    3  A    between atoms: O_12  and  C_13
REMARK    4  A    between atoms: C_13  and  C_14
REMARK    5  A    between atoms: C_20  and  C_21
REMARK                            x       y       z     vdW  Elec       q    Type
REMARK                         _______ _______ _______ _____ _____    ______ ____
ROOT
ATOM      1  C   UNL     1       2.724   8.181  17.989  0.00  0.00    +0.000 A 
ATOM      2  N   UNL     1       1.894   9.187  18.310  0.00  0.00    +0.000 NA
ATOM      3  C   UNL     1       1.237   9.091  19.462  0.00  0.00    +0.000 A 
ATOM      4  C   UNL     1       0.414  10.150  19.813  0.00  0.00    +0.000 A 
ATOM      5  C   UNL     1      -0.286  10.149  21.014  0.00  0.00    +0.000 A 
ATOM      6 CL   UNL     1      -1.280  11.493  21.424  0.00  0.00    +0.000 Cl
ATOM      7  C   UNL     1      -0.177   9.075  21.882  0.00  0.00    +0.000 A 
ATOM      8  C   UNL     1       0.635   7.994  21.532  0.00  0.00    +0.000 A 
ATOM      9  C   UNL     1       1.365   7.978  20.318  0.00  0.00    +0.000 A 
ATOM     10  C   UNL     1       2.224   6.904  19.909  0.00  0.00    +0.000 A 
ATOM     11  C   UNL     1       2.967   7.001  18.707  0.00  0.00    +0.000 A 
ENDROOT
BRANCH  11  12
ATOM     12  C   UNL     1       3.969   6.028  18.189  0.00  0.00    +0.000 A 
ATOM     13  C   UNL     1       5.168   5.777  18.890  0.00  0.00    +0.000 A 
ATOM     14  C   UNL     1       6.104   4.838  18.447  0.00  0.00    +0.000 A 
ATOM     15  C   UNL     1       5.895   4.168  17.249  0.00  0.00    +0.000 A 
ATOM     16  C   UNL     1       4.736   4.411  16.519  0.00  0.00    +0.000 A 
ATOM     17  C   UNL     1       3.766   5.297  17.006  0.00  0.00    +0.000 A 
ENDBRANCH  11  12
BRANCH   1  18
ATOM     18  O   UNL     1       3.376   8.472  16.830  0.00  0.00    +0.000 OA
ATOM     19  H   UNL     1       2.669   8.278  16.189  0.00  0.00    +0.000 HD
ENDBRANCH   1  18
BRANCH  10  20
ATOM     20  O   UNL     1       2.267   5.880  20.837  0.00  0.00    +0.000 OA
BRANCH  20  21
ATOM     21  C   UNL     1       1.467   4.719  20.664  0.00  0.00    +0.000 C 
BRANCH  21  22
ATOM     22  C   UNL     1       2.149   3.657  19.832  0.00  0.00    +0.000 A 
ATOM     23  C   UNL     1       3.342   3.085  20.303  0.00  0.00    +0.000 A 
ATOM     24  C   UNL     1       3.945   2.033  19.620  0.00  0.00    +0.000 A 
ATOM     25  C   UNL     1       3.363   1.538  18.455  0.00  0.00    +0.000 A 
ATOM     26  C   UNL     1       2.180   2.100  17.972  0.00  0.00    +0.000 A 
ATOM     27  C   UNL     1       1.572   3.156  18.657  0.00  0.00    +0.000 A 
ENDBRANCH  21  22
ENDBRANCH  20  21
ENDBRANCH  10  20
TORSDOF 5
ENDMDL
MODEL 5
REMARK VINA RESULT:      -7.0      1.702      4.238
REMARK  Name = 
REMARK  5 active torsions:
REMARK  status: ('A' for Active; 'I' for Inactive)
REMARK    1  A    between atoms: O_1  and  C_2
REMARK    2  A    between atoms: C_11  and  O_12
REMARK    3  A    between atoms: O_12  and  C_13
REMARK    4  A    between atoms: C_13  and  C_14
REMARK    5  A    between atoms: C_20  and  C_21
REMARK                            x       y       z     vdW  Elec       q    Type
REMARK                         _______ _______ _______ _____ _____    ______ ____
ROOT
ATOM      1  C   UNL     1       1.931   5.729  20.416  0.00  0.00    +0.000 A 
ATOM      2  N   UNL     1       1.462   6.937  20.771  0.00  0.00    +0.000 NA
ATOM      3  C   UNL     1       1.630   7.935  19.907  0.00  0.00    +0.000 A 
ATOM      4  C   UNL     1       1.107   9.170  20.255  0.00  0.00    +0.000 A 
ATOM      5  C   UNL     1       1.207  10.260  19.399  0.00  0.00    +0.000 A 
ATOM      6 CL   UNL     1       0.525  11.772  19.858  0.00  0.00    +0.000 Cl
ATOM      7  C   UNL     1       1.846  10.128  18.176  0.00  0.00    +0.000 A 
ATOM      8  C   UNL     1       2.392   8.893  17.821  0.00  0.00    +0.000 A 
ATOM      9  C   UNL     1       2.294   7.766  18.674  0.00  0.00    +0.000 A 
ATOM     10  C   UNL     1       2.822   6.469  18.361  0.00  0.00    +0.000 A 
ATOM     11  C   UNL     1       2.621   5.382  19.245  0.00  0.00    +0.000 A 
ENDROOT
BRANCH  11  12
ATOM     12  C   UNL     1       3.016   3.962  19.028  0.00  0.00    +0.000 A 
ATOM     13  C   UNL     1       2.362   3.164  18.065  0.00  0.00    +0.000 A 
ATOM     14  C   UNL     1       2.743   1.843  17.814  0.00  0.00    +0.000 A 
ATOM     15  C   UNL     1       3.751   1.260  18.569  0.00  0.00    +0.000 A 
ATOM     16  C   UNL     1       4.400   2.010  19.545  0.00  0.00    +0.000 A 
ATOM     17  C   UNL     1       4.065   3.356  19.741  0.00  0.00    +0.000 A 
ENDBRANCH  11  12
BRANCH   1  18
ATOM     18  O   UNL     1       1.607   4.811  21.367  0.00  0.00    +0.000 OA
ATOM     19  H   UNL     1       2.313   4.987  22.014  0.00  0.00    +0.000 HD
ENDBRANCH   1  18
BRANCH  10  20
ATOM     20  O   UNL     1       3.441   6.437  17.124  0.00  0.00    +0.000 OA
BRANCH  20  21
ATOM     21  C   UNL     1       4.588   5.625  16.915  0.00  0.00    +0.000 C 
BRANCH  21  22
ATOM     22  C   UNL     1       5.835   6.200  17.546  0.00  0.00    +0.000 A 
ATOM     23  C   UNL     1       6.493   5.466  18.545  0.00  0.00    +0.000 A 
ATOM     24  C   UNL     1       7.700   5.910  19.077  0.00  0.00    +0.000 A 
ATOM     25  C   UNL     1       8.266   7.096  18.616  0.00  0.00    +0.000 A 
ATOM     26  C   UNL     1       7.621   7.839  17.625  0.00  0.00    +0.000 A 
ATOM     27  C   UNL     1       6.409   7.395  17.089  0.00  0.00    +0.000 A 
ENDBRANCH  21  22
ENDBRANCH  20  21
ENDBRANCH  10  20
TORSDOF 5
ENDMDL
MODEL 6
REMARK VINA RESULT:      -6.9      1.697      4.286
REMARK  Name = 
REMARK  5 active torsions:
REMARK  status: ('A' for Active; 'I' for Inactive)
REMARK    1  A    between atoms: O_1  and  C_2
REMARK    2  A    between atoms: C_11  and  O_12
REMARK    3  A    between atoms: O_12  and  C_13
REMARK    4  A    between atoms: C_13  and  C_14
REMARK    5  A    between atoms: C_20  and  C_21
REMARK                            x       y       z     vdW  Elec       q    Type
REMARK                         _______ _______ _______ _____ _____    ______ ____
ROOT
ATOM      1  C   UNL     1       1.896   5.773  20.322  0.00  0.00    +0.000 A 
ATOM      2  N   UNL     1       1.424   6.982  20.671  0.00  0.00    +0.000 NA
ATOM      3  C   UNL     1       1.630   7.986  19.823  0.00  0.00    +0.000 A 
ATOM      4  C   UNL     1       1.105   9.222  20.164  0.00  0.00    +0.000 A 
ATOM      5  C   UNL     1       1.243  10.319  19.322  0.00  0.00    +0.000 A 
ATOM      6 CL   UNL     1       0.558  11.832  19.771  0.00  0.00    +0.000 Cl
ATOM      7  C   UNL     1       1.923  10.193  18.121  0.00  0.00    +0.000 A 
ATOM      8  C   UNL     1       2.471   8.956  17.773  0.00  0.00    +0.000 A 
ATOM      9  C   UNL     1       2.334   7.823  18.612  0.00  0.00    +0.000 A 
ATOM     10  C   UNL     1       2.864   6.525  18.306  0.00  0.00    +0.000 A 
ATOM     11  C   UNL     1       2.623   5.431  19.172  0.00  0.00    +0.000 A 
ENDROOT
BRANCH  11  12
ATOM     12  C   UNL     1       3.014   4.010  18.956  0.00  0.00    +0.000 A 
ATOM     13  C   UNL     1       4.026   3.408  19.735  0.00  0.00    +0.000 A 
ATOM     14  C   UNL     1       4.381   2.065  19.580  0.00  0.00    +0.000 A 
ATOM     15  C   UNL     1       3.777   1.301  18.592  0.00  0.00    +0.000 A 
ATOM     16  C   UNL     1       2.793   1.870  17.788  0.00  0.00    +0.000 A 
ATOM     17  C   UNL     1       2.388   3.195  17.998  0.00  0.00    +0.000 A 
ENDBRANCH  11  12
BRANCH   1  18
ATOM     18  O   UNL     1       1.531   4.849  21.252  0.00  0.00    +0.000 OA
ATOM     19  H   UNL     1       1.904   5.263  22.051  0.00  0.00    +0.000 HD
ENDBRANCH   1  18
BRANCH  10  20
ATOM     20  O   UNL     1       3.524   6.498  17.091  0.00  0.00    +0.000 OA
BRANCH  20  21
ATOM     21  C   UNL     1       4.588   5.583  16.871  0.00  0.00    +0.000 C 
BRANCH  21  22
ATOM     22  C   UNL     1       5.899   6.058  17.453  0.00  0.00    +0.000 A 
ATOM     23  C   UNL     1       6.426   7.289  17.030  0.00  0.00    +0.000 A 
ATOM     24  C   UNL     1       7.574   7.811  17.617  0.00  0.00    +0.000 A 
ATOM     25  C   UNL     1       8.213   7.109  18.636  0.00  0.00    +0.000 A 
ATOM     26  C   UNL     1       7.704   5.882  19.065  0.00  0.00    +0.000 A 
ATOM     27  C   UNL     1       6.550   5.356  18.477  0.00  0.00    +0.000 A 
ENDBRANCH  21  22
ENDBRANCH  20  21
ENDBRANCH  10  20
TORSDOF 5
ENDMDL
MODEL 7
REMARK VINA RESULT:      -6.9      3.113      7.291
REMARK  Name = 
REMARK  5 active torsions:
REMARK  status: ('A' for Active; 'I' for Inactive)
REMARK    1  A    between atoms: O_1  and  C_2
REMARK    2  A    between atoms: C_11  and  O_12
REMARK    3  A    between atoms: O_12  and  C_13
REMARK    4  A    between atoms: C_13  and  C_14
REMARK    5  A    between atoms: C_20  and  C_21
REMARK                            x       y       z     vdW  Elec       q    Type
REMARK                         _______ _______ _______ _____ _____    ______ ____
ROOT
ATOM      1  C   UNL     1       2.482   5.698  20.215  0.00  0.00    +0.000 A 
ATOM      2  N   UNL     1       3.221   4.846  19.484  0.00  0.00    +0.000 NA
ATOM      3  C   UNL     1       3.767   5.316  18.366  0.00  0.00    +0.000 A 
ATOM      4  C   UNL     1       4.564   4.449  17.636  0.00  0.00    +0.000 A 
ATOM      5  C   UNL     1       5.201   4.865  16.472  0.00  0.00    +0.000 A 
ATOM      6 CL   UNL     1       6.200   3.764  15.606  0.00  0.00    +0.000 Cl
ATOM      7  C   UNL     1       5.038   6.163  16.016  0.00  0.00    +0.000 A 
ATOM      8  C   UNL     1       4.225   7.042  16.735  0.00  0.00    +0.000 A 
ATOM      9  C   UNL     1       3.574   6.643  17.928  0.00  0.00    +0.000 A 
ATOM     10  C   UNL     1       2.736   7.501  18.715  0.00  0.00    +0.000 A 
ATOM     11  C   UNL     1       2.177   7.036  19.930  0.00  0.00    +0.000 A 
ENDROOT
BRANCH  11  12
ATOM     12  C   UNL     1       1.371   7.822  20.907  0.00  0.00    +0.000 A 
ATOM     13  C   UNL     1       1.992   8.692  21.828  0.00  0.00    +0.000 A 
ATOM     14  C   UNL     1       1.256   9.471  22.725  0.00  0.00    +0.000 A 
ATOM     15  C   UNL     1      -0.127   9.351  22.770  0.00  0.00    +0.000 A 
ATOM     16  C   UNL     1      -0.770   8.482  21.894  0.00  0.00    +0.000 A 
ATOM     17  C   UNL     1      -0.032   7.760  20.946  0.00  0.00    +0.000 A 
ENDBRANCH  11  12
BRANCH   1  18
ATOM     18  O   UNL     1       2.070   5.086  21.358  0.00  0.00    +0.000 OA
ATOM     19  H   UNL     1       2.879   5.172  21.893  0.00  0.00    +0.000 HD
ENDBRANCH   1  18
BRANCH  10  20
ATOM     20  O   UNL     1       2.634   8.773  18.181  0.00  0.00    +0.000 OA
BRANCH  20  21
ATOM     21  C   UNL     1       1.434   9.193  17.547  0.00  0.00    +0.000 C 
BRANCH  21  22
ATOM     22  C   UNL     1       0.670  10.212  18.360  0.00  0.00    +0.000 A 
ATOM     23  C   UNL     1      -0.734  10.185  18.342  0.00  0.00    +0.000 A 
ATOM     24  C   UNL     1      -1.473  11.037  19.156  0.00  0.00    +0.000 A 
ATOM     25  C   UNL     1      -0.819  11.931  20.001  0.00  0.00    +0.000 A 
ATOM     26  C   UNL     1       0.576  11.973  20.027  0.00  0.00    +0.000 A 
ATOM     27  C   UNL     1       1.322  11.117  19.210  0.00  0.00    +0.000 A 
ENDBRANCH  21  22
ENDBRANCH  20  21
ENDBRANCH  10  20
TORSDOF 5
ENDMDL
MODEL 8
REMARK VINA RESULT:      -6.8      4.164      8.822
REMARK  Name = 
REMARK  5 active torsions:
REMARK  status: ('A' for Active; 'I' for Inactive)
REMARK    1  A    between atoms: O_1  and  C_2
REMARK    2  A    between atoms: C_11  and  O_12
REMARK    3  A    between atoms: O_12  and  C_13
REMARK    4  A    between atoms: C_13  and  C_14
REMARK    5  A    between atoms: C_20  and  C_21
REMARK                            x       y       z     vdW  Elec       q    Type
REMARK                         _______ _______ _______ _____ _____    ______ ____
ROOT
ATOM      1  C   UNL     1       0.097   9.886  22.509  0.00  0.00    +0.000 A 
ATOM      2  N   UNL     1       0.830   8.884  21.996  0.00  0.00    +0.000 NA
ATOM      3  C   UNL     1       1.069   8.911  20.687  0.00  0.00    +0.000 A 
ATOM      4  C   UNL     1       1.862   7.900  20.166  0.00  0.00    +0.000 A 
ATOM      5  C   UNL     1       2.189   7.867  18.816  0.00  0.00    +0.000 A 
ATOM      6 CL   UNL     1       3.194   6.608  18.212  0.00  0.00    +0.000 Cl
ATOM      7  C   UNL     1       1.716   8.850  17.961  0.00  0.00    +0.000 A 
ATOM      8  C   UNL     1       0.903   9.864  18.471  0.00  0.00    +0.000 A 
ATOM      9  C   UNL     1       0.564   9.923  19.845  0.00  0.00    +0.000 A 
ATOM     10  C   UNL     1      -0.257  10.944  20.430  0.00  0.00    +0.000 A 
ATOM     11  C   UNL     1      -0.491  10.960  21.827  0.00  0.00    +0.000 A 
ENDROOT
BRANCH  11  12
ATOM     12  C   UNL     1      -1.232  11.995  22.601  0.00  0.00    +0.000 A 
ATOM     13  C   UNL     1      -0.664  13.264  22.848  0.00  0.00    +0.000 A 
ATOM     14  C   UNL     1      -1.357  14.265  23.535  0.00  0.00    +0.000 A 
ATOM     15  C   UNL     1      -2.617  14.001  24.055  0.00  0.00    +0.000 A 
ATOM     16  C   UNL     1      -3.196  12.752  23.853  0.00  0.00    +0.000 A 
ATOM     17  C   UNL     1      -2.528  11.778  23.099  0.00  0.00    +0.000 A 
ENDBRANCH  11  12
BRANCH   1  18
ATOM     18  O   UNL     1       0.017   9.753  23.861  0.00  0.00    +0.000 OA
ATOM     19  H   UNL     1      -0.015  10.692  24.118  0.00  0.00    +0.000 HD
ENDBRANCH   1  18
BRANCH  10  20
ATOM     20  O   UNL     1      -0.681  11.876  19.501  0.00  0.00    +0.000 OA
BRANCH  20  21
ATOM     21  C   UNL     1      -2.052  12.236  19.418  0.00  0.00    +0.000 C 
BRANCH  21  22
ATOM     22  C   UNL     1      -2.736  11.660  18.200  0.00  0.00    +0.000 A 
ATOM     23  C   UNL     1      -4.139  11.657  18.142  0.00  0.00    +0.000 A 
ATOM     24  C   UNL     1      -4.804  11.232  16.996  0.00  0.00    +0.000 A 
ATOM     25  C   UNL     1      -4.075  10.803  15.890  0.00  0.00    +0.000 A 
ATOM     26  C   UNL     1      -2.679  10.795  15.933  0.00  0.00    +0.000 A 
ATOM     27  C   UNL     1      -2.009  11.223  17.083  0.00  0.00    +0.000 A 
ENDBRANCH  21  22
ENDBRANCH  20  21
ENDBRANCH  10  20
TORSDOF 5
ENDMDL
MODEL 9
REMARK VINA RESULT:      -6.8      3.106      7.301
REMARK  Name = 
REMARK  5 active torsions:
REMARK  status: ('A' for Active; 'I' for Inactive)
REMARK    1  A    between atoms: O_1  and  C_2
REMARK    2  A    between atoms: C_11  and  O_12
REMARK    3  A    between atoms: O_12  and  C_13
REMARK    4  A    between atoms: C_13  and  C_14
REMARK    5  A    between atoms: C_20  and  C_21
REMARK                            x       y       z     vdW  Elec       q    Type
REMARK                         _______ _______ _______ _____ _____    ______ ____
ROOT
ATOM      1  C   UNL     1       2.451   5.731  20.223  0.00  0.00    +0.000 A 
ATOM      2  N   UNL     1       3.178   4.870  19.492  0.00  0.00    +0.000 NA
ATOM      3  C   UNL     1       3.735   5.335  18.376  0.00  0.00    +0.000 A 
ATOM      4  C   UNL     1       4.520   4.457  17.646  0.00  0.00    +0.000 A 
ATOM      5  C   UNL     1       5.166   4.867  16.484  0.00  0.00    +0.000 A 
ATOM      6 CL   UNL     1       6.150   3.754  15.618  0.00  0.00    +0.000 Cl
ATOM      7  C   UNL     1       5.024   6.169  16.032  0.00  0.00    +0.000 A 
ATOM      8  C   UNL     1       4.222   7.058  16.750  0.00  0.00    +0.000 A 
ATOM      9  C   UNL     1       3.562   6.666  17.941  0.00  0.00    +0.000 A 
ATOM     10  C   UNL     1       2.735   7.534  18.728  0.00  0.00    +0.000 A 
ATOM     11  C   UNL     1       2.166   7.075  19.941  0.00  0.00    +0.000 A 
ENDROOT
BRANCH  11  12
ATOM     12  C   UNL     1       1.370   7.870  20.918  0.00  0.00    +0.000 A 
ATOM     13  C   UNL     1      -0.037   7.765  20.965  0.00  0.00    +0.000 A 
ATOM     14  C   UNL     1      -0.802   8.468  21.900  0.00  0.00    +0.000 A 
ATOM     15  C   UNL     1      -0.183   9.349  22.776  0.00  0.00    +0.000 A 
ATOM     16  C   UNL     1       1.200   9.496  22.739  0.00  0.00    +0.000 A 
ATOM     17  C   UNL     1       1.969   8.733  21.851  0.00  0.00    +0.000 A 
ENDBRANCH  11  12
BRANCH   1  18
ATOM     18  O   UNL     1       2.027   5.123  21.364  0.00  0.00    +0.000 OA
ATOM     19  H   UNL     1       2.008   4.198  21.061  0.00  0.00    +0.000 HD
ENDBRANCH   1  18
BRANCH  10  20
ATOM     20  O   UNL     1       2.654   8.809  18.197  0.00  0.00    +0.000 OA
BRANCH  20  21
ATOM     21  C   UNL     1       1.461   9.249  17.563  0.00  0.00    +0.000 C 
BRANCH  21  22
ATOM     22  C   UNL     1       0.636  10.162  18.440  0.00  0.00    +0.000 A 
ATOM     23  C   UNL     1       1.290  11.111  19.242  0.00  0.00    +0.000 A 
ATOM     24  C   UNL     1       0.564  12.039  19.983  0.00  0.00    +0.000 A 
ATOM     25  C   UNL     1      -0.828  12.031  19.932  0.00  0.00    +0.000 A 
ATOM     26  C   UNL     1      -1.492  11.091  19.142  0.00  0.00    +0.000 A 
ATOM     27  C   UNL     1      -0.765  10.159  18.397  0.00  0.00    +0.000 A 
ENDBRANCH  21  22
ENDBRANCH  20  21
ENDBRANCH  10  20
TORSDOF 5
ENDMDL
