MODEL 1
REMARK VINA RESULT:      -6.6      0.000      0.000
REMARK  Name = 
REMARK  17 active torsions:
REMARK  status: ('A' for Active; 'I' for Inactive)
REMARK    1  A    between atoms: C_1  and  C_2
REMARK    2  A    between atoms: C_2  and  C_3
REMARK    3  A    between atoms: C_3  and  C_4
REMARK    4  A    between atoms: C_4  and  C_5
REMARK    5  A    between atoms: C_5  and  C_6
REMARK    6  A    between atoms: C_6  and  C_7
REMARK    7  A    between atoms: C_7  and  C_8
REMARK    8  A    between atoms: C_8  and  C_9
REMARK    9  A    between atoms: C_14  and  C_15
REMARK   10  A    between atoms: C_15  and  C_16
REMARK   11  A    between atoms: C_16  and  C_17
REMARK   12  A    between atoms: C_17  and  C_18
REMARK   13  A    between atoms: C_18  and  C_19
REMARK   14  A    between atoms: C_19  and  C_20
REMARK   15  A    between atoms: C_20  and  C_21
REMARK   16  A    between atoms: C_21  and  C_22
REMARK   17  A    between atoms: C_22  and  C_24
REMARK                            x       y       z     vdW  Elec       q    Type
REMARK                         _______ _______ _______ _____ _____    ______ ____
ROOT
ATOM      1  C   UNL     1       6.033   6.547  17.564  0.00  0.00    +0.000 A 
ATOM      2  C   UNL     1       7.412   6.825  17.674  0.00  0.00    +0.000 A 
ATOM      3  C   UNL     1       8.168   6.396  18.765  0.00  0.00    +0.000 A 
ATOM      4  C   UNL     1       7.554   5.672  19.771  0.00  0.00    +0.000 A 
ATOM      5  C   UNL     1       6.202   5.356  19.668  0.00  0.00    +0.000 A 
ATOM      6  C   UNL     1       5.416   5.762  18.568  0.00  0.00    +0.000 A 
ENDROOT
BRANCH   6   7
ATOM      7  C   UNL     1       3.948   5.387  18.640  0.00  0.00    +0.000 C 
BRANCH   7   8
ATOM      8  C   UNL     1       2.971   6.373  19.277  0.00  0.00    +0.000 C 
BRANCH   8   9
ATOM      9  C   UNL     1       1.852   5.754  20.121  0.00  0.00    +0.000 C 
BRANCH   9  10
ATOM     10  C   UNL     1       2.466   4.681  21.029  0.00  0.00    +0.000 C 
BRANCH  10  11
ATOM     11  C   UNL     1       1.548   3.493  21.295  0.00  0.00    +0.000 C 
BRANCH  11  12
ATOM     12  C   UNL     1       0.764   3.149  20.025  0.00  0.00    +0.000 C 
BRANCH  12  13
ATOM     13  C   UNL     1       1.388   1.978  19.273  0.00  0.00    +0.000 C 
BRANCH  13  14
ATOM     14  C   UNL     1       2.263   2.418  18.113  0.00  0.00    +0.000 C 
ATOM     15  O   UNL     1       1.811   3.070  17.165  0.00  0.00    +0.000 OA
BRANCH  14  16
ATOM     16  C   UNL     1       3.720   1.998  18.208  0.00  0.00    +0.000 C 
ATOM     17  F   UNL     1       4.268   2.291  19.422  0.00  0.00    +0.000 F 
ATOM     18  F   UNL     1       3.891   0.661  18.031  0.00  0.00    +0.000 F 
ATOM     19  F   UNL     1       4.504   2.620  17.284  0.00  0.00    +0.000 F 
ENDBRANCH  14  16
ENDBRANCH  13  14
ENDBRANCH  12  13
ENDBRANCH  11  12
ENDBRANCH  10  11
ENDBRANCH   9  10
ENDBRANCH   8   9
ENDBRANCH   7   8
ENDBRANCH   6   7
BRANCH   1  20
ATOM     20  C   UNL     1       5.317   7.181  16.386  0.00  0.00    +0.000 C 
BRANCH  20  21
ATOM     21  C   UNL     1       5.114   6.262  15.177  0.00  0.00    +0.000 C 
BRANCH  21  22
ATOM     22  C   UNL     1       6.375   5.472  14.819  0.00  0.00    +0.000 C 
BRANCH  22  23
ATOM     23  C   UNL     1       6.089   3.975  14.726  0.00  0.00    +0.000 C 
BRANCH  23  24
ATOM     24  C   UNL     1       5.238   3.662  13.495  0.00  0.00    +0.000 C 
BRANCH  24  25
ATOM     25  C   UNL     1       6.102   3.157  12.342  0.00  0.00    +0.000 C 
BRANCH  25  27
ATOM     26  C   UNL     1       3.905   3.171  11.117  0.00  0.00    +0.000 C 
ATOM     27  C   UNL     1       5.253   2.484  11.265  0.00  0.00    +0.000 C 
ENDBRANCH  25  27
ENDBRANCH  24  25
ENDBRANCH  23  24
ENDBRANCH  22  23
ENDBRANCH  21  22
ENDBRANCH  20  21
ENDBRANCH   1  20
TORSDOF 16
ENDMDL
MODEL 2
REMARK VINA RESULT:      -6.5      2.766      5.734
REMARK  Name = 
REMARK  17 active torsions:
REMARK  status: ('A' for Active; 'I' for Inactive)
REMARK    1  A    between atoms: C_1  and  C_2
REMARK    2  A    between atoms: C_2  and  C_3
REMARK    3  A    between atoms: C_3  and  C_4
REMARK    4  A    between atoms: C_4  and  C_5
REMARK    5  A    between atoms: C_5  and  C_6
REMARK    6  A    between atoms: C_6  and  C_7
REMARK    7  A    between atoms: C_7  and  C_8
REMARK    8  A    between atoms: C_8  and  C_9
REMARK    9  A    between atoms: C_14  and  C_15
REMARK   10  A    between atoms: C_15  and  C_16
REMARK   11  A    between atoms: C_16  and  C_17
REMARK   12  A    between atoms: C_17  and  C_18
REMARK   13  A    between atoms: C_18  and  C_19
REMARK   14  A    between atoms: C_19  and  C_20
REMARK   15  A    between atoms: C_20  and  C_21
REMARK   16  A    between atoms: C_21  and  C_22
REMARK   17  A    between atoms: C_22  and  C_24
REMARK                            x       y       z     vdW  Elec       q    Type
REMARK                         _______ _______ _______ _____ _____    ______ ____
ROOT
ATOM      1  C   UNL     1       6.513   6.034  17.176  0.00  0.00    +0.000 A 
ATOM      2  C   UNL     1       7.336   5.052  16.586  0.00  0.00    +0.000 A 
ATOM      3  C   UNL     1       6.815   4.031  15.791  0.00  0.00    +0.000 A 
ATOM      4  C   UNL     1       5.450   3.976  15.570  0.00  0.00    +0.000 A 
ATOM      5  C   UNL     1       4.622   4.953  16.114  0.00  0.00    +0.000 A 
ATOM      6  C   UNL     1       5.124   6.007  16.908  0.00  0.00    +0.000 A 
ENDROOT
BRANCH   6   7
ATOM      7  C   UNL     1       4.081   6.953  17.473  0.00  0.00    +0.000 C 
BRANCH   7   8
ATOM      8  C   UNL     1       3.443   6.618  18.821  0.00  0.00    +0.000 C 
BRANCH   8   9
ATOM      9  C   UNL     1       2.346   5.549  18.794  0.00  0.00    +0.000 C 
BRANCH   9  10
ATOM     10  C   UNL     1       1.970   5.203  20.240  0.00  0.00    +0.000 C 
BRANCH  10  11
ATOM     11  C   UNL     1       0.962   4.065  20.364  0.00  0.00    +0.000 C 
BRANCH  11  12
ATOM     12  C   UNL     1       0.985   3.211  19.093  0.00  0.00    +0.000 C 
BRANCH  12  13
ATOM     13  C   UNL     1       1.729   1.898  19.306  0.00  0.00    +0.000 C 
BRANCH  13  14
ATOM     14  C   UNL     1       3.163   1.943  18.811  0.00  0.00    +0.000 C 
ATOM     15  O   UNL     1       3.452   1.741  17.625  0.00  0.00    +0.000 OA
BRANCH  14  16
ATOM     16  C   UNL     1       4.204   2.252  19.874  0.00  0.00    +0.000 C 
ATOM     17  F   UNL     1       3.652   2.423  21.109  0.00  0.00    +0.000 F 
ATOM     18  F   UNL     1       5.125   1.260  20.008  0.00  0.00    +0.000 F 
ATOM     19  F   UNL     1       4.895   3.396  19.612  0.00  0.00    +0.000 F 
ENDBRANCH  14  16
ENDBRANCH  13  14
ENDBRANCH  12  13
ENDBRANCH  11  12
ENDBRANCH  10  11
ENDBRANCH   9  10
ENDBRANCH   8   9
ENDBRANCH   7   8
ENDBRANCH   6   7
BRANCH   1  20
ATOM     20  C   UNL     1       7.205   7.008  18.112  0.00  0.00    +0.000 C 
BRANCH  20  21
ATOM     21  C   UNL     1       8.097   8.047  17.426  0.00  0.00    +0.000 C 
BRANCH  21  22
ATOM     22  C   UNL     1       7.932   9.449  18.017  0.00  0.00    +0.000 C 
BRANCH  22  23
ATOM     23  C   UNL     1       9.264  10.192  18.075  0.00  0.00    +0.000 C 
BRANCH  23  24
ATOM     24  C   UNL     1       9.159  11.423  18.976  0.00  0.00    +0.000 C 
BRANCH  24  25
ATOM     25  C   UNL     1       9.989  11.249  20.245  0.00  0.00    +0.000 C 
BRANCH  25  27
ATOM     26  C   UNL     1      12.332  11.799  19.517  0.00  0.00    +0.000 C 
ATOM     27  C   UNL     1      11.125  12.269  20.311  0.00  0.00    +0.000 C 
ENDBRANCH  25  27
ENDBRANCH  24  25
ENDBRANCH  23  24
ENDBRANCH  22  23
ENDBRANCH  21  22
ENDBRANCH  20  21
ENDBRANCH   1  20
TORSDOF 16
ENDMDL
MODEL 3
REMARK VINA RESULT:      -6.3      2.799      5.415
REMARK  Name = 
REMARK  17 active torsions:
REMARK  status: ('A' for Active; 'I' for Inactive)
REMARK    1  A    between atoms: C_1  and  C_2
REMARK    2  A    between atoms: C_2  and  C_3
REMARK    3  A    between atoms: C_3  and  C_4
REMARK    4  A    between atoms: C_4  and  C_5
REMARK    5  A    between atoms: C_5  and  C_6
REMARK    6  A    between atoms: C_6  and  C_7
REMARK    7  A    between atoms: C_7  and  C_8
REMARK    8  A    between atoms: C_8  and  C_9
REMARK    9  A    between atoms: C_14  and  C_15
REMARK   10  A    between atoms: C_15  and  C_16
REMARK   11  A    between atoms: C_16  and  C_17
REMARK   12  A    between atoms: C_17  and  C_18
REMARK   13  A    between atoms: C_18  and  C_19
REMARK   14  A    between atoms: C_19  and  C_20
REMARK   15  A    between atoms: C_20  and  C_21
REMARK   16  A    between atoms: C_21  and  C_22
REMARK   17  A    between atoms: C_22  and  C_24
REMARK                            x       y       z     vdW  Elec       q    Type
REMARK                         _______ _______ _______ _____ _____    ______ ____
ROOT
ATOM      1  C   UNL     1       6.188   6.264  16.823  0.00  0.00    +0.000 A 
ATOM      2  C   UNL     1       6.965   5.849  15.721  0.00  0.00    +0.000 A 
ATOM      3  C   UNL     1       6.861   4.564  15.186  0.00  0.00    +0.000 A 
ATOM      4  C   UNL     1       5.970   3.667  15.747  0.00  0.00    +0.000 A 
ATOM      5  C   UNL     1       5.169   4.065  16.813  0.00  0.00    +0.000 A 
ATOM      6  C   UNL     1       5.240   5.363  17.364  0.00  0.00    +0.000 A 
ENDROOT
BRANCH   6   7
ATOM      7  C   UNL     1       4.341   5.615  18.560  0.00  0.00    +0.000 C 
BRANCH   7   8
ATOM      8  C   UNL     1       2.903   6.068  18.313  0.00  0.00    +0.000 C 
BRANCH   8   9
ATOM      9  C   UNL     1       2.360   7.126  19.280  0.00  0.00    +0.000 C 
BRANCH   9  10
ATOM     10  C   UNL     1       1.882   6.419  20.554  0.00  0.00    +0.000 C 
BRANCH  10  11
ATOM     11  C   UNL     1       1.674   4.917  20.391  0.00  0.00    +0.000 C 
BRANCH  11  12
ATOM     12  C   UNL     1       2.390   4.168  21.519  0.00  0.00    +0.000 C 
BRANCH  12  13
ATOM     13  C   UNL     1       2.560   2.688  21.198  0.00  0.00    +0.000 C 
BRANCH  13  14
ATOM     14  C   UNL     1       3.477   2.440  20.013  0.00  0.00    +0.000 C 
ATOM     15  O   UNL     1       4.693   2.650  20.074  0.00  0.00    +0.000 OA
BRANCH  14  16
ATOM     16  C   UNL     1       2.788   1.919  18.762  0.00  0.00    +0.000 C 
ATOM     17  F   UNL     1       2.509   2.911  17.870  0.00  0.00    +0.000 F 
ATOM     18  F   UNL     1       3.545   1.010  18.090  0.00  0.00    +0.000 F 
ATOM     19  F   UNL     1       1.599   1.314  19.034  0.00  0.00    +0.000 F 
ENDBRANCH  14  16
ENDBRANCH  13  14
ENDBRANCH  12  13
ENDBRANCH  11  12
ENDBRANCH  10  11
ENDBRANCH   9  10
ENDBRANCH   8   9
ENDBRANCH   7   8
ENDBRANCH   6   7
BRANCH   1  20
ATOM     20  C   UNL     1       6.496   7.645  17.372  0.00  0.00    +0.000 C 
BRANCH  20  21
ATOM     21  C   UNL     1       7.967   7.894  17.720  0.00  0.00    +0.000 C 
BRANCH  21  22
ATOM     22  C   UNL     1       8.288   9.380  17.894  0.00  0.00    +0.000 C 
BRANCH  22  23
ATOM     23  C   UNL     1       9.055   9.638  19.189  0.00  0.00    +0.000 C 
BRANCH  23  24
ATOM     24  C   UNL     1       9.754  10.997  19.142  0.00  0.00    +0.000 C 
BRANCH  24  25
ATOM     25  C   UNL     1       9.336  11.789  17.907  0.00  0.00    +0.000 C 
BRANCH  25  27
ATOM     26  C   UNL     1       7.600  13.547  17.436  0.00  0.00    +0.000 C 
ATOM     27  C   UNL     1       8.802  13.170  18.286  0.00  0.00    +0.000 C 
ENDBRANCH  25  27
ENDBRANCH  24  25
ENDBRANCH  23  24
ENDBRANCH  22  23
ENDBRANCH  21  22
ENDBRANCH  20  21
ENDBRANCH   1  20
TORSDOF 16
ENDMDL
MODEL 4
REMARK VINA RESULT:      -6.3      4.384      6.152
REMARK  Name = 
REMARK  17 active torsions:
REMARK  status: ('A' for Active; 'I' for Inactive)
REMARK    1  A    between atoms: C_1  and  C_2
REMARK    2  A    between atoms: C_2  and  C_3
REMARK    3  A    between atoms: C_3  and  C_4
REMARK    4  A    between atoms: C_4  and  C_5
REMARK    5  A    between atoms: C_5  and  C_6
REMARK    6  A    between atoms: C_6  and  C_7
REMARK    7  A    between atoms: C_7  and  C_8
REMARK    8  A    between atoms: C_8  and  C_9
REMARK    9  A    between atoms: C_14  and  C_15
REMARK   10  A    between atoms: C_15  and  C_16
REMARK   11  A    between atoms: C_16  and  C_17
REMARK   12  A    between atoms: C_17  and  C_18
REMARK   13  A    between atoms: C_18  and  C_19
REMARK   14  A    between atoms: C_19  and  C_20
REMARK   15  A    between atoms: C_20  and  C_21
REMARK   16  A    between atoms: C_21  and  C_22
REMARK   17  A    between atoms: C_22  and  C_24
REMARK                            x       y       z     vdW  Elec       q    Type
REMARK                         _______ _______ _______ _____ _____    ______ ____
ROOT
ATOM      1  C   UNL     1       3.023   3.452  18.794  0.00  0.00    +0.000 A 
ATOM      2  C   UNL     1       3.167   2.514  19.838  0.00  0.00    +0.000 A 
ATOM      3  C   UNL     1       2.697   2.766  21.128  0.00  0.00    +0.000 A 
ATOM      4  C   UNL     1       2.068   3.969  21.396  0.00  0.00    +0.000 A 
ATOM      5  C   UNL     1       1.885   4.895  20.373  0.00  0.00    +0.000 A 
ATOM      6  C   UNL     1       2.334   4.660  19.056  0.00  0.00    +0.000 A 
ENDROOT
BRANCH   6   7
ATOM      7  C   UNL     1       2.108   5.796  18.076  0.00  0.00    +0.000 C 
BRANCH   7   8
ATOM      8  C   UNL     1       2.854   7.111  18.296  0.00  0.00    +0.000 C 
BRANCH   8   9
ATOM      9  C   UNL     1       2.025   8.260  18.878  0.00  0.00    +0.000 C 
BRANCH   9  10
ATOM     10  C   UNL     1       1.650   9.215  17.737  0.00  0.00    +0.000 C 
BRANCH  10  11
ATOM     11  C   UNL     1       0.335   9.957  17.956  0.00  0.00    +0.000 C 
BRANCH  11  12
ATOM     12  C   UNL     1       0.427  10.812  19.224  0.00  0.00    +0.000 C 
BRANCH  12  13
ATOM     13  C   UNL     1      -0.401  10.226  20.362  0.00  0.00    +0.000 C 
BRANCH  13  14
ATOM     14  C   UNL     1       0.349  10.185  21.681  0.00  0.00    +0.000 C 
ATOM     15  O   UNL     1       1.502  10.620  21.791  0.00  0.00    +0.000 OA
BRANCH  14  16
ATOM     16  C   UNL     1      -0.418   9.574  22.842  0.00  0.00    +0.000 C 
ATOM     17  F   UNL     1       0.355   9.422  23.955  0.00  0.00    +0.000 F 
ATOM     18  F   UNL     1      -1.481  10.333  23.223  0.00  0.00    +0.000 F 
ATOM     19  F   UNL     1      -0.905   8.336  22.553  0.00  0.00    +0.000 F 
ENDBRANCH  14  16
ENDBRANCH  13  14
ENDBRANCH  12  13
ENDBRANCH  11  12
ENDBRANCH  10  11
ENDBRANCH   9  10
ENDBRANCH   8   9
ENDBRANCH   7   8
ENDBRANCH   6   7
BRANCH   1  20
ATOM     20  C   UNL     1       3.689   3.091  17.479  0.00  0.00    +0.000 C 
BRANCH  20  21
ATOM     21  C   UNL     1       5.091   3.676  17.278  0.00  0.00    +0.000 C 
BRANCH  21  22
ATOM     22  C   UNL     1       5.131   4.749  16.187  0.00  0.00    +0.000 C 
BRANCH  22  23
ATOM     23  C   UNL     1       6.133   4.395  15.091  0.00  0.00    +0.000 C 
BRANCH  23  24
ATOM     24  C   UNL     1       5.414   4.090  13.777  0.00  0.00    +0.000 C 
BRANCH  24  25
ATOM     25  C   UNL     1       6.363   3.453  12.765  0.00  0.00    +0.000 C 
BRANCH  25  27
ATOM     26  C   UNL     1       4.172   3.383  11.534  0.00  0.00    +0.000 C 
ATOM     27  C   UNL     1       5.599   2.863  11.581  0.00  0.00    +0.000 C 
ENDBRANCH  25  27
ENDBRANCH  24  25
ENDBRANCH  23  24
ENDBRANCH  22  23
ENDBRANCH  21  22
ENDBRANCH  20  21
ENDBRANCH   1  20
TORSDOF 16
ENDMDL
MODEL 5
REMARK VINA RESULT:      -6.3      1.657      2.434
REMARK  Name = 
REMARK  17 active torsions:
REMARK  status: ('A' for Active; 'I' for Inactive)
REMARK    1  A    between atoms: C_1  and  C_2
REMARK    2  A    between atoms: C_2  and  C_3
REMARK    3  A    between atoms: C_3  and  C_4
REMARK    4  A    between atoms: C_4  and  C_5
REMARK    5  A    between atoms: C_5  and  C_6
REMARK    6  A    between atoms: C_6  and  C_7
REMARK    7  A    between atoms: C_7  and  C_8
REMARK    8  A    between atoms: C_8  and  C_9
REMARK    9  A    between atoms: C_14  and  C_15
REMARK   10  A    between atoms: C_15  and  C_16
REMARK   11  A    between atoms: C_16  and  C_17
REMARK   12  A    between atoms: C_17  and  C_18
REMARK   13  A    between atoms: C_18  and  C_19
REMARK   14  A    between atoms: C_19  and  C_20
REMARK   15  A    between atoms: C_20  and  C_21
REMARK   16  A    between atoms: C_21  and  C_22
REMARK   17  A    between atoms: C_22  and  C_24
REMARK                            x       y       z     vdW  Elec       q    Type
REMARK                         _______ _______ _______ _____ _____    ______ ____
ROOT
ATOM      1  C   UNL     1       6.125   4.948  16.744  0.00  0.00    +0.000 A 
ATOM      2  C   UNL     1       7.275   4.289  17.229  0.00  0.00    +0.000 A 
ATOM      3  C   UNL     1       8.065   4.833  18.242  0.00  0.00    +0.000 A 
ATOM      4  C   UNL     1       7.715   6.052  18.794  0.00  0.00    +0.000 A 
ATOM      5  C   UNL     1       6.567   6.704  18.355  0.00  0.00    +0.000 A 
ATOM      6  C   UNL     1       5.739   6.170  17.344  0.00  0.00    +0.000 A 
ENDROOT
BRANCH   6   7
ATOM      7  C   UNL     1       4.560   7.036  16.941  0.00  0.00    +0.000 C 
BRANCH   7   8
ATOM      8  C   UNL     1       3.501   7.367  17.992  0.00  0.00    +0.000 C 
BRANCH   8   9
ATOM      9  C   UNL     1       2.226   6.519  17.945  0.00  0.00    +0.000 C 
BRANCH   9  10
ATOM     10  C   UNL     1       2.347   5.401  18.989  0.00  0.00    +0.000 C 
BRANCH  10  11
ATOM     11  C   UNL     1       1.296   5.466  20.093  0.00  0.00    +0.000 C 
BRANCH  11  12
ATOM     12  C   UNL     1       1.202   4.110  20.800  0.00  0.00    +0.000 C 
BRANCH  12  13
ATOM     13  C   UNL     1       1.831   2.995  19.973  0.00  0.00    +0.000 C 
BRANCH  13  14
ATOM     14  C   UNL     1       3.162   2.523  20.530  0.00  0.00    +0.000 C 
ATOM     15  O   UNL     1       3.329   2.319  21.738  0.00  0.00    +0.000 OA
BRANCH  14  16
ATOM     16  C   UNL     1       4.260   2.324  19.498  0.00  0.00    +0.000 C 
ATOM     17  F   UNL     1       3.784   2.350  18.220  0.00  0.00    +0.000 F 
ATOM     18  F   UNL     1       5.219   3.286  19.563  0.00  0.00    +0.000 F 
ATOM     19  F   UNL     1       4.896   1.127  19.636  0.00  0.00    +0.000 F 
ENDBRANCH  14  16
ENDBRANCH  13  14
ENDBRANCH  12  13
ENDBRANCH  11  12
ENDBRANCH  10  11
ENDBRANCH   9  10
ENDBRANCH   8   9
ENDBRANCH   7   8
ENDBRANCH   6   7
BRANCH   1  20
ATOM     20  C   UNL     1       5.436   4.298  15.558  0.00  0.00    +0.000 C 
BRANCH  20  21
ATOM     21  C   UNL     1       6.073   4.588  14.196  0.00  0.00    +0.000 C 
BRANCH  21  22
ATOM     22  C   UNL     1       5.166   4.197  13.026  0.00  0.00    +0.000 C 
BRANCH  22  23
ATOM     23  C   UNL     1       5.819   3.135  12.144  0.00  0.00    +0.000 C 
BRANCH  23  24
ATOM     24  C   UNL     1       4.810   2.563  11.148  0.00  0.00    +0.000 C 
BRANCH  24  25
ATOM     25  C   UNL     1       3.632   3.513  10.952  0.00  0.00    +0.000 C 
BRANCH  25  27
ATOM     26  C   UNL     1       2.339   4.768   9.198  0.00  0.00    +0.000 C 
ATOM     27  C   UNL     1       3.170   3.531   9.496  0.00  0.00    +0.000 C 
ENDBRANCH  25  27
ENDBRANCH  24  25
ENDBRANCH  23  24
ENDBRANCH  22  23
ENDBRANCH  21  22
ENDBRANCH  20  21
ENDBRANCH   1  20
TORSDOF 16
ENDMDL
MODEL 6
REMARK VINA RESULT:      -6.3      2.123      3.012
REMARK  Name = 
REMARK  17 active torsions:
REMARK  status: ('A' for Active; 'I' for Inactive)
REMARK    1  A    between atoms: C_1  and  C_2
REMARK    2  A    between atoms: C_2  and  C_3
REMARK    3  A    between atoms: C_3  and  C_4
REMARK    4  A    between atoms: C_4  and  C_5
REMARK    5  A    between atoms: C_5  and  C_6
REMARK    6  A    between atoms: C_6  and  C_7
REMARK    7  A    between atoms: C_7  and  C_8
REMARK    8  A    between atoms: C_8  and  C_9
REMARK    9  A    between atoms: C_14  and  C_15
REMARK   10  A    between atoms: C_15  and  C_16
REMARK   11  A    between atoms: C_16  and  C_17
REMARK   12  A    between atoms: C_17  and  C_18
REMARK   13  A    between atoms: C_18  and  C_19
REMARK   14  A    between atoms: C_19  and  C_20
REMARK   15  A    between atoms: C_20  and  C_21
REMARK   16  A    between atoms: C_21  and  C_22
REMARK   17  A    between atoms: C_22  and  C_24
REMARK                            x       y       z     vdW  Elec       q    Type
REMARK                         _______ _______ _______ _____ _____    ______ ____
ROOT
ATOM      1  C   UNL     1       5.945   4.934  16.945  0.00  0.00    +0.000 A 
ATOM      2  C   UNL     1       7.227   4.352  17.034  0.00  0.00    +0.000 A 
ATOM      3  C   UNL     1       8.112   4.668  18.066  0.00  0.00    +0.000 A 
ATOM      4  C   UNL     1       7.725   5.575  19.036  0.00  0.00    +0.000 A 
ATOM      5  C   UNL     1       6.452   6.137  18.987  0.00  0.00    +0.000 A 
ATOM      6  C   UNL     1       5.530   5.823  17.965  0.00  0.00    +0.000 A 
ENDROOT
BRANCH   6   7
ATOM      7  C   UNL     1       4.210   6.567  18.026  0.00  0.00    +0.000 C 
BRANCH   7   8
ATOM      8  C   UNL     1       2.988   5.845  18.590  0.00  0.00    +0.000 C 
BRANCH   8   9
ATOM      9  C   UNL     1       1.836   5.612  17.607  0.00  0.00    +0.000 C 
BRANCH   9  10
ATOM     10  C   UNL     1       1.554   4.106  17.538  0.00  0.00    +0.000 C 
BRANCH  10  11
ATOM     11  C   UNL     1       2.809   3.243  17.443  0.00  0.00    +0.000 C 
BRANCH  11  12
ATOM     12  C   UNL     1       2.815   2.210  18.573  0.00  0.00    +0.000 C 
BRANCH  12  13
ATOM     13  C   UNL     1       3.638   2.681  19.767  0.00  0.00    +0.000 C 
BRANCH  13  14
ATOM     14  C   UNL     1       2.930   2.474  21.094  0.00  0.00    +0.000 C 
ATOM     15  O   UNL     1       3.468   1.879  22.035  0.00  0.00    +0.000 OA
BRANCH  14  16
ATOM     16  C   UNL     1       1.525   3.047  21.172  0.00  0.00    +0.000 C 
ATOM     17  F   UNL     1       0.906   2.749  22.350  0.00  0.00    +0.000 F 
ATOM     18  F   UNL     1       1.507   4.404  21.071  0.00  0.00    +0.000 F 
ATOM     19  F   UNL     1       0.710   2.571  20.190  0.00  0.00    +0.000 F 
ENDBRANCH  14  16
ENDBRANCH  13  14
ENDBRANCH  12  13
ENDBRANCH  11  12
ENDBRANCH  10  11
ENDBRANCH   9  10
ENDBRANCH   8   9
ENDBRANCH   7   8
ENDBRANCH   6   7
BRANCH   1  20
ATOM     20  C   UNL     1       5.143   4.589  15.704  0.00  0.00    +0.000 C 
BRANCH  20  21
ATOM     21  C   UNL     1       5.975   4.295  14.452  0.00  0.00    +0.000 C 
BRANCH  21  22
ATOM     22  C   UNL     1       5.166   3.596  13.357  0.00  0.00    +0.000 C 
BRANCH  22  23
ATOM     23  C   UNL     1       6.064   3.112  12.221  0.00  0.00    +0.000 C 
BRANCH  23  24
ATOM     24  C   UNL     1       5.237   2.790  10.976  0.00  0.00    +0.000 C 
BRANCH  24  25
ATOM     25  C   UNL     1       3.770   3.161  11.179  0.00  0.00    +0.000 C 
BRANCH  25  27
ATOM     26  C   UNL     1       2.764   4.655   9.424  0.00  0.00    +0.000 C 
ATOM     27  C   UNL     1       3.022   3.218   9.847  0.00  0.00    +0.000 C 
ENDBRANCH  25  27
ENDBRANCH  24  25
ENDBRANCH  23  24
ENDBRANCH  22  23
ENDBRANCH  21  22
ENDBRANCH  20  21
ENDBRANCH   1  20
TORSDOF 16
ENDMDL
MODEL 7
REMARK VINA RESULT:      -6.3      2.882      3.766
REMARK  Name = 
REMARK  17 active torsions:
REMARK  status: ('A' for Active; 'I' for Inactive)
REMARK    1  A    between atoms: C_1  and  C_2
REMARK    2  A    between atoms: C_2  and  C_3
REMARK    3  A    between atoms: C_3  and  C_4
REMARK    4  A    between atoms: C_4  and  C_5
REMARK    5  A    between atoms: C_5  and  C_6
REMARK    6  A    between atoms: C_6  and  C_7
REMARK    7  A    between atoms: C_7  and  C_8
REMARK    8  A    between atoms: C_8  and  C_9
REMARK    9  A    between atoms: C_14  and  C_15
REMARK   10  A    between atoms: C_15  and  C_16
REMARK   11  A    between atoms: C_16  and  C_17
REMARK   12  A    between atoms: C_17  and  C_18
REMARK   13  A    between atoms: C_18  and  C_19
REMARK   14  A    between atoms: C_19  and  C_20
REMARK   15  A    between atoms: C_20  and  C_21
REMARK   16  A    between atoms: C_21  and  C_22
REMARK   17  A    between atoms: C_22  and  C_24
REMARK                            x       y       z     vdW  Elec       q    Type
REMARK                         _______ _______ _______ _____ _____    ______ ____
ROOT
ATOM      1  C   UNL     1       6.079   6.402  17.155  0.00  0.00    +0.000 A 
ATOM      2  C   UNL     1       7.195   7.249  17.323  0.00  0.00    +0.000 A 
ATOM      3  C   UNL     1       8.077   7.105  18.394  0.00  0.00    +0.000 A 
ATOM      4  C   UNL     1       7.859   6.101  19.321  0.00  0.00    +0.000 A 
ATOM      5  C   UNL     1       6.784   5.232  19.157  0.00  0.00    +0.000 A 
ATOM      6  C   UNL     1       5.885   5.343  18.073  0.00  0.00    +0.000 A 
ENDROOT
BRANCH   6   7
ATOM      7  C   UNL     1       4.734   4.355  18.076  0.00  0.00    +0.000 C 
BRANCH   7   8
ATOM      8  C   UNL     1       4.585   3.408  19.265  0.00  0.00    +0.000 C 
BRANCH   8   9
ATOM      9  C   UNL     1       3.169   2.886  19.530  0.00  0.00    +0.000 C 
BRANCH   9  10
ATOM     10  C   UNL     1       2.165   3.922  19.009  0.00  0.00    +0.000 C 
BRANCH  10  11
ATOM     11  C   UNL     1       1.300   4.550  20.098  0.00  0.00    +0.000 C 
BRANCH  11  12
ATOM     12  C   UNL     1       1.942   5.852  20.585  0.00  0.00    +0.000 C 
BRANCH  12  13
ATOM     13  C   UNL     1       2.436   6.709  19.424  0.00  0.00    +0.000 C 
BRANCH  13  14
ATOM     14  C   UNL     1       1.807   8.090  19.397  0.00  0.00    +0.000 C 
ATOM     15  O   UNL     1       1.290   8.592  20.402  0.00  0.00    +0.000 OA
BRANCH  14  16
ATOM     16  C   UNL     1       1.862   8.798  18.053  0.00  0.00    +0.000 C 
ATOM     17  F   UNL     1       2.413   8.021  17.077  0.00  0.00    +0.000 F 
ATOM     18  F   UNL     1       0.631   9.155  17.600  0.00  0.00    +0.000 F 
ATOM     19  F   UNL     1       2.610   9.935  18.093  0.00  0.00    +0.000 F 
ENDBRANCH  14  16
ENDBRANCH  13  14
ENDBRANCH  12  13
ENDBRANCH  11  12
ENDBRANCH  10  11
ENDBRANCH   9  10
ENDBRANCH   8   9
ENDBRANCH   7   8
ENDBRANCH   6   7
BRANCH   1  20
ATOM     20  C   UNL     1       5.142   6.755  16.014  0.00  0.00    +0.000 C 
BRANCH  20  21
ATOM     21  C   UNL     1       4.931   5.646  14.979  0.00  0.00    +0.000 C 
BRANCH  21  22
ATOM     22  C   UNL     1       6.247   5.021  14.508  0.00  0.00    +0.000 C 
BRANCH  22  23
ATOM     23  C   UNL     1       6.023   3.637  13.902  0.00  0.00    +0.000 C 
BRANCH  23  24
ATOM     24  C   UNL     1       6.494   3.601  12.448  0.00  0.00    +0.000 C 
BRANCH  24  25
ATOM     25  C   UNL     1       5.498   2.854  11.565  0.00  0.00    +0.000 C 
BRANCH  25  27
ATOM     26  C   UNL     1       3.156   2.878  10.650  0.00  0.00    +0.000 C 
ATOM     27  C   UNL     1       4.266   3.709  11.271  0.00  0.00    +0.000 C 
ENDBRANCH  25  27
ENDBRANCH  24  25
ENDBRANCH  23  24
ENDBRANCH  22  23
ENDBRANCH  21  22
ENDBRANCH  20  21
ENDBRANCH   1  20
TORSDOF 16
ENDMDL
MODEL 8
REMARK VINA RESULT:      -6.3      2.964      3.757
REMARK  Name = 
REMARK  17 active torsions:
REMARK  status: ('A' for Active; 'I' for Inactive)
REMARK    1  A    between atoms: C_1  and  C_2
REMARK    2  A    between atoms: C_2  and  C_3
REMARK    3  A    between atoms: C_3  and  C_4
REMARK    4  A    between atoms: C_4  and  C_5
REMARK    5  A    between atoms: C_5  and  C_6
REMARK    6  A    between atoms: C_6  and  C_7
REMARK    7  A    between atoms: C_7  and  C_8
REMARK    8  A    between atoms: C_8  and  C_9
REMARK    9  A    between atoms: C_14  and  C_15
REMARK   10  A    between atoms: C_15  and  C_16
REMARK   11  A    between atoms: C_16  and  C_17
REMARK   12  A    between atoms: C_17  and  C_18
REMARK   13  A    between atoms: C_18  and  C_19
REMARK   14  A    between atoms: C_19  and  C_20
REMARK   15  A    between atoms: C_20  and  C_21
REMARK   16  A    between atoms: C_21  and  C_22
REMARK   17  A    between atoms: C_22  and  C_24
REMARK                            x       y       z     vdW  Elec       q    Type
REMARK                         _______ _______ _______ _____ _____    ______ ____
ROOT
ATOM      1  C   UNL     1       5.926   5.138  16.620  0.00  0.00    +0.000 A 
ATOM      2  C   UNL     1       6.951   6.028  17.004  0.00  0.00    +0.000 A 
ATOM      3  C   UNL     1       7.309   6.210  18.341  0.00  0.00    +0.000 A 
ATOM      4  C   UNL     1       6.645   5.495  19.322  0.00  0.00    +0.000 A 
ATOM      5  C   UNL     1       5.654   4.587  18.964  0.00  0.00    +0.000 A 
ATOM      6  C   UNL     1       5.283   4.370  17.619  0.00  0.00    +0.000 A 
ENDROOT
BRANCH   6   7
ATOM      7  C   UNL     1       4.144   3.390  17.405  0.00  0.00    +0.000 C 
BRANCH   7   8
ATOM      8  C   UNL     1       2.731   3.940  17.218  0.00  0.00    +0.000 C 
BRANCH   8   9
ATOM      9  C   UNL     1       1.653   3.329  18.120  0.00  0.00    +0.000 C 
BRANCH   9  10
ATOM     10  C   UNL     1       2.342   2.639  19.303  0.00  0.00    +0.000 C 
BRANCH  10  11
ATOM     11  C   UNL     1       1.813   3.069  20.667  0.00  0.00    +0.000 C 
BRANCH  11  12
ATOM     12  C   UNL     1       2.357   4.457  21.020  0.00  0.00    +0.000 C 
BRANCH  12  13
ATOM     13  C   UNL     1       1.340   5.554  20.729  0.00  0.00    +0.000 C 
BRANCH  13  14
ATOM     14  C   UNL     1       1.976   6.826  20.196  0.00  0.00    +0.000 C 
ATOM     15  O   UNL     1       2.896   6.800  19.370  0.00  0.00    +0.000 OA
BRANCH  14  16
ATOM     16  C   UNL     1       1.401   8.117  20.753  0.00  0.00    +0.000 C 
ATOM     17  F   UNL     1       0.106   7.979  21.158  0.00  0.00    +0.000 F 
ATOM     18  F   UNL     1       2.087   8.571  21.836  0.00  0.00    +0.000 F 
ATOM     19  F   UNL     1       1.401   9.126  19.839  0.00  0.00    +0.000 F 
ENDBRANCH  14  16
ENDBRANCH  13  14
ENDBRANCH  12  13
ENDBRANCH  11  12
ENDBRANCH  10  11
ENDBRANCH   9  10
ENDBRANCH   8   9
ENDBRANCH   7   8
ENDBRANCH   6   7
BRANCH   1  20
ATOM     20  C   UNL     1       5.565   5.137  15.145  0.00  0.00    +0.000 C 
BRANCH  20  21
ATOM     21  C   UNL     1       6.710   5.501  14.195  0.00  0.00    +0.000 C 
BRANCH  21  22
ATOM     22  C   UNL     1       7.167   4.316  13.341  0.00  0.00    +0.000 C 
BRANCH  22  23
ATOM     23  C   UNL     1       6.103   3.222  13.287  0.00  0.00    +0.000 C 
BRANCH  23  24
ATOM     24  C   UNL     1       5.576   3.049  11.863  0.00  0.00    +0.000 C 
BRANCH  24  25
ATOM     25  C   UNL     1       4.240   3.764  11.679  0.00  0.00    +0.000 C 
BRANCH  25  27
ATOM     26  C   UNL     1       3.023   3.978   9.488  0.00  0.00    +0.000 C 
ATOM     27  C   UNL     1       3.367   3.054  10.645  0.00  0.00    +0.000 C 
ENDBRANCH  25  27
ENDBRANCH  24  25
ENDBRANCH  23  24
ENDBRANCH  22  23
ENDBRANCH  21  22
ENDBRANCH  20  21
ENDBRANCH   1  20
TORSDOF 16
ENDMDL
MODEL 9
REMARK VINA RESULT:      -6.2      5.327      9.003
REMARK  Name = 
REMARK  17 active torsions:
REMARK  status: ('A' for Active; 'I' for Inactive)
REMARK    1  A    between atoms: C_1  and  C_2
REMARK    2  A    between atoms: C_2  and  C_3
REMARK    3  A    between atoms: C_3  and  C_4
REMARK    4  A    between atoms: C_4  and  C_5
REMARK    5  A    between atoms: C_5  and  C_6
REMARK    6  A    between atoms: C_6  and  C_7
REMARK    7  A    between atoms: C_7  and  C_8
REMARK    8  A    between atoms: C_8  and  C_9
REMARK    9  A    between atoms: C_14  and  C_15
REMARK   10  A    between atoms: C_15  and  C_16
REMARK   11  A    between atoms: C_16  and  C_17
REMARK   12  A    between atoms: C_17  and  C_18
REMARK   13  A    between atoms: C_18  and  C_19
REMARK   14  A    between atoms: C_19  and  C_20
REMARK   15  A    between atoms: C_20  and  C_21
REMARK   16  A    between atoms: C_21  and  C_22
REMARK   17  A    between atoms: C_22  and  C_24
REMARK                            x       y       z     vdW  Elec       q    Type
REMARK                         _______ _______ _______ _____ _____    ______ ____
ROOT
ATOM      1  C   UNL     1       3.411   5.407  18.203  0.00  0.00    +0.000 A 
ATOM      2  C   UNL     1       2.253   4.722  17.782  0.00  0.00    +0.000 A 
ATOM      3  C   UNL     1       2.171   3.329  17.799  0.00  0.00    +0.000 A 
ATOM      4  C   UNL     1       3.255   2.593  18.243  0.00  0.00    +0.000 A 
ATOM      5  C   UNL     1       4.396   3.249  18.695  0.00  0.00    +0.000 A 
ATOM      6  C   UNL     1       4.501   4.657  18.706  0.00  0.00    +0.000 A 
ENDROOT
BRANCH   6   7
ATOM      7  C   UNL     1       5.834   5.209  19.172  0.00  0.00    +0.000 C 
BRANCH   7   8
ATOM      8  C   UNL     1       7.059   5.019  18.279  0.00  0.00    +0.000 C 
BRANCH   8   9
ATOM      9  C   UNL     1       7.095   5.870  17.005  0.00  0.00    +0.000 C 
BRANCH   9  10
ATOM     10  C   UNL     1       6.884   7.338  17.397  0.00  0.00    +0.000 C 
BRANCH  10  11
ATOM     11  C   UNL     1       8.073   7.966  18.116  0.00  0.00    +0.000 C 
BRANCH  11  12
ATOM     12  C   UNL     1       8.174   9.451  17.754  0.00  0.00    +0.000 C 
BRANCH  12  13
ATOM     13  C   UNL     1       9.114  10.200  18.692  0.00  0.00    +0.000 C 
BRANCH  13  14
ATOM     14  C   UNL     1       9.792  11.385  18.029  0.00  0.00    +0.000 C 
ATOM     15  O   UNL     1      10.948  11.317  17.594  0.00  0.00    +0.000 OA
BRANCH  14  16
ATOM     16  C   UNL     1       8.950  12.647  17.944  0.00  0.00    +0.000 C 
ATOM     17  F   UNL     1       7.884  12.506  17.105  0.00  0.00    +0.000 F 
ATOM     18  F   UNL     1       8.435  13.014  19.149  0.00  0.00    +0.000 F 
ATOM     19  F   UNL     1       9.654  13.715  17.478  0.00  0.00    +0.000 F 
ENDBRANCH  14  16
ENDBRANCH  13  14
ENDBRANCH  12  13
ENDBRANCH  11  12
ENDBRANCH  10  11
ENDBRANCH   9  10
ENDBRANCH   8   9
ENDBRANCH   7   8
ENDBRANCH   6   7
BRANCH   1  20
ATOM     20  C   UNL     1       3.399   6.913  18.014  0.00  0.00    +0.000 C 
BRANCH  20  21
ATOM     21  C   UNL     1       2.015   7.566  18.080  0.00  0.00    +0.000 C 
BRANCH  21  22
ATOM     22  C   UNL     1       2.063   9.076  17.836  0.00  0.00    +0.000 C 
BRANCH  22  23
ATOM     23  C   UNL     1       0.755   9.750  18.243  0.00  0.00    +0.000 C 
BRANCH  23  24
ATOM     24  C   UNL     1       0.889  10.405  19.618  0.00  0.00    +0.000 C 
BRANCH  24  25
ATOM     25  C   UNL     1      -0.024   9.731  20.640  0.00  0.00    +0.000 C 
BRANCH  25  27
ATOM     26  C   UNL     1      -0.367   9.662  23.130  0.00  0.00    +0.000 C 
ATOM     27  C   UNL     1       0.654   9.624  22.005  0.00  0.00    +0.000 C 
ENDBRANCH  25  27
ENDBRANCH  24  25
ENDBRANCH  23  24
ENDBRANCH  22  23
ENDBRANCH  21  22
ENDBRANCH  20  21
ENDBRANCH   1  20
TORSDOF 16
ENDMDL
