MODEL 1
REMARK VINA RESULT:      -8.1      0.000      0.000
REMARK  Name = 
REMARK  14 active torsions:
REMARK  status: ('A' for Active; 'I' for Inactive)
REMARK    1  A    between atoms: C_1  and  C_2
REMARK    2  A    between atoms: C_2  and  N_3
REMARK    3  A    between atoms: N_3  and  C_4
REMARK    4  A    between atoms: C_4  and  C_19
REMARK    5  A    between atoms: C_5  and  C_6
REMARK    6  A    between atoms: C_6  and  C_8
REMARK    7  A    between atoms: C_9  and  C_10
REMARK    8  A    between atoms: C_13  and  O_14
REMARK    9  A    between atoms: C_15  and  O_16
REMARK   10  A    between atoms: O_16  and  C_17
REMARK   11  A    between atoms: C_20  and  C_21
REMARK   12  A    between atoms: C_24  and  O_25
REMARK   13  A    between atoms: C_26  and  O_27
REMARK   14  A    between atoms: O_27  and  C_28
REMARK                            x       y       z     vdW  Elec       q    Type
REMARK                         _______ _______ _______ _____ _____    ______ ____
ROOT
ATOM      1  C   UNL     1       7.843   7.455  18.043  0.00  0.00    +0.000 C 
ATOM      2  C   UNL     1       8.081   6.317  18.731  0.00  0.00    +0.000 C 
ENDROOT
BRANCH   1   3
ATOM      3  N   UNL     1       7.088   7.546  16.875  0.00  0.00    +0.000 N 
ATOM      4  H   UNL     1       7.475   6.902  16.174  0.00  0.00    +0.000 HD
BRANCH   3   6
ATOM      5  C   UNL     1       5.147   6.465  15.787  0.00  0.00    +0.000 C 
ATOM      6  C   UNL     1       5.628   7.388  16.899  0.00  0.00    +0.000 C 
ENDBRANCH   3   6
ENDBRANCH   1   3
BRANCH   2   7
ATOM      7  C   UNL     1       7.545   4.974  18.375  0.00  0.00    +0.000 C 
ATOM      8  O   UNL     1       8.181   4.164  17.711  0.00  0.00    +0.000 OA
BRANCH   7   9
ATOM      9  C   UNL     1       6.167   4.695  18.892  0.00  0.00    +0.000 C 
ATOM     10  C   UNL     1       5.385   3.817  18.241  0.00  0.00    +0.000 C 
BRANCH  10  11
ATOM     11  C   UNL     1       3.975   3.515  18.544  0.00  0.00    +0.000 A 
ATOM     12  C   UNL     1       3.387   2.416  17.909  0.00  0.00    +0.000 A 
ATOM     13  C   UNL     1       2.056   2.070  18.153  0.00  0.00    +0.000 A 
ATOM     14  C   UNL     1       1.289   2.815  19.051  0.00  0.00    +0.000 A 
ATOM     15  C   UNL     1       1.856   3.900  19.726  0.00  0.00    +0.000 A 
ATOM     16  C   UNL     1       3.202   4.236  19.463  0.00  0.00    +0.000 A 
BRANCH  14  17
ATOM     17  O   UNL     1      -0.013   2.444  19.245  0.00  0.00    +0.000 OA
ATOM     18  H   UNL     1      -0.074   1.475  19.241  0.00  0.00    +0.000 HD
ENDBRANCH  14  17
BRANCH  15  19
ATOM     19  O   UNL     1       1.267   4.729  20.648  0.00  0.00    +0.000 OA
ATOM     20  C   UNL     1       1.706   6.081  20.714  0.00  0.00    +0.000 C 
ENDBRANCH  15  19
ENDBRANCH  10  11
ENDBRANCH   7   9
ENDBRANCH   2   7
BRANCH   1  21
ATOM     21  C   UNL     1       8.502   8.675  18.530  0.00  0.00    +0.000 C 
ATOM     22  C   UNL     1       8.488   9.886  17.945  0.00  0.00    +0.000 C 
BRANCH  22  23
ATOM     23  C   UNL     1       9.232  11.056  18.451  0.00  0.00    +0.000 A 
ATOM     24  C   UNL     1      10.327  10.925  19.311  0.00  0.00    +0.000 A 
ATOM     25  C   UNL     1      11.019  12.051  19.766  0.00  0.00    +0.000 A 
ATOM     26  C   UNL     1      10.637  13.330  19.352  0.00  0.00    +0.000 A 
ATOM     27  C   UNL     1       9.567  13.491  18.469  0.00  0.00    +0.000 A 
ATOM     28  C   UNL     1       8.883  12.345  18.020  0.00  0.00    +0.000 A 
BRANCH  26  29
ATOM     29  O   UNL     1      11.340  14.398  19.835  0.00  0.00    +0.000 OA
ATOM     30  H   UNL     1      10.947  15.219  19.495  0.00  0.00    +0.000 HD
ENDBRANCH  26  29
BRANCH  27  31
ATOM     31  O   UNL     1       9.067  14.653  17.942  0.00  0.00    +0.000 OA
ATOM     32  C   UNL     1       7.658  14.782  17.821  0.00  0.00    +0.000 C 
ENDBRANCH  27  31
ENDBRANCH  22  23
ENDBRANCH   1  21
TORSDOF 11
ENDMDL
MODEL 2
REMARK VINA RESULT:      -7.6      1.217      1.746
REMARK  Name = 
REMARK  14 active torsions:
REMARK  status: ('A' for Active; 'I' for Inactive)
REMARK    1  A    between atoms: C_1  and  C_2
REMARK    2  A    between atoms: C_2  and  N_3
REMARK    3  A    between atoms: N_3  and  C_4
REMARK    4  A    between atoms: C_4  and  C_19
REMARK    5  A    between atoms: C_5  and  C_6
REMARK    6  A    between atoms: C_6  and  C_8
REMARK    7  A    between atoms: C_9  and  C_10
REMARK    8  A    between atoms: C_13  and  O_14
REMARK    9  A    between atoms: C_15  and  O_16
REMARK   10  A    between atoms: O_16  and  C_17
REMARK   11  A    between atoms: C_20  and  C_21
REMARK   12  A    between atoms: C_24  and  O_25
REMARK   13  A    between atoms: C_26  and  O_27
REMARK   14  A    between atoms: O_27  and  C_28
REMARK                            x       y       z     vdW  Elec       q    Type
REMARK                         _______ _______ _______ _____ _____    ______ ____
ROOT
ATOM      1  C   UNL     1       7.804   7.430  18.095  0.00  0.00    +0.000 C 
ATOM      2  C   UNL     1       8.082   6.286  18.760  0.00  0.00    +0.000 C 
ENDROOT
BRANCH   1   3
ATOM      3  N   UNL     1       7.080   7.514  16.907  0.00  0.00    +0.000 N 
ATOM      4  H   UNL     1       7.469   6.848  16.229  0.00  0.00    +0.000 HD
BRANCH   3   6
ATOM      5  C   UNL     1       5.134   6.548  15.725  0.00  0.00    +0.000 C 
ATOM      6  C   UNL     1       5.617   7.390  16.898  0.00  0.00    +0.000 C 
ENDBRANCH   3   6
ENDBRANCH   1   3
BRANCH   2   7
ATOM      7  C   UNL     1       7.628   4.929  18.352  0.00  0.00    +0.000 C 
ATOM      8  O   UNL     1       8.298   4.197  17.632  0.00  0.00    +0.000 OA
BRANCH   7   9
ATOM      9  C   UNL     1       6.289   4.530  18.891  0.00  0.00    +0.000 C 
ATOM     10  C   UNL     1       5.380   3.990  18.062  0.00  0.00    +0.000 C 
BRANCH  10  11
ATOM     11  C   UNL     1       3.985   3.651  18.400  0.00  0.00    +0.000 A 
ATOM     12  C   UNL     1       3.178   3.111  17.392  0.00  0.00    +0.000 A 
ATOM     13  C   UNL     1       1.849   2.763  17.643  0.00  0.00    +0.000 A 
ATOM     14  C   UNL     1       1.305   2.940  18.917  0.00  0.00    +0.000 A 
ATOM     15  C   UNL     1       2.094   3.447  19.953  0.00  0.00    +0.000 A 
ATOM     16  C   UNL     1       3.435   3.795  19.679  0.00  0.00    +0.000 A 
BRANCH  14  17
ATOM     17  O   UNL     1      -0.005   2.597  19.109  0.00  0.00    +0.000 OA
ATOM     18  H   UNL     1      -0.276   1.965  18.422  0.00  0.00    +0.000 HD
ENDBRANCH  14  17
BRANCH  15  19
ATOM     19  O   UNL     1       1.739   3.671  21.260  0.00  0.00    +0.000 OA
ATOM     20  C   UNL     1       1.686   2.557  22.144  0.00  0.00    +0.000 C 
ENDBRANCH  15  19
ENDBRANCH  10  11
ENDBRANCH   7   9
ENDBRANCH   2   7
BRANCH   1  21
ATOM     21  C   UNL     1       8.383   8.668  18.634  0.00  0.00    +0.000 C 
ATOM     22  C   UNL     1       8.804   9.734  17.930  0.00  0.00    +0.000 C 
BRANCH  22  23
ATOM     23  C   UNL     1       9.444  10.921  18.531  0.00  0.00    +0.000 A 
ATOM     24  C   UNL     1      10.076  11.898  17.755  0.00  0.00    +0.000 A 
ATOM     25  C   UNL     1      10.665  13.016  18.352  0.00  0.00    +0.000 A 
ATOM     26  C   UNL     1      10.615  13.185  19.739  0.00  0.00    +0.000 A 
ATOM     27  C   UNL     1       9.964  12.242  20.537  0.00  0.00    +0.000 A 
ATOM     28  C   UNL     1       9.375  11.122  19.917  0.00  0.00    +0.000 A 
BRANCH  26  29
ATOM     29  O   UNL     1      11.216  14.290  20.273  0.00  0.00    +0.000 OA
ATOM     30  H   UNL     1      12.010  14.017  20.762  0.00  0.00    +0.000 HD
ENDBRANCH  26  29
BRANCH  27  31
ATOM     31  O   UNL     1       9.796  12.250  21.897  0.00  0.00    +0.000 OA
ATOM     32  C   UNL     1       8.491  12.031  22.412  0.00  0.00    +0.000 C 
ENDBRANCH  27  31
ENDBRANCH  22  23
ENDBRANCH   1  21
TORSDOF 11
ENDMDL
MODEL 3
REMARK VINA RESULT:      -7.5      5.161      8.597
REMARK  Name = 
REMARK  14 active torsions:
REMARK  status: ('A' for Active; 'I' for Inactive)
REMARK    1  A    between atoms: C_1  and  C_2
REMARK    2  A    between atoms: C_2  and  N_3
REMARK    3  A    between atoms: N_3  and  C_4
REMARK    4  A    between atoms: C_4  and  C_19
REMARK    5  A    between atoms: C_5  and  C_6
REMARK    6  A    between atoms: C_6  and  C_8
REMARK    7  A    between atoms: C_9  and  C_10
REMARK    8  A    between atoms: C_13  and  O_14
REMARK    9  A    between atoms: C_15  and  O_16
REMARK   10  A    between atoms: O_16  and  C_17
REMARK   11  A    between atoms: C_20  and  C_21
REMARK   12  A    between atoms: C_24  and  O_25
REMARK   13  A    between atoms: C_26  and  O_27
REMARK   14  A    between atoms: O_27  and  C_28
REMARK                            x       y       z     vdW  Elec       q    Type
REMARK                         _______ _______ _______ _____ _____    ______ ____
ROOT
ATOM      1  C   UNL     1       2.186   6.979  19.957  0.00  0.00    +0.000 C 
ATOM      2  C   UNL     1       1.785   8.268  20.034  0.00  0.00    +0.000 C 
ENDROOT
BRANCH   1   3
ATOM      3  N   UNL     1       1.818   5.968  20.842  0.00  0.00    +0.000 N 
ATOM      4  H   UNL     1       1.195   6.360  21.559  0.00  0.00    +0.000 HD
BRANCH   3   6
ATOM      5  C   UNL     1       1.613   3.538  21.258  0.00  0.00    +0.000 C 
ATOM      6  C   UNL     1       1.238   4.708  20.358  0.00  0.00    +0.000 C 
ENDBRANCH   3   6
ENDBRANCH   1   3
BRANCH   2   7
ATOM      7  C   UNL     1       0.852   8.813  21.058  0.00  0.00    +0.000 C 
ATOM      8  O   UNL     1       1.104   8.795  22.258  0.00  0.00    +0.000 OA
BRANCH   7   9
ATOM      9  C   UNL     1      -0.417   9.384  20.505  0.00  0.00    +0.000 C 
ATOM     10  C   UNL     1      -0.477   9.719  19.205  0.00  0.00    +0.000 C 
BRANCH  10  11
ATOM     11  C   UNL     1      -1.601  10.394  18.530  0.00  0.00    +0.000 A 
ATOM     12  C   UNL     1      -2.513  11.101  19.320  0.00  0.00    +0.000 A 
ATOM     13  C   UNL     1      -3.598  11.767  18.746  0.00  0.00    +0.000 A 
ATOM     14  C   UNL     1      -3.784  11.747  17.362  0.00  0.00    +0.000 A 
ATOM     15  C   UNL     1      -2.873  11.075  16.542  0.00  0.00    +0.000 A 
ATOM     16  C   UNL     1      -1.783  10.405  17.142  0.00  0.00    +0.000 A 
BRANCH  14  17
ATOM     17  O   UNL     1      -4.869  12.402  16.850  0.00  0.00    +0.000 OA
ATOM     18  H   UNL     1      -4.683  13.356  16.821  0.00  0.00    +0.000 HD
ENDBRANCH  14  17
BRANCH  15  19
ATOM     19  O   UNL     1      -2.883  10.962  15.175  0.00  0.00    +0.000 OA
ATOM     20  C   UNL     1      -3.702   9.957  14.588  0.00  0.00    +0.000 C 
ENDBRANCH  15  19
ENDBRANCH  10  11
ENDBRANCH   7   9
ENDBRANCH   2   7
BRANCH   1  21
ATOM     21  C   UNL     1       3.149   6.647  18.898  0.00  0.00    +0.000 C 
ATOM     22  C   UNL     1       3.952   5.569  18.850  0.00  0.00    +0.000 C 
BRANCH  22  23
ATOM     23  C   UNL     1       4.951   5.330  17.790  0.00  0.00    +0.000 A 
ATOM     24  C   UNL     1       4.869   4.235  16.924  0.00  0.00    +0.000 A 
ATOM     25  C   UNL     1       5.825   4.041  15.922  0.00  0.00    +0.000 A 
ATOM     26  C   UNL     1       6.871   4.953  15.758  0.00  0.00    +0.000 A 
ATOM     27  C   UNL     1       6.962   6.073  16.587  0.00  0.00    +0.000 A 
ATOM     28  C   UNL     1       5.989   6.253  17.590  0.00  0.00    +0.000 A 
BRANCH  26  29
ATOM     29  O   UNL     1       7.785   4.711  14.771  0.00  0.00    +0.000 OA
ATOM     30  H   UNL     1       7.349   4.785  13.907  0.00  0.00    +0.000 HD
ENDBRANCH  26  29
BRANCH  27  31
ATOM     31  O   UNL     1       7.896   7.076  16.562  0.00  0.00    +0.000 OA
ATOM     32  C   UNL     1       7.747   8.152  17.477  0.00  0.00    +0.000 C 
ENDBRANCH  27  31
ENDBRANCH  22  23
ENDBRANCH   1  21
TORSDOF 11
ENDMDL
MODEL 4
REMARK VINA RESULT:      -7.4      0.913      1.058
REMARK  Name = 
REMARK  14 active torsions:
REMARK  status: ('A' for Active; 'I' for Inactive)
REMARK    1  A    between atoms: C_1  and  C_2
REMARK    2  A    between atoms: C_2  and  N_3
REMARK    3  A    between atoms: N_3  and  C_4
REMARK    4  A    between atoms: C_4  and  C_19
REMARK    5  A    between atoms: C_5  and  C_6
REMARK    6  A    between atoms: C_6  and  C_8
REMARK    7  A    between atoms: C_9  and  C_10
REMARK    8  A    between atoms: C_13  and  O_14
REMARK    9  A    between atoms: C_15  and  O_16
REMARK   10  A    between atoms: O_16  and  C_17
REMARK   11  A    between atoms: C_20  and  C_21
REMARK   12  A    between atoms: C_24  and  O_25
REMARK   13  A    between atoms: C_26  and  O_27
REMARK   14  A    between atoms: O_27  and  C_28
REMARK                            x       y       z     vdW  Elec       q    Type
REMARK                         _______ _______ _______ _____ _____    ______ ____
ROOT
ATOM      1  C   UNL     1       7.502   7.289  17.755  0.00  0.00    +0.000 C 
ATOM      2  C   UNL     1       7.693   6.291  18.645  0.00  0.00    +0.000 C 
ENDROOT
BRANCH   1   3
ATOM      3  N   UNL     1       7.097   7.120  16.432  0.00  0.00    +0.000 N 
ATOM      4  H   UNL     1       7.661   6.379  16.000  0.00  0.00    +0.000 HD
BRANCH   3   6
ATOM      5  C   UNL     1       5.519   5.683  15.181  0.00  0.00    +0.000 C 
ATOM      6  C   UNL     1       5.686   6.891  16.093  0.00  0.00    +0.000 C 
ENDBRANCH   3   6
ENDBRANCH   1   3
BRANCH   2   7
ATOM      7  C   UNL     1       7.466   4.845  18.372  0.00  0.00    +0.000 C 
ATOM      8  O   UNL     1       8.272   4.154  17.758  0.00  0.00    +0.000 OA
BRANCH   7   9
ATOM      9  C   UNL     1       6.175   4.305  18.905  0.00  0.00    +0.000 C 
ATOM     10  C   UNL     1       5.154   4.087  18.059  0.00  0.00    +0.000 C 
BRANCH  10  11
ATOM     11  C   UNL     1       3.789   3.670  18.430  0.00  0.00    +0.000 A 
ATOM     12  C   UNL     1       3.298   2.476  17.893  0.00  0.00    +0.000 A 
ATOM     13  C   UNL     1       2.015   2.019  18.205  0.00  0.00    +0.000 A 
ATOM     14  C   UNL     1       1.201   2.750  19.074  0.00  0.00    +0.000 A 
ATOM     15  C   UNL     1       1.674   3.931  19.652  0.00  0.00    +0.000 A 
ATOM     16  C   UNL     1       2.973   4.377  19.321  0.00  0.00    +0.000 A 
BRANCH  14  17
ATOM     17  O   UNL     1      -0.051   2.268  19.337  0.00  0.00    +0.000 OA
ATOM     18  H   UNL     1      -0.237   2.358  20.286  0.00  0.00    +0.000 HD
ENDBRANCH  14  17
BRANCH  15  19
ATOM     19  O   UNL     1       1.030   4.764  20.532  0.00  0.00    +0.000 OA
ATOM     20  C   UNL     1       1.610   6.034  20.805  0.00  0.00    +0.000 C 
ENDBRANCH  15  19
ENDBRANCH  10  11
ENDBRANCH   7   9
ENDBRANCH   2   7
BRANCH   1  21
ATOM     21  C   UNL     1       7.827   8.650  18.203  0.00  0.00    +0.000 C 
ATOM     22  C   UNL     1       9.045   9.220  18.231  0.00  0.00    +0.000 C 
BRANCH  22  23
ATOM     23  C   UNL     1       9.313  10.571  18.763  0.00  0.00    +0.000 A 
ATOM     24  C   UNL     1       9.293  10.848  20.134  0.00  0.00    +0.000 A 
ATOM     25  C   UNL     1       9.560  12.135  20.608  0.00  0.00    +0.000 A 
ATOM     26  C   UNL     1       9.871  13.166  19.716  0.00  0.00    +0.000 A 
ATOM     27  C   UNL     1       9.928  12.913  18.344  0.00  0.00    +0.000 A 
ATOM     28  C   UNL     1       9.658  11.609  17.885  0.00  0.00    +0.000 A 
BRANCH  26  29
ATOM     29  O   UNL     1      10.113  14.409  20.231  0.00  0.00    +0.000 OA
ATOM     30  H   UNL     1      10.793  14.849  19.696  0.00  0.00    +0.000 HD
ENDBRANCH  26  29
BRANCH  27  31
ATOM     31  O   UNL     1      10.234  13.784  17.331  0.00  0.00    +0.000 OA
ATOM     32  C   UNL     1      11.580  14.219  17.205  0.00  0.00    +0.000 C 
ENDBRANCH  27  31
ENDBRANCH  22  23
ENDBRANCH   1  21
TORSDOF 11
ENDMDL
MODEL 5
REMARK VINA RESULT:      -7.4      6.488      9.418
REMARK  Name = 
REMARK  14 active torsions:
REMARK  status: ('A' for Active; 'I' for Inactive)
REMARK    1  A    between atoms: C_1  and  C_2
REMARK    2  A    between atoms: C_2  and  N_3
REMARK    3  A    between atoms: N_3  and  C_4
REMARK    4  A    between atoms: C_4  and  C_19
REMARK    5  A    between atoms: C_5  and  C_6
REMARK    6  A    between atoms: C_6  and  C_8
REMARK    7  A    between atoms: C_9  and  C_10
REMARK    8  A    between atoms: C_13  and  O_14
REMARK    9  A    between atoms: C_15  and  O_16
REMARK   10  A    between atoms: O_16  and  C_17
REMARK   11  A    between atoms: C_20  and  C_21
REMARK   12  A    between atoms: C_24  and  O_25
REMARK   13  A    between atoms: C_26  and  O_27
REMARK   14  A    between atoms: O_27  and  C_28
REMARK                            x       y       z     vdW  Elec       q    Type
REMARK                         _______ _______ _______ _____ _____    ______ ____
ROOT
ATOM      1  C   UNL     1      -0.061  10.887  19.398  0.00  0.00    +0.000 C 
ATOM      2  C   UNL     1       0.971  10.044  19.620  0.00  0.00    +0.000 C 
ENDROOT
BRANCH   1   3
ATOM      3  N   UNL     1      -0.698  11.072  18.172  0.00  0.00    +0.000 N 
ATOM      4  H   UNL     1      -0.068  10.773  17.418  0.00  0.00    +0.000 HD
BRANCH   3   6
ATOM      5  C   UNL     1      -2.131   9.918  16.518  0.00  0.00    +0.000 C 
ATOM      6  C   UNL     1      -2.032  10.513  17.916  0.00  0.00    +0.000 C 
ENDBRANCH   3   6
ENDBRANCH   1   3
BRANCH   2   7
ATOM      7  C   UNL     1       1.576   9.144  18.601  0.00  0.00    +0.000 C 
ATOM      8  O   UNL     1       1.514   9.373  17.398  0.00  0.00    +0.000 OA
BRANCH   7   9
ATOM      9  C   UNL     1       2.265   7.939  19.162  0.00  0.00    +0.000 C 
ATOM     10  C   UNL     1       2.595   6.927  18.341  0.00  0.00    +0.000 C 
BRANCH  10  11
ATOM     11  C   UNL     1       3.167   5.630  18.743  0.00  0.00    +0.000 A 
ATOM     12  C   UNL     1       4.545   5.444  18.589  0.00  0.00    +0.000 A 
ATOM     13  C   UNL     1       5.155   4.241  18.954  0.00  0.00    +0.000 A 
ATOM     14  C   UNL     1       4.393   3.202  19.493  0.00  0.00    +0.000 A 
ATOM     15  C   UNL     1       3.019   3.368  19.689  0.00  0.00    +0.000 A 
ATOM     16  C   UNL     1       2.421   4.590  19.311  0.00  0.00    +0.000 A 
BRANCH  14  17
ATOM     17  O   UNL     1       5.034   2.039  19.821  0.00  0.00    +0.000 OA
ATOM     18  H   UNL     1       5.563   1.740  19.063  0.00  0.00    +0.000 HD
ENDBRANCH  14  17
BRANCH  15  19
ATOM     19  O   UNL     1       2.122   2.473  20.216  0.00  0.00    +0.000 OA
ATOM     20  C   UNL     1       1.672   2.678  21.550  0.00  0.00    +0.000 C 
ENDBRANCH  15  19
ENDBRANCH  10  11
ENDBRANCH   7   9
ENDBRANCH   2   7
BRANCH   1  21
ATOM     21  C   UNL     1      -0.487  11.728  20.525  0.00  0.00    +0.000 C 
ATOM     22  C   UNL     1      -1.410  11.423  21.454  0.00  0.00    +0.000 C 
BRANCH  22  23
ATOM     23  C   UNL     1      -1.843  12.346  22.522  0.00  0.00    +0.000 A 
ATOM     24  C   UNL     1      -1.105  13.483  22.866  0.00  0.00    +0.000 A 
ATOM     25  C   UNL     1      -1.545  14.344  23.875  0.00  0.00    +0.000 A 
ATOM     26  C   UNL     1      -2.745  14.091  24.547  0.00  0.00    +0.000 A 
ATOM     27  C   UNL     1      -3.520  12.980  24.204  0.00  0.00    +0.000 A 
ATOM     28  C   UNL     1      -3.061  12.125  23.183  0.00  0.00    +0.000 A 
BRANCH  26  29
ATOM     29  O   UNL     1      -3.125  14.957  25.533  0.00  0.00    +0.000 OA
ATOM     30  H   UNL     1      -3.531  15.742  25.129  0.00  0.00    +0.000 HD
ENDBRANCH  26  29
BRANCH  27  31
ATOM     31  O   UNL     1      -4.722  12.586  24.731  0.00  0.00    +0.000 OA
ATOM     32  C   UNL     1      -5.898  12.837  23.976  0.00  0.00    +0.000 C 
ENDBRANCH  27  31
ENDBRANCH  22  23
ENDBRANCH   1  21
TORSDOF 11
ENDMDL
MODEL 6
REMARK VINA RESULT:      -7.3      4.093      7.770
REMARK  Name = 
REMARK  14 active torsions:
REMARK  status: ('A' for Active; 'I' for Inactive)
REMARK    1  A    between atoms: C_1  and  C_2
REMARK    2  A    between atoms: C_2  and  N_3
REMARK    3  A    between atoms: N_3  and  C_4
REMARK    4  A    between atoms: C_4  and  C_19
REMARK    5  A    between atoms: C_5  and  C_6
REMARK    6  A    between atoms: C_6  and  C_8
REMARK    7  A    between atoms: C_9  and  C_10
REMARK    8  A    between atoms: C_13  and  O_14
REMARK    9  A    between atoms: C_15  and  O_16
REMARK   10  A    between atoms: O_16  and  C_17
REMARK   11  A    between atoms: C_20  and  C_21
REMARK   12  A    between atoms: C_24  and  O_25
REMARK   13  A    between atoms: C_26  and  O_27
REMARK   14  A    between atoms: O_27  and  C_28
REMARK                            x       y       z     vdW  Elec       q    Type
REMARK                         _______ _______ _______ _____ _____    ______ ____
ROOT
ATOM      1  C   UNL     1       1.999   4.784  20.030  0.00  0.00    +0.000 C 
ATOM      2  C   UNL     1       1.440   4.372  18.870  0.00  0.00    +0.000 C 
ENDROOT
BRANCH   1   3
ATOM      3  N   UNL     1       2.981   4.095  20.738  0.00  0.00    +0.000 N 
ATOM      4  H   UNL     1       3.354   4.706  21.476  0.00  0.00    +0.000 HD
BRANCH   3   6
ATOM      5  C   UNL     1       1.280   2.661  21.821  0.00  0.00    +0.000 C 
ATOM      6  C   UNL     1       2.714   2.772  21.318  0.00  0.00    +0.000 C 
ENDBRANCH   3   6
ENDBRANCH   1   3
BRANCH   2   7
ATOM      7  C   UNL     1       1.809   3.131  18.137  0.00  0.00    +0.000 C 
ATOM      8  O   UNL     1       1.206   2.073  18.284  0.00  0.00    +0.000 OA
BRANCH   7   9
ATOM      9  C   UNL     1       2.973   3.277  17.207  0.00  0.00    +0.000 C 
ATOM     10  C   UNL     1       3.863   4.263  17.416  0.00  0.00    +0.000 C 
BRANCH  10  11
ATOM     11  C   UNL     1       4.993   4.618  16.538  0.00  0.00    +0.000 A 
ATOM     12  C   UNL     1       5.104   3.955  15.311  0.00  0.00    +0.000 A 
ATOM     13  C   UNL     1       6.148   4.244  14.429  0.00  0.00    +0.000 A 
ATOM     14  C   UNL     1       7.097   5.215  14.757  0.00  0.00    +0.000 A 
ATOM     15  C   UNL     1       6.996   5.917  15.961  0.00  0.00    +0.000 A 
ATOM     16  C   UNL     1       5.935   5.608  16.841  0.00  0.00    +0.000 A 
BRANCH  14  17
ATOM     17  O   UNL     1       8.107   5.452  13.866  0.00  0.00    +0.000 OA
ATOM     18  H   UNL     1       8.391   6.378  13.942  0.00  0.00    +0.000 HD
ENDBRANCH  14  17
BRANCH  15  19
ATOM     19  O   UNL     1       7.817   6.907  16.439  0.00  0.00    +0.000 OA
ATOM     20  C   UNL     1       7.529   7.462  17.717  0.00  0.00    +0.000 C 
ENDBRANCH  15  19
ENDBRANCH  10  11
ENDBRANCH   7   9
ENDBRANCH   2   7
BRANCH   1  21
ATOM     21  C   UNL     1       1.465   6.018  20.623  0.00  0.00    +0.000 C 
ATOM     22  C   UNL     1       1.557   7.261  20.115  0.00  0.00    +0.000 C 
BRANCH  22  23
ATOM     23  C   UNL     1       1.059   8.470  20.799  0.00  0.00    +0.000 A 
ATOM     24  C   UNL     1       0.656   8.454  22.139  0.00  0.00    +0.000 A 
ATOM     25  C   UNL     1       0.198   9.618  22.762  0.00  0.00    +0.000 A 
ATOM     26  C   UNL     1       0.153  10.826  22.060  0.00  0.00    +0.000 A 
ATOM     27  C   UNL     1       0.578  10.880  20.730  0.00  0.00    +0.000 A 
ATOM     28  C   UNL     1       1.038   9.697  20.119  0.00  0.00    +0.000 A 
BRANCH  26  29
ATOM     29  O   UNL     1      -0.314  11.932  22.712  0.00  0.00    +0.000 OA
ATOM     30  H   UNL     1       0.104  12.725  22.337  0.00  0.00    +0.000 HD
ENDBRANCH  26  29
BRANCH  27  31
ATOM     31  O   UNL     1       0.626  11.966  19.896  0.00  0.00    +0.000 OA
ATOM     32  C   UNL     1       1.763  12.813  19.965  0.00  0.00    +0.000 C 
ENDBRANCH  27  31
ENDBRANCH  22  23
ENDBRANCH   1  21
TORSDOF 11
ENDMDL
MODEL 7
REMARK VINA RESULT:      -7.3      6.108     10.271
REMARK  Name = 
REMARK  14 active torsions:
REMARK  status: ('A' for Active; 'I' for Inactive)
REMARK    1  A    between atoms: C_1  and  C_2
REMARK    2  A    between atoms: C_2  and  N_3
REMARK    3  A    between atoms: N_3  and  C_4
REMARK    4  A    between atoms: C_4  and  C_19
REMARK    5  A    between atoms: C_5  and  C_6
REMARK    6  A    between atoms: C_6  and  C_8
REMARK    7  A    between atoms: C_9  and  C_10
REMARK    8  A    between atoms: C_13  and  O_14
REMARK    9  A    between atoms: C_15  and  O_16
REMARK   10  A    between atoms: O_16  and  C_17
REMARK   11  A    between atoms: C_20  and  C_21
REMARK   12  A    between atoms: C_24  and  O_25
REMARK   13  A    between atoms: C_26  and  O_27
REMARK   14  A    between atoms: O_27  and  C_28
REMARK                            x       y       z     vdW  Elec       q    Type
REMARK                         _______ _______ _______ _____ _____    ______ ____
ROOT
ATOM      1  C   UNL     1       1.416   9.099  20.332  0.00  0.00    +0.000 C 
ATOM      2  C   UNL     1       1.462   9.973  19.303  0.00  0.00    +0.000 C 
ENDROOT
BRANCH   1   3
ATOM      3  N   UNL     1       1.046   9.414  21.638  0.00  0.00    +0.000 N 
ATOM      4  H   UNL     1       1.309  10.387  21.836  0.00  0.00    +0.000 HD
BRANCH   3   6
ATOM      5  C   UNL     1      -0.750  10.263  23.114  0.00  0.00    +0.000 C 
ATOM      6  C   UNL     1      -0.327   9.195  22.114  0.00  0.00    +0.000 C 
ENDBRANCH   3   6
ENDBRANCH   1   3
BRANCH   2   7
ATOM      7  C   UNL     1       1.090  11.412  19.385  0.00  0.00    +0.000 C 
ATOM      8  O   UNL     1       1.770  12.237  19.984  0.00  0.00    +0.000 OA
BRANCH   7   9
ATOM      9  C   UNL     1      -0.181  11.769  18.678  0.00  0.00    +0.000 C 
ATOM     10  C   UNL     1      -1.340  11.233  19.097  0.00  0.00    +0.000 C 
BRANCH  10  11
ATOM     11  C   UNL     1      -2.656  11.386  18.449  0.00  0.00    +0.000 A 
ATOM     12  C   UNL     1      -3.698  11.938  19.201  0.00  0.00    +0.000 A 
ATOM     13  C   UNL     1      -4.969  12.115  18.649  0.00  0.00    +0.000 A 
ATOM     14  C   UNL     1      -5.217  11.751  17.324  0.00  0.00    +0.000 A 
ATOM     15  C   UNL     1      -4.188  11.225  16.536  0.00  0.00    +0.000 A 
ATOM     16  C   UNL     1      -2.911  11.051  17.114  0.00  0.00    +0.000 A 
BRANCH  14  17
ATOM     17  O   UNL     1      -6.480  11.931  16.834  0.00  0.00    +0.000 OA
ATOM     18  H   UNL     1      -7.103  12.017  17.575  0.00  0.00    +0.000 HD
ENDBRANCH  14  17
BRANCH  15  19
ATOM     19  O   UNL     1      -4.240  10.830  15.223  0.00  0.00    +0.000 OA
ATOM     20  C   UNL     1      -3.092  10.205  14.662  0.00  0.00    +0.000 C 
ENDBRANCH  15  19
ENDBRANCH  10  11
ENDBRANCH   7   9
ENDBRANCH   2   7
BRANCH   1  21
ATOM     21  C   UNL     1       1.869   7.728  20.060  0.00  0.00    +0.000 C 
ATOM     22  C   UNL     1       2.686   7.332  19.068  0.00  0.00    +0.000 C 
BRANCH  22  23
ATOM     23  C   UNL     1       3.046   5.925  18.807  0.00  0.00    +0.000 A 
ATOM     24  C   UNL     1       3.583   5.509  17.584  0.00  0.00    +0.000 A 
ATOM     25  C   UNL     1       3.923   4.170  17.370  0.00  0.00    +0.000 A 
ATOM     26  C   UNL     1       3.748   3.225  18.385  0.00  0.00    +0.000 A 
ATOM     27  C   UNL     1       3.243   3.616  19.627  0.00  0.00    +0.000 A 
ATOM     28  C   UNL     1       2.907   4.970  19.825  0.00  0.00    +0.000 A 
BRANCH  26  29
ATOM     29  O   UNL     1       4.086   1.928  18.120  0.00  0.00    +0.000 OA
ATOM     30  H   UNL     1       3.277   1.394  18.052  0.00  0.00    +0.000 HD
ENDBRANCH  26  29
BRANCH  27  31
ATOM     31  O   UNL     1       3.025   2.843  20.737  0.00  0.00    +0.000 OA
ATOM     32  C   UNL     1       1.929   3.173  21.578  0.00  0.00    +0.000 C 
ENDBRANCH  27  31
ENDBRANCH  22  23
ENDBRANCH   1  21
TORSDOF 11
ENDMDL
MODEL 8
REMARK VINA RESULT:      -7.3      6.168     10.364
REMARK  Name = 
REMARK  14 active torsions:
REMARK  status: ('A' for Active; 'I' for Inactive)
REMARK    1  A    between atoms: C_1  and  C_2
REMARK    2  A    between atoms: C_2  and  N_3
REMARK    3  A    between atoms: N_3  and  C_4
REMARK    4  A    between atoms: C_4  and  C_19
REMARK    5  A    between atoms: C_5  and  C_6
REMARK    6  A    between atoms: C_6  and  C_8
REMARK    7  A    between atoms: C_9  and  C_10
REMARK    8  A    between atoms: C_13  and  O_14
REMARK    9  A    between atoms: C_15  and  O_16
REMARK   10  A    between atoms: O_16  and  C_17
REMARK   11  A    between atoms: C_20  and  C_21
REMARK   12  A    between atoms: C_24  and  O_25
REMARK   13  A    between atoms: C_26  and  O_27
REMARK   14  A    between atoms: O_27  and  C_28
REMARK                            x       y       z     vdW  Elec       q    Type
REMARK                         _______ _______ _______ _____ _____    ______ ____
ROOT
ATOM      1  C   UNL     1       1.379   8.706  20.428  0.00  0.00    +0.000 C 
ATOM      2  C   UNL     1       1.219   9.637  19.461  0.00  0.00    +0.000 C 
ENDROOT
BRANCH   1   3
ATOM      3  N   UNL     1       1.139   8.909  21.786  0.00  0.00    +0.000 N 
ATOM      4  H   UNL     1       1.545   9.809  22.069  0.00  0.00    +0.000 HD
BRANCH   3   6
ATOM      5  C   UNL     1      -0.581  10.054  23.146  0.00  0.00    +0.000 C 
ATOM      6  C   UNL     1      -0.219   8.814  22.340  0.00  0.00    +0.000 C 
ENDBRANCH   3   6
ENDBRANCH   1   3
BRANCH   2   7
ATOM      7  C   UNL     1       0.723  11.023  19.681  0.00  0.00    +0.000 C 
ATOM      8  O   UNL     1       1.473  11.963  19.921  0.00  0.00    +0.000 OA
BRANCH   7   9
ATOM      9  C   UNL     1      -0.764  11.176  19.588  0.00  0.00    +0.000 C 
ATOM     10  C   UNL     1      -1.352  11.172  18.379  0.00  0.00    +0.000 C 
BRANCH  10  11
ATOM     11  C   UNL     1      -2.777  11.424  18.102  0.00  0.00    +0.000 A 
ATOM     12  C   UNL     1      -3.259  11.135  16.821  0.00  0.00    +0.000 A 
ATOM     13  C   UNL     1      -4.600  11.345  16.491  0.00  0.00    +0.000 A 
ATOM     14  C   UNL     1      -5.489  11.841  17.447  0.00  0.00    +0.000 A 
ATOM     15  C   UNL     1      -5.046  12.110  18.745  0.00  0.00    +0.000 A 
ATOM     16  C   UNL     1      -3.686  11.893  19.058  0.00  0.00    +0.000 A 
BRANCH  14  17
ATOM     17  O   UNL     1      -6.788  12.044  17.071  0.00  0.00    +0.000 OA
ATOM     18  H   UNL     1      -7.349  11.359  17.472  0.00  0.00    +0.000 HD
ENDBRANCH  14  17
BRANCH  15  19
ATOM     19  O   UNL     1      -5.772  12.581  19.810  0.00  0.00    +0.000 OA
ATOM     20  C   UNL     1      -5.113  12.726  21.063  0.00  0.00    +0.000 C 
ENDBRANCH  15  19
ENDBRANCH  10  11
ENDBRANCH   7   9
ENDBRANCH   2   7
BRANCH   1  21
ATOM     21  C   UNL     1       1.926   7.407  20.015  0.00  0.00    +0.000 C 
ATOM     22  C   UNL     1       1.697   6.215  20.596  0.00  0.00    +0.000 C 
BRANCH  22  23
ATOM     23  C   UNL     1       2.336   4.954  20.173  0.00  0.00    +0.000 A 
ATOM     24  C   UNL     1       1.787   3.703  20.475  0.00  0.00    +0.000 A 
ATOM     25  C   UNL     1       2.411   2.527  20.052  0.00  0.00    +0.000 A 
ATOM     26  C   UNL     1       3.588   2.581  19.301  0.00  0.00    +0.000 A 
ATOM     27  C   UNL     1       4.144   3.816  18.956  0.00  0.00    +0.000 A 
ATOM     28  C   UNL     1       3.500   4.991  19.390  0.00  0.00    +0.000 A 
BRANCH  26  29
ATOM     29  O   UNL     1       4.164   1.401  18.922  0.00  0.00    +0.000 OA
ATOM     30  H   UNL     1       4.984   1.269  19.426  0.00  0.00    +0.000 HD
ENDBRANCH  26  29
BRANCH  27  31
ATOM     31  O   UNL     1       5.269   4.065  18.215  0.00  0.00    +0.000 OA
ATOM     32  C   UNL     1       5.134   4.162  16.805  0.00  0.00    +0.000 C 
ENDBRANCH  27  31
ENDBRANCH  22  23
ENDBRANCH   1  21
TORSDOF 11
ENDMDL
MODEL 9
REMARK VINA RESULT:      -7.3      6.513      9.562
REMARK  Name = 
REMARK  14 active torsions:
REMARK  status: ('A' for Active; 'I' for Inactive)
REMARK    1  A    between atoms: C_1  and  C_2
REMARK    2  A    between atoms: C_2  and  N_3
REMARK    3  A    between atoms: N_3  and  C_4
REMARK    4  A    between atoms: C_4  and  C_19
REMARK    5  A    between atoms: C_5  and  C_6
REMARK    6  A    between atoms: C_6  and  C_8
REMARK    7  A    between atoms: C_9  and  C_10
REMARK    8  A    between atoms: C_13  and  O_14
REMARK    9  A    between atoms: C_15  and  O_16
REMARK   10  A    between atoms: O_16  and  C_17
REMARK   11  A    between atoms: C_20  and  C_21
REMARK   12  A    between atoms: C_24  and  O_25
REMARK   13  A    between atoms: C_26  and  O_27
REMARK   14  A    between atoms: O_27  and  C_28
REMARK                            x       y       z     vdW  Elec       q    Type
REMARK                         _______ _______ _______ _____ _____    ______ ____
ROOT
ATOM      1  C   UNL     1      -0.535  10.464  19.402  0.00  0.00    +0.000 C 
ATOM      2  C   UNL     1       0.814  10.510  19.346  0.00  0.00    +0.000 C 
ENDROOT
BRANCH   1   3
ATOM      3  N   UNL     1      -1.352   9.746  18.531  0.00  0.00    +0.000 N 
ATOM      4  H   UNL     1      -2.146   9.360  19.056  0.00  0.00    +0.000 HD
BRANCH   3   6
ATOM      5  C   UNL     1      -3.374  10.224  17.188  0.00  0.00    +0.000 C 
ATOM      6  C   UNL     1      -1.860  10.351  17.292  0.00  0.00    +0.000 C 
ENDBRANCH   3   6
ENDBRANCH   1   3
BRANCH   2   7
ATOM      7  C   UNL     1       1.656   9.770  18.366  0.00  0.00    +0.000 C 
ATOM      8  O   UNL     1       1.986  10.248  17.286  0.00  0.00    +0.000 OA
BRANCH   7   9
ATOM      9  C   UNL     1       2.064   8.398  18.805  0.00  0.00    +0.000 C 
ATOM     10  C   UNL     1       2.861   7.663  18.010  0.00  0.00    +0.000 C 
BRANCH  10  11
ATOM     11  C   UNL     1       3.260   6.261  18.234  0.00  0.00    +0.000 A 
ATOM     12  C   UNL     1       2.267   5.278  18.176  0.00  0.00    +0.000 A 
ATOM     13  C   UNL     1       2.576   3.930  18.374  0.00  0.00    +0.000 A 
ATOM     14  C   UNL     1       3.893   3.540  18.624  0.00  0.00    +0.000 A 
ATOM     15  C   UNL     1       4.913   4.495  18.656  0.00  0.00    +0.000 A 
ATOM     16  C   UNL     1       4.580   5.853  18.456  0.00  0.00    +0.000 A 
BRANCH  14  17
ATOM     17  O   UNL     1       4.142   2.210  18.825  0.00  0.00    +0.000 OA
ATOM     18  H   UNL     1       4.974   2.110  19.316  0.00  0.00    +0.000 HD
ENDBRANCH  14  17
BRANCH  15  19
ATOM     19  O   UNL     1       6.255   4.298  18.868  0.00  0.00    +0.000 OA
ATOM     20  C   UNL     1       7.160   4.651  17.828  0.00  0.00    +0.000 C 
ENDBRANCH  15  19
ENDBRANCH  10  11
ENDBRANCH   7   9
ENDBRANCH   2   7
BRANCH   1  21
ATOM     21  C   UNL     1      -1.187  11.304  20.416  0.00  0.00    +0.000 C 
ATOM     22  C   UNL     1      -0.682  11.661  21.611  0.00  0.00    +0.000 C 
BRANCH  22  23
ATOM     23  C   UNL     1      -1.421  12.451  22.616  0.00  0.00    +0.000 A 
ATOM     24  C   UNL     1      -0.941  13.672  23.101  0.00  0.00    +0.000 A 
ATOM     25  C   UNL     1      -1.668  14.402  24.046  0.00  0.00    +0.000 A 
ATOM     26  C   UNL     1      -2.900  13.931  24.508  0.00  0.00    +0.000 A 
ATOM     27  C   UNL     1      -3.420  12.730  24.019  0.00  0.00    +0.000 A 
ATOM     28  C   UNL     1      -2.674  12.009  23.066  0.00  0.00    +0.000 A 
BRANCH  26  29
ATOM     29  O   UNL     1      -3.565  14.678  25.440  0.00  0.00    +0.000 OA
ATOM     30  H   UNL     1      -3.788  14.116  26.200  0.00  0.00    +0.000 HD
ENDBRANCH  26  29
BRANCH  27  31
ATOM     31  O   UNL     1      -4.609  12.127  24.336  0.00  0.00    +0.000 OA
ATOM     32  C   UNL     1      -5.809  12.725  23.867  0.00  0.00    +0.000 C 
ENDBRANCH  27  31
ENDBRANCH  22  23
ENDBRANCH   1  21
TORSDOF 11
ENDMDL
