MODEL 1
REMARK VINA RESULT:      -7.7      0.000      0.000
REMARK  Name = 
REMARK  9 active torsions:
REMARK  status: ('A' for Active; 'I' for Inactive)
REMARK    1  A    between atoms: C_1  and  C_2
REMARK    2  A    between atoms: C_2  and  N_3
REMARK    3  A    between atoms: N_3  and  C_4
REMARK    4  A    between atoms: C_4  and  C_5
REMARK    5  A    between atoms: N_8  and  C_9
REMARK    6  A    between atoms: N_12  and  C_13
REMARK    7  A    between atoms: C_13  and  C_14
REMARK    8  A    between atoms: C_13  and  C_22
REMARK    9  A    between atoms: C_17  and  C_18
REMARK                            x       y       z     vdW  Elec       q    Type
REMARK                         _______ _______ _______ _____ _____    ______ ____
ROOT
ATOM      1  C   UNL     1       1.009   9.929  19.449  0.00  0.00    +0.000 C 
ATOM      2  C   UNL     1       2.031   9.746  18.325  0.00  0.00    +0.000 C 
ATOM      3  C   UNL     1       2.047   8.321  17.778  0.00  0.00    +0.000 C 
ATOM      4  N   UNL     1       2.287   7.320  18.829  0.00  0.00    +0.000 NA
ATOM      5  C   UNL     1       1.285   7.441  19.905  0.00  0.00    +0.000 C 
ATOM      6  C   UNL     1       1.205   8.844  20.510  0.00  0.00    +0.000 C 
ENDROOT
BRANCH   1  10
ATOM      7  N   UNL     1      -2.452  10.995  18.579  0.00  0.00    +0.000 N 
ATOM      8  C   UNL     1      -1.183  11.050  19.167  0.00  0.00    +0.000 C 
ATOM      9  O   UNL     1      -0.796  12.029  19.809  0.00  0.00    +0.000 OA
ATOM     10  N   UNL     1      -0.366   9.972  18.937  0.00  0.00    +0.000 N 
ATOM     11  H   UNL     1      -0.799   9.100  18.690  0.00  0.00    +0.000 HD
BRANCH   7  13
ATOM     12  C   UNL     1      -4.676  12.003  19.131  0.00  0.00    +0.000 C 
ATOM     13  C   UNL     1      -3.254  12.225  18.636  0.00  0.00    +0.000 C 
ENDBRANCH   7  13
BRANCH   7  14
ATOM     14  C   UNL     1      -2.932   9.826  17.828  0.00  0.00    +0.000 C 
ATOM     15  C   UNL     1      -3.152   9.961  16.329  0.00  0.00    +0.000 C 
ENDBRANCH   7  14
ENDBRANCH   1  10
BRANCH   4  16
ATOM     16  C   UNL     1       2.397   5.914  18.298  0.00  0.00    +0.000 C 
BRANCH  16  17
ATOM     17  C   UNL     1       3.707   5.708  17.506  0.00  0.00    +0.000 A 
ATOM     18  C   UNL     1       4.593   6.772  17.262  0.00  0.00    +0.000 A 
ATOM     19  C   UNL     1       5.719   6.604  16.462  0.00  0.00    +0.000 A 
ATOM     20  C   UNL     1       5.961   5.369  15.860  0.00  0.00    +0.000 A 
ATOM     21  C   UNL     1       5.093   4.295  16.088  0.00  0.00    +0.000 A 
ATOM     22  C   UNL     1       3.986   4.460  16.924  0.00  0.00    +0.000 A 
BRANCH  20  23
ATOM     23  C   UNL     1       7.082   5.212  14.984  0.00  0.00    +0.000 C 
ATOM     24  N   UNL     1       8.000   5.093  14.288  0.00  0.00    +0.000 NA
ENDBRANCH  20  23
ENDBRANCH  16  17
BRANCH  16  25
ATOM     25  C   UNL     1       2.124   4.827  19.356  0.00  0.00    +0.000 A 
ATOM     26  C   UNL     1       1.223   3.776  19.141  0.00  0.00    +0.000 A 
ATOM     27  C   UNL     1       0.925   2.881  20.170  0.00  0.00    +0.000 A 
ATOM     28  C   UNL     1       1.566   3.036  21.386  0.00  0.00    +0.000 A 
ATOM     29  N   UNL     1       2.514   3.965  21.609  0.00  0.00    +0.000 NA
ATOM     30  C   UNL     1       2.789   4.809  20.586  0.00  0.00    +0.000 A 
ENDBRANCH  16  25
ENDBRANCH   4  16
TORSDOF 7
ENDMDL
MODEL 2
REMARK VINA RESULT:      -7.3      3.252      8.078
REMARK  Name = 
REMARK  9 active torsions:
REMARK  status: ('A' for Active; 'I' for Inactive)
REMARK    1  A    between atoms: C_1  and  C_2
REMARK    2  A    between atoms: C_2  and  N_3
REMARK    3  A    between atoms: N_3  and  C_4
REMARK    4  A    between atoms: C_4  and  C_5
REMARK    5  A    between atoms: N_8  and  C_9
REMARK    6  A    between atoms: N_12  and  C_13
REMARK    7  A    between atoms: C_13  and  C_14
REMARK    8  A    between atoms: C_13  and  C_22
REMARK    9  A    between atoms: C_17  and  C_18
REMARK                            x       y       z     vdW  Elec       q    Type
REMARK                         _______ _______ _______ _____ _____    ______ ____
ROOT
ATOM      1  C   UNL     1       6.926   5.667  16.655  0.00  0.00    +0.000 C 
ATOM      2  C   UNL     1       6.894   4.768  17.892  0.00  0.00    +0.000 C 
ATOM      3  C   UNL     1       5.484   4.593  18.450  0.00  0.00    +0.000 C 
ATOM      4  N   UNL     1       4.841   5.880  18.761  0.00  0.00    +0.000 NA
ATOM      5  C   UNL     1       4.814   6.751  17.570  0.00  0.00    +0.000 C 
ATOM      6  C   UNL     1       6.193   6.978  16.947  0.00  0.00    +0.000 C 
ENDROOT
BRANCH   1  10
ATOM      7  N   UNL     1       6.501   4.264  13.231  0.00  0.00    +0.000 N 
ATOM      8  C   UNL     1       7.077   5.000  14.272  0.00  0.00    +0.000 C 
ATOM      9  O   UNL     1       8.155   5.586  14.148  0.00  0.00    +0.000 OA
ATOM     10  N   UNL     1       6.402   4.983  15.467  0.00  0.00    +0.000 N 
ATOM     11  H   UNL     1       5.419   4.771  15.447  0.00  0.00    +0.000 HD
BRANCH   7  13
ATOM     12  C   UNL     1       7.332   2.671  11.488  0.00  0.00    +0.000 C 
ATOM     13  C   UNL     1       7.315   4.097  12.019  0.00  0.00    +0.000 C 
ENDBRANCH   7  13
BRANCH   7  14
ATOM     14  C   UNL     1       5.208   3.578  13.361  0.00  0.00    +0.000 C 
ATOM     15  C   UNL     1       4.329   3.434  12.128  0.00  0.00    +0.000 C 
ENDBRANCH   7  14
ENDBRANCH   1  10
BRANCH   4  16
ATOM     16  C   UNL     1       3.484   5.729  19.397  0.00  0.00    +0.000 C 
BRANCH  16  17
ATOM     17  C   UNL     1       2.620   6.993  19.194  0.00  0.00    +0.000 A 
ATOM     18  C   UNL     1       2.532   7.631  17.943  0.00  0.00    +0.000 A 
ATOM     19  C   UNL     1       1.835   8.825  17.791  0.00  0.00    +0.000 A 
ATOM     20  C   UNL     1       1.239   9.425  18.900  0.00  0.00    +0.000 A 
ATOM     21  C   UNL     1       1.314   8.809  20.155  0.00  0.00    +0.000 A 
ATOM     22  C   UNL     1       1.980   7.590  20.294  0.00  0.00    +0.000 A 
BRANCH  20  23
ATOM     23  C   UNL     1       0.578  10.686  18.758  0.00  0.00    +0.000 C 
ATOM     24  N   UNL     1       0.057  11.716  18.649  0.00  0.00    +0.000 NA
ENDBRANCH  20  23
ENDBRANCH  16  17
BRANCH  16  25
ATOM     25  C   UNL     1       2.770   4.414  19.032  0.00  0.00    +0.000 A 
ATOM     26  C   UNL     1       2.435   3.447  19.989  0.00  0.00    +0.000 A 
ATOM     27  C   UNL     1       1.891   2.223  19.595  0.00  0.00    +0.000 A 
ATOM     28  C   UNL     1       1.658   2.006  18.249  0.00  0.00    +0.000 A 
ATOM     29  N   UNL     1       1.865   2.941  17.303  0.00  0.00    +0.000 NA
ATOM     30  C   UNL     1       2.381   4.122  17.720  0.00  0.00    +0.000 A 
ENDBRANCH  16  25
ENDBRANCH   4  16
TORSDOF 7
ENDMDL
MODEL 3
REMARK VINA RESULT:      -6.8      0.657      1.328
REMARK  Name = 
REMARK  9 active torsions:
REMARK  status: ('A' for Active; 'I' for Inactive)
REMARK    1  A    between atoms: C_1  and  C_2
REMARK    2  A    between atoms: C_2  and  N_3
REMARK    3  A    between atoms: N_3  and  C_4
REMARK    4  A    between atoms: C_4  and  C_5
REMARK    5  A    between atoms: N_8  and  C_9
REMARK    6  A    between atoms: N_12  and  C_13
REMARK    7  A    between atoms: C_13  and  C_14
REMARK    8  A    between atoms: C_13  and  C_22
REMARK    9  A    between atoms: C_17  and  C_18
REMARK                            x       y       z     vdW  Elec       q    Type
REMARK                         _______ _______ _______ _____ _____    ______ ____
ROOT
ATOM      1  C   UNL     1       0.932  10.025  19.673  0.00  0.00    +0.000 C 
ATOM      2  C   UNL     1       1.927   9.800  18.533  0.00  0.00    +0.000 C 
ATOM      3  C   UNL     1       1.870   8.378  17.981  0.00  0.00    +0.000 C 
ATOM      4  N   UNL     1       2.082   7.363  19.026  0.00  0.00    +0.000 NA
ATOM      5  C   UNL     1       1.102   7.526  20.118  0.00  0.00    +0.000 C 
ATOM      6  C   UNL     1       1.095   8.929  20.728  0.00  0.00    +0.000 C 
ENDROOT
BRANCH   1  10
ATOM      7  N   UNL     1      -2.509  11.227  18.907  0.00  0.00    +0.000 N 
ATOM      8  C   UNL     1      -1.233  11.218  19.479  0.00  0.00    +0.000 C 
ATOM      9  O   UNL     1      -0.811  12.151  20.165  0.00  0.00    +0.000 OA
ATOM     10  N   UNL     1      -0.448  10.132  19.183  0.00  0.00    +0.000 N 
ATOM     11  H   UNL     1      -0.908   9.285  18.897  0.00  0.00    +0.000 HD
BRANCH   7  13
ATOM     12  C   UNL     1      -4.147  12.525  20.285  0.00  0.00    +0.000 C 
ATOM     13  C   UNL     1      -3.277  12.474  19.038  0.00  0.00    +0.000 C 
ENDBRANCH   7  13
BRANCH   7  14
ATOM     14  C   UNL     1      -3.030  10.112  18.103  0.00  0.00    +0.000 C 
ATOM     15  C   UNL     1      -2.955  10.207  16.587  0.00  0.00    +0.000 C 
ENDBRANCH   7  14
ENDBRANCH   1  10
BRANCH   4  16
ATOM     16  C   UNL     1       2.120   5.956  18.490  0.00  0.00    +0.000 C 
BRANCH  16  17
ATOM     17  C   UNL     1       3.324   5.742  17.546  0.00  0.00    +0.000 A 
ATOM     18  C   UNL     1       3.662   4.464  17.064  0.00  0.00    +0.000 A 
ATOM     19  C   UNL     1       4.805   4.262  16.298  0.00  0.00    +0.000 A 
ATOM     20  C   UNL     1       5.655   5.335  16.027  0.00  0.00    +0.000 A 
ATOM     21  C   UNL     1       5.339   6.615  16.496  0.00  0.00    +0.000 A 
ATOM     22  C   UNL     1       4.169   6.819  17.231  0.00  0.00    +0.000 A 
BRANCH  20  23
ATOM     23  C   UNL     1       6.865   5.117  15.295  0.00  0.00    +0.000 C 
ATOM     24  N   UNL     1       7.844   4.923  14.705  0.00  0.00    +0.000 NA
ENDBRANCH  20  23
ENDBRANCH  16  17
BRANCH  16  25
ATOM     25  C   UNL     1       1.971   4.873  19.575  0.00  0.00    +0.000 A 
ATOM     26  C   UNL     1       2.732   4.875  20.752  0.00  0.00    +0.000 A 
ATOM     27  C   UNL     1       2.642   3.813  21.652  0.00  0.00    +0.000 A 
ATOM     28  C   UNL     1       1.761   2.784  21.373  0.00  0.00    +0.000 A 
ATOM     29  N   UNL     1       0.934   2.786  20.311  0.00  0.00    +0.000 NA
ATOM     30  C   UNL     1       1.037   3.837  19.464  0.00  0.00    +0.000 A 
ENDBRANCH  16  25
ENDBRANCH   4  16
TORSDOF 7
ENDMDL
MODEL 4
REMARK VINA RESULT:      -6.5      2.986      6.294
REMARK  Name = 
REMARK  9 active torsions:
REMARK  status: ('A' for Active; 'I' for Inactive)
REMARK    1  A    between atoms: C_1  and  C_2
REMARK    2  A    between atoms: C_2  and  N_3
REMARK    3  A    between atoms: N_3  and  C_4
REMARK    4  A    between atoms: C_4  and  C_5
REMARK    5  A    between atoms: N_8  and  C_9
REMARK    6  A    between atoms: N_12  and  C_13
REMARK    7  A    between atoms: C_13  and  C_14
REMARK    8  A    between atoms: C_13  and  C_22
REMARK    9  A    between atoms: C_17  and  C_18
REMARK                            x       y       z     vdW  Elec       q    Type
REMARK                         _______ _______ _______ _____ _____    ______ ____
ROOT
ATOM      1  C   UNL     1      -1.425  12.761  23.050  0.00  0.00    +0.000 C 
ATOM      2  C   UNL     1      -0.329  13.461  22.245  0.00  0.00    +0.000 C 
ATOM      3  C   UNL     1      -0.281  12.991  20.793  0.00  0.00    +0.000 C 
ATOM      4  N   UNL     1      -0.117  11.533  20.683  0.00  0.00    +0.000 NA
ATOM      5  C   UNL     1      -1.191  10.829  21.410  0.00  0.00    +0.000 C 
ATOM      6  C   UNL     1      -1.307  11.245  22.879  0.00  0.00    +0.000 C 
ENDROOT
BRANCH   1  10
ATOM      7  N   UNL     1      -5.092  13.409  22.977  0.00  0.00    +0.000 N 
ATOM      8  C   UNL     1      -3.885  12.813  23.357  0.00  0.00    +0.000 C 
ATOM      9  O   UNL     1      -3.818  11.973  24.257  0.00  0.00    +0.000 OA
ATOM     10  N   UNL     1      -2.761  13.262  22.708  0.00  0.00    +0.000 N 
ATOM     11  H   UNL     1      -2.881  13.694  21.808  0.00  0.00    +0.000 HD
BRANCH   7  13
ATOM     12  C   UNL     1      -7.391  12.420  23.036  0.00  0.00    +0.000 C 
ATOM     13  C   UNL     1      -6.265  13.095  23.805  0.00  0.00    +0.000 C 
ENDBRANCH   7  13
BRANCH   7  14
ATOM     14  C   UNL     1      -5.187  14.396  21.893  0.00  0.00    +0.000 C 
ATOM     15  C   UNL     1      -5.324  13.899  20.462  0.00  0.00    +0.000 C 
ENDBRANCH   7  14
ENDBRANCH   1  10
BRANCH   4  16
ATOM     16  C   UNL     1       0.023  11.056  19.260  0.00  0.00    +0.000 C 
BRANCH  16  17
ATOM     17  C   UNL     1       0.953   9.827  19.164  0.00  0.00    +0.000 A 
ATOM     18  C   UNL     1       1.590   9.480  17.959  0.00  0.00    +0.000 A 
ATOM     19  C   UNL     1       2.345   8.316  17.851  0.00  0.00    +0.000 A 
ATOM     20  C   UNL     1       2.448   7.455  18.944  0.00  0.00    +0.000 A 
ATOM     21  C   UNL     1       1.822   7.779  20.154  0.00  0.00    +0.000 A 
ATOM     22  C   UNL     1       1.100   8.969  20.267  0.00  0.00    +0.000 A 
BRANCH  20  23
ATOM     23  C   UNL     1       3.169   6.225  18.816  0.00  0.00    +0.000 C 
ATOM     24  N   UNL     1       3.740   5.222  18.722  0.00  0.00    +0.000 NA
ENDBRANCH  20  23
ENDBRANCH  16  17
BRANCH  16  25
ATOM     25  C   UNL     1      -1.321  10.887  18.526  0.00  0.00    +0.000 A 
ATOM     26  C   UNL     1      -2.072  11.978  18.067  0.00  0.00    +0.000 A 
ATOM     27  C   UNL     1      -3.336  11.779  17.509  0.00  0.00    +0.000 A 
ATOM     28  C   UNL     1      -3.807  10.485  17.386  0.00  0.00    +0.000 A 
ATOM     29  N   UNL     1      -3.082   9.399  17.715  0.00  0.00    +0.000 NA
ATOM     30  C   UNL     1      -1.855   9.626  18.242  0.00  0.00    +0.000 A 
ENDBRANCH  16  25
ENDBRANCH   4  16
TORSDOF 7
ENDMDL
MODEL 5
REMARK VINA RESULT:      -6.5      0.859      1.105
REMARK  Name = 
REMARK  9 active torsions:
REMARK  status: ('A' for Active; 'I' for Inactive)
REMARK    1  A    between atoms: C_1  and  C_2
REMARK    2  A    between atoms: C_2  and  N_3
REMARK    3  A    between atoms: N_3  and  C_4
REMARK    4  A    between atoms: C_4  and  C_5
REMARK    5  A    between atoms: N_8  and  C_9
REMARK    6  A    between atoms: N_12  and  C_13
REMARK    7  A    between atoms: C_13  and  C_14
REMARK    8  A    between atoms: C_13  and  C_22
REMARK    9  A    between atoms: C_17  and  C_18
REMARK                            x       y       z     vdW  Elec       q    Type
REMARK                         _______ _______ _______ _____ _____    ______ ____
ROOT
ATOM      1  C   UNL     1       1.008   9.640  19.678  0.00  0.00    +0.000 C 
ATOM      2  C   UNL     1       2.028   9.487  18.549  0.00  0.00    +0.000 C 
ATOM      3  C   UNL     1       2.063   8.070  17.982  0.00  0.00    +0.000 C 
ATOM      4  N   UNL     1       2.320   7.058  19.019  0.00  0.00    +0.000 NA
ATOM      5  C   UNL     1       1.319   7.150  20.099  0.00  0.00    +0.000 C 
ATOM      6  C   UNL     1       1.221   8.544  20.724  0.00  0.00    +0.000 C 
ENDROOT
BRANCH   1  10
ATOM      7  N   UNL     1      -2.143  10.602  17.940  0.00  0.00    +0.000 N 
ATOM      8  C   UNL     1      -0.830  10.717  18.409  0.00  0.00    +0.000 C 
ATOM      9  O   UNL     1      -0.106  11.670  18.116  0.00  0.00    +0.000 OA
ATOM     10  N   UNL     1      -0.369   9.671  19.171  0.00  0.00    +0.000 N 
ATOM     11  H   UNL     1      -1.049   9.092  19.631  0.00  0.00    +0.000 HD
BRANCH   7  13
ATOM     12  C   UNL     1      -2.849  11.020  15.575  0.00  0.00    +0.000 C 
ATOM     13  C   UNL     1      -2.576  11.602  16.954  0.00  0.00    +0.000 C 
ENDBRANCH   7  13
BRANCH   7  14
ATOM     14  C   UNL     1      -3.022   9.480  18.299  0.00  0.00    +0.000 C 
ATOM     15  C   UNL     1      -4.527   9.657  18.160  0.00  0.00    +0.000 C 
ENDBRANCH   7  14
ENDBRANCH   1  10
BRANCH   4  16
ATOM     16  C   UNL     1       2.447   5.661  18.469  0.00  0.00    +0.000 C 
BRANCH  16  17
ATOM     17  C   UNL     1       3.726   5.502  17.617  0.00  0.00    +0.000 A 
ATOM     18  C   UNL     1       4.678   6.534  17.520  0.00  0.00    +0.000 A 
ATOM     19  C   UNL     1       5.775   6.425  16.672  0.00  0.00    +0.000 A 
ATOM     20  C   UNL     1       5.924   5.290  15.875  0.00  0.00    +0.000 A 
ATOM     21  C   UNL     1       4.990   4.250  15.954  0.00  0.00    +0.000 A 
ATOM     22  C   UNL     1       3.912   4.348  16.837  0.00  0.00    +0.000 A 
BRANCH  20  23
ATOM     23  C   UNL     1       7.016   5.204  14.955  0.00  0.00    +0.000 C 
ATOM     24  N   UNL     1       7.901   5.117  14.211  0.00  0.00    +0.000 NA
ENDBRANCH  20  23
ENDBRANCH  16  17
BRANCH  16  25
ATOM     25  C   UNL     1       2.254   4.557  19.525  0.00  0.00    +0.000 A 
ATOM     26  C   UNL     1       1.036   3.887  19.701  0.00  0.00    +0.000 A 
ATOM     27  C   UNL     1       0.877   2.974  20.745  0.00  0.00    +0.000 A 
ATOM     28  C   UNL     1       1.957   2.723  21.572  0.00  0.00    +0.000 A 
ATOM     29  N   UNL     1       3.176   3.261  21.382  0.00  0.00    +0.000 NA
ATOM     30  C   UNL     1       3.300   4.132  20.352  0.00  0.00    +0.000 A 
ENDBRANCH  16  25
ENDBRANCH   4  16
TORSDOF 7
ENDMDL
MODEL 6
REMARK VINA RESULT:      -6.5      3.618      7.431
REMARK  Name = 
REMARK  9 active torsions:
REMARK  status: ('A' for Active; 'I' for Inactive)
REMARK    1  A    between atoms: C_1  and  C_2
REMARK    2  A    between atoms: C_2  and  N_3
REMARK    3  A    between atoms: N_3  and  C_4
REMARK    4  A    between atoms: C_4  and  C_5
REMARK    5  A    between atoms: N_8  and  C_9
REMARK    6  A    between atoms: N_12  and  C_13
REMARK    7  A    between atoms: C_13  and  C_14
REMARK    8  A    between atoms: C_13  and  C_22
REMARK    9  A    between atoms: C_17  and  C_18
REMARK                            x       y       z     vdW  Elec       q    Type
REMARK                         _______ _______ _______ _____ _____    ______ ____
ROOT
ATOM      1  C   UNL     1       6.878   6.714  16.947  0.00  0.00    +0.000 C 
ATOM      2  C   UNL     1       5.517   6.610  16.256  0.00  0.00    +0.000 C 
ATOM      3  C   UNL     1       4.354   6.782  17.230  0.00  0.00    +0.000 C 
ATOM      4  N   UNL     1       4.413   5.826  18.347  0.00  0.00    +0.000 NA
ATOM      5  C   UNL     1       5.698   5.938  19.064  0.00  0.00    +0.000 C 
ATOM      6  C   UNL     1       6.920   5.777  18.156  0.00  0.00    +0.000 C 
ENDROOT
BRANCH   1  10
ATOM      7  N   UNL     1       8.420   9.752  18.453  0.00  0.00    +0.000 N 
ATOM      8  C   UNL     1       8.157   8.393  18.247  0.00  0.00    +0.000 C 
ATOM      9  O   UNL     1       8.774   7.505  18.838  0.00  0.00    +0.000 OA
ATOM     10  N   UNL     1       7.208   8.100  17.299  0.00  0.00    +0.000 N 
ATOM     11  H   UNL     1       6.534   8.811  17.076  0.00  0.00    +0.000 HD
BRANCH   7  13
ATOM     12  C   UNL     1       9.207  10.818  20.577  0.00  0.00    +0.000 C 
ATOM     13  C   UNL     1       9.576  10.073  19.302  0.00  0.00    +0.000 C 
ENDBRANCH   7  13
BRANCH   7  14
ATOM     14  C   UNL     1       7.678  10.819  17.769  0.00  0.00    +0.000 C 
ATOM     15  C   UNL     1       8.364  12.159  17.545  0.00  0.00    +0.000 C 
ENDBRANCH   7  14
ENDBRANCH   1  10
BRANCH   4  16
ATOM     16  C   UNL     1       3.227   5.917  19.272  0.00  0.00    +0.000 C 
BRANCH  16  17
ATOM     17  C   UNL     1       2.515   7.282  19.148  0.00  0.00    +0.000 A 
ATOM     18  C   UNL     1       1.922   7.906  20.260  0.00  0.00    +0.000 A 
ATOM     19  C   UNL     1       1.195   9.084  20.123  0.00  0.00    +0.000 A 
ATOM     20  C   UNL     1       1.019   9.645  18.858  0.00  0.00    +0.000 A 
ATOM     21  C   UNL     1       1.600   9.042  17.737  0.00  0.00    +0.000 A 
ATOM     22  C   UNL     1       2.362   7.882  17.886  0.00  0.00    +0.000 A 
BRANCH  20  23
ATOM     23  C   UNL     1       0.217  10.821  18.707  0.00  0.00    +0.000 C 
ATOM     24  N   UNL     1      -0.419  11.782  18.592  0.00  0.00    +0.000 NA
ENDBRANCH  20  23
ENDBRANCH  16  17
BRANCH  16  25
ATOM     25  C   UNL     1       2.280   4.704  19.190  0.00  0.00    +0.000 A 
ATOM     26  C   UNL     1       1.485   4.294  20.268  0.00  0.00    +0.000 A 
ATOM     27  C   UNL     1       0.729   3.124  20.182  0.00  0.00    +0.000 A 
ATOM     28  C   UNL     1       0.756   2.405  19.001  0.00  0.00    +0.000 A 
ATOM     29  N   UNL     1       1.420   2.812  17.903  0.00  0.00    +0.000 NA
ATOM     30  C   UNL     1       2.133   3.958  18.015  0.00  0.00    +0.000 A 
ENDBRANCH  16  25
ENDBRANCH   4  16
TORSDOF 7
ENDMDL
MODEL 7
REMARK VINA RESULT:      -6.4      3.408      8.543
REMARK  Name = 
REMARK  9 active torsions:
REMARK  status: ('A' for Active; 'I' for Inactive)
REMARK    1  A    between atoms: C_1  and  C_2
REMARK    2  A    between atoms: C_2  and  N_3
REMARK    3  A    between atoms: N_3  and  C_4
REMARK    4  A    between atoms: C_4  and  C_5
REMARK    5  A    between atoms: N_8  and  C_9
REMARK    6  A    between atoms: N_12  and  C_13
REMARK    7  A    between atoms: C_13  and  C_14
REMARK    8  A    between atoms: C_13  and  C_22
REMARK    9  A    between atoms: C_17  and  C_18
REMARK                            x       y       z     vdW  Elec       q    Type
REMARK                         _______ _______ _______ _____ _____    ______ ____
ROOT
ATOM      1  C   UNL     1       6.413   5.330  16.206  0.00  0.00    +0.000 C 
ATOM      2  C   UNL     1       5.951   4.561  17.445  0.00  0.00    +0.000 C 
ATOM      3  C   UNL     1       4.455   4.719  17.706  0.00  0.00    +0.000 C 
ATOM      4  N   UNL     1       4.054   6.129  17.825  0.00  0.00    +0.000 NA
ATOM      5  C   UNL     1       4.444   6.888  16.621  0.00  0.00    +0.000 C 
ATOM      6  C   UNL     1       5.934   6.781  16.288  0.00  0.00    +0.000 C 
ENDROOT
BRANCH   1  10
ATOM      7  N   UNL     1       6.310   3.951  12.748  0.00  0.00    +0.000 N 
ATOM      8  C   UNL     1       6.798   4.661  13.851  0.00  0.00    +0.000 C 
ATOM      9  O   UNL     1       7.905   5.202  13.849  0.00  0.00    +0.000 OA
ATOM     10  N   UNL     1       5.995   4.670  14.964  0.00  0.00    +0.000 N 
ATOM     11  H   UNL     1       5.013   4.499  14.835  0.00  0.00    +0.000 HD
BRANCH   7  13
ATOM     12  C   UNL     1       7.492   2.288  11.297  0.00  0.00    +0.000 C 
ATOM     13  C   UNL     1       7.245   3.752  11.632  0.00  0.00    +0.000 C 
ENDBRANCH   7  13
BRANCH   7  14
ATOM     14  C   UNL     1       4.984   3.319  12.731  0.00  0.00    +0.000 C 
ATOM     15  C   UNL     1       4.176   3.348  11.442  0.00  0.00    +0.000 C 
ENDBRANCH   7  14
ENDBRANCH   1  10
BRANCH   4  16
ATOM     16  C   UNL     1       2.598   6.307  18.173  0.00  0.00    +0.000 C 
BRANCH  16  17
ATOM     17  C   UNL     1       2.146   5.296  19.249  0.00  0.00    +0.000 A 
ATOM     18  C   UNL     1       2.652   5.343  20.561  0.00  0.00    +0.000 A 
ATOM     19  C   UNL     1       2.319   4.369  21.497  0.00  0.00    +0.000 A 
ATOM     20  C   UNL     1       1.496   3.306  21.127  0.00  0.00    +0.000 A 
ATOM     21  C   UNL     1       0.980   3.238  19.828  0.00  0.00    +0.000 A 
ATOM     22  C   UNL     1       1.286   4.240  18.904  0.00  0.00    +0.000 A 
BRANCH  20  23
ATOM     23  C   UNL     1       1.205   2.269  22.070  0.00  0.00    +0.000 C 
ATOM     24  N   UNL     1       0.970   1.442  22.846  0.00  0.00    +0.000 NA
ENDBRANCH  20  23
ENDBRANCH  16  17
BRANCH  16  25
ATOM     25  C   UNL     1       2.204   7.765  18.474  0.00  0.00    +0.000 A 
ATOM     26  C   UNL     1       1.647   8.158  19.698  0.00  0.00    +0.000 A 
ATOM     27  C   UNL     1       1.202   9.469  19.882  0.00  0.00    +0.000 A 
ATOM     28  C   UNL     1       1.360  10.371  18.846  0.00  0.00    +0.000 A 
ATOM     29  N   UNL     1       1.983  10.070  17.691  0.00  0.00    +0.000 NA
ATOM     30  C   UNL     1       2.414   8.794  17.549  0.00  0.00    +0.000 A 
ENDBRANCH  16  25
ENDBRANCH   4  16
TORSDOF 7
ENDMDL
MODEL 8
REMARK VINA RESULT:      -6.3      3.387      6.663
REMARK  Name = 
REMARK  9 active torsions:
REMARK  status: ('A' for Active; 'I' for Inactive)
REMARK    1  A    between atoms: C_1  and  C_2
REMARK    2  A    between atoms: C_2  and  N_3
REMARK    3  A    between atoms: N_3  and  C_4
REMARK    4  A    between atoms: C_4  and  C_5
REMARK    5  A    between atoms: N_8  and  C_9
REMARK    6  A    between atoms: N_12  and  C_13
REMARK    7  A    between atoms: C_13  and  C_14
REMARK    8  A    between atoms: C_13  and  C_22
REMARK    9  A    between atoms: C_17  and  C_18
REMARK                            x       y       z     vdW  Elec       q    Type
REMARK                         _______ _______ _______ _____ _____    ______ ____
ROOT
ATOM      1  C   UNL     1      -1.454  13.138  23.091  0.00  0.00    +0.000 C 
ATOM      2  C   UNL     1      -0.446  13.832  22.173  0.00  0.00    +0.000 C 
ATOM      3  C   UNL     1      -0.488  13.292  20.746  0.00  0.00    +0.000 C 
ATOM      4  N   UNL     1      -0.282  11.836  20.691  0.00  0.00    +0.000 NA
ATOM      5  C   UNL     1      -1.274  11.136  21.530  0.00  0.00    +0.000 C 
ATOM      6  C   UNL     1      -1.297  11.620  22.982  0.00  0.00    +0.000 C 
ENDROOT
BRANCH   1  10
ATOM      7  N   UNL     1      -4.756  14.853  23.265  0.00  0.00    +0.000 N 
ATOM      8  C   UNL     1      -3.469  14.468  23.655  0.00  0.00    +0.000 C 
ATOM      9  O   UNL     1      -2.915  14.935  24.652  0.00  0.00    +0.000 OA
ATOM     10  N   UNL     1      -2.829  13.580  22.827  0.00  0.00    +0.000 N 
ATOM     11  H   UNL     1      -3.396  13.006  22.227  0.00  0.00    +0.000 HD
BRANCH   7  13
ATOM     12  C   UNL     1      -6.466  16.682  23.257  0.00  0.00    +0.000 C 
ATOM     13  C   UNL     1      -5.366  15.958  24.019  0.00  0.00    +0.000 C 
ENDBRANCH   7  13
BRANCH   7  14
ATOM     14  C   UNL     1      -5.434  14.289  22.089  0.00  0.00    +0.000 C 
ATOM     15  C   UNL     1      -6.389  13.121  22.287  0.00  0.00    +0.000 C 
ENDBRANCH   7  14
ENDBRANCH   1  10
BRANCH   4  16
ATOM     16  C   UNL     1      -0.230  11.295  19.286  0.00  0.00    +0.000 C 
BRANCH  16  17
ATOM     17  C   UNL     1       0.748  10.105  19.173  0.00  0.00    +0.000 A 
ATOM     18  C   UNL     1       1.402   9.803  17.965  0.00  0.00    +0.000 A 
ATOM     19  C   UNL     1       2.202   8.671  17.842  0.00  0.00    +0.000 A 
ATOM     20  C   UNL     1       2.335   7.797  18.921  0.00  0.00    +0.000 A 
ATOM     21  C   UNL     1       1.693   8.077  20.133  0.00  0.00    +0.000 A 
ATOM     22  C   UNL     1       0.924   9.235  20.263  0.00  0.00    +0.000 A 
BRANCH  20  23
ATOM     23  C   UNL     1       3.104   6.599  18.776  0.00  0.00    +0.000 C 
ATOM     24  N   UNL     1       3.739   5.638  18.649  0.00  0.00    +0.000 NA
ENDBRANCH  20  23
ENDBRANCH  16  17
BRANCH  16  25
ATOM     25  C   UNL     1      -1.617  11.030  18.671  0.00  0.00    +0.000 A 
ATOM     26  C   UNL     1      -1.873   9.938  17.830  0.00  0.00    +0.000 A 
ATOM     27  C   UNL     1      -3.115   9.804  17.207  0.00  0.00    +0.000 A 
ATOM     28  C   UNL     1      -4.091  10.747  17.469  0.00  0.00    +0.000 A 
ATOM     29  N   UNL     1      -3.930  11.754  18.349  0.00  0.00    +0.000 NA
ATOM     30  C   UNL     1      -2.718  11.849  18.946  0.00  0.00    +0.000 A 
ENDBRANCH  16  25
ENDBRANCH   4  16
TORSDOF 7
ENDMDL
MODEL 9
REMARK VINA RESULT:      -6.3      2.829      6.078
REMARK  Name = 
REMARK  9 active torsions:
REMARK  status: ('A' for Active; 'I' for Inactive)
REMARK    1  A    between atoms: C_1  and  C_2
REMARK    2  A    between atoms: C_2  and  N_3
REMARK    3  A    between atoms: N_3  and  C_4
REMARK    4  A    between atoms: C_4  and  C_5
REMARK    5  A    between atoms: N_8  and  C_9
REMARK    6  A    between atoms: N_12  and  C_13
REMARK    7  A    between atoms: C_13  and  C_14
REMARK    8  A    between atoms: C_13  and  C_22
REMARK    9  A    between atoms: C_17  and  C_18
REMARK                            x       y       z     vdW  Elec       q    Type
REMARK                         _______ _______ _______ _____ _____    ______ ____
ROOT
ATOM      1  C   UNL     1      -3.320  11.268  17.385  0.00  0.00    +0.000 C 
ATOM      2  C   UNL     1      -2.946   9.840  17.788  0.00  0.00    +0.000 C 
ATOM      3  C   UNL     1      -1.830   9.801  18.829  0.00  0.00    +0.000 C 
ATOM      4  N   UNL     1      -0.625  10.519  18.386  0.00  0.00    +0.000 NA
ATOM      5  C   UNL     1      -0.947  11.916  18.037  0.00  0.00    +0.000 C 
ATOM      6  C   UNL     1      -2.060  12.044  16.995  0.00  0.00    +0.000 C 
ENDROOT
BRANCH   1  10
ATOM      7  N   UNL     1      -6.070  12.437  19.608  0.00  0.00    +0.000 N 
ATOM      8  C   UNL     1      -5.454  11.782  18.537  0.00  0.00    +0.000 C 
ATOM      9  O   UNL     1      -6.079  11.055  17.762  0.00  0.00    +0.000 OA
ATOM     10  N   UNL     1      -4.096  11.946  18.431  0.00  0.00    +0.000 N 
ATOM     11  H   UNL     1      -3.686  12.755  18.864  0.00  0.00    +0.000 HD
BRANCH   7  13
ATOM     12  C   UNL     1      -7.664  10.881  20.750  0.00  0.00    +0.000 C 
ATOM     13  C   UNL     1      -7.478  12.101  19.860  0.00  0.00    +0.000 C 
ENDBRANCH   7  13
BRANCH   7  14
ATOM     14  C   UNL     1      -5.340  13.322  20.527  0.00  0.00    +0.000 C 
ATOM     15  C   UNL     1      -4.738  12.726  21.791  0.00  0.00    +0.000 C 
ENDBRANCH   7  14
ENDBRANCH   1  10
BRANCH   4  16
ATOM     16  C   UNL     1       0.521  10.417  19.359  0.00  0.00    +0.000 C 
BRANCH  16  17
ATOM     17  C   UNL     1       1.293   9.090  19.189  0.00  0.00    +0.000 A 
ATOM     18  C   UNL     1       1.482   8.206  20.266  0.00  0.00    +0.000 A 
ATOM     19  C   UNL     1       2.264   7.063  20.132  0.00  0.00    +0.000 A 
ATOM     20  C   UNL     1       2.903   6.801  18.920  0.00  0.00    +0.000 A 
ATOM     21  C   UNL     1       2.730   7.666  17.834  0.00  0.00    +0.000 A 
ATOM     22  C   UNL     1       1.911   8.790  17.963  0.00  0.00    +0.000 A 
BRANCH  20  23
ATOM     23  C   UNL     1       3.760   5.661  18.800  0.00  0.00    +0.000 C 
ATOM     24  N   UNL     1       4.468   4.748  18.707  0.00  0.00    +0.000 NA
ENDBRANCH  20  23
ENDBRANCH  16  17
BRANCH  16  25
ATOM     25  C   UNL     1       1.419  11.668  19.395  0.00  0.00    +0.000 A 
ATOM     26  C   UNL     1       1.520  12.492  20.524  0.00  0.00    +0.000 A 
ATOM     27  C   UNL     1       2.259  13.675  20.469  0.00  0.00    +0.000 A 
ATOM     28  C   UNL     1       2.915  13.991  19.293  0.00  0.00    +0.000 A 
ATOM     29  N   UNL     1       2.934  13.182  18.217  0.00  0.00    +0.000 NA
ATOM     30  C   UNL     1       2.218  12.036  18.306  0.00  0.00    +0.000 A 
ENDBRANCH  16  25
ENDBRANCH   4  16
TORSDOF 7
ENDMDL
