MODEL 1
REMARK VINA RESULT:      -7.6      0.000      0.000
REMARK  Name = 
REMARK  9 active torsions:
REMARK  status: ('A' for Active; 'I' for Inactive)
REMARK    1  A    between atoms: C_1  and  C_2
REMARK    2  A    between atoms: C_2  and  O_3
REMARK    3  A    between atoms: O_3  and  C_4
REMARK    4  A    between atoms: C_9  and  N_10
REMARK    5  A    between atoms: C_11  and  C_13
REMARK    6  A    between atoms: C_13  and  C_14
REMARK    7  A    between atoms: C_13  and  N_21
REMARK    8  A    between atoms: C_14  and  C_15
REMARK    9  A    between atoms: C_22  and  C_24
REMARK                            x       y       z     vdW  Elec       q    Type
REMARK                         _______ _______ _______ _____ _____    ______ ____
ROOT
ATOM      1  C   UNL     1       2.513   7.351  17.912  0.00  0.00    +0.000 C 
ENDROOT
BRANCH   1   3
ATOM      2  N   UNL     1       1.408   9.575  17.834  0.00  0.00    +0.000 N 
ATOM      3  C   UNL     1       1.858   8.537  18.652  0.00  0.00    +0.000 C 
ATOM      4  O   UNL     1       1.665   8.457  19.866  0.00  0.00    +0.000 OA
ATOM      5  H   UNL     1       1.695   9.597  16.858  0.00  0.00    +0.000 HD
BRANCH   2  11
ATOM      6  C   UNL     1      -0.787  10.695  18.012  0.00  0.00    +0.000 A 
ATOM      7  C   UNL     1      -1.564  11.768  18.490  0.00  0.00    +0.000 A 
ATOM      8  C   UNL     1      -0.975  12.853  19.133  0.00  0.00    +0.000 A 
ATOM      9  C   UNL     1       0.394  12.858  19.346  0.00  0.00    +0.000 A 
ATOM     10  C   UNL     1       1.169  11.775  18.926  0.00  0.00    +0.000 A 
ATOM     11  C   UNL     1       0.608  10.681  18.251  0.00  0.00    +0.000 A 
BRANCH   6  12
ATOM     12  O   UNL     1      -1.335   9.662  17.273  0.00  0.00    +0.000 OA
BRANCH  12  14
ATOM     13  C   UNL     1      -2.850   9.997  15.411  0.00  0.00    +0.000 C 
ATOM     14  C   UNL     1      -2.716   9.857  16.915  0.00  0.00    +0.000 C 
ENDBRANCH  12  14
ENDBRANCH   6  12
ENDBRANCH   2  11
ENDBRANCH   1   3
BRANCH   1  15
ATOM     15  N   UNL     1       2.528   6.238  18.876  0.00  0.00    +0.000 N 
ATOM     16  C   UNL     1       2.002   4.995  18.636  0.00  0.00    +0.000 C 
ATOM     17  O   UNL     1       1.485   4.725  17.553  0.00  0.00    +0.000 OA
ATOM     18  H   UNL     1       2.766   6.456  19.839  0.00  0.00    +0.000 HD
BRANCH  16  19
ATOM     19  C   UNL     1       2.127   4.035  19.730  0.00  0.00    +0.000 A 
ATOM     20  C   UNL     1       1.157   3.702  20.660  0.00  0.00    +0.000 A 
ATOM     21  C   UNL     1       1.585   2.689  21.571  0.00  0.00    +0.000 A 
ATOM     22  C   UNL     1       2.874   2.282  21.318  0.00  0.00    +0.000 A 
ATOM     23  S   UNL     1       3.562   3.125  19.998  0.00  0.00    +0.000 S 
ENDBRANCH  16  19
ENDBRANCH   1  15
BRANCH   1  24
ATOM     24  C   UNL     1       3.988   7.622  17.547  0.00  0.00    +0.000 C 
BRANCH  24  25
ATOM     25  C   UNL     1       4.877   6.454  17.198  0.00  0.00    +0.000 A 
ATOM     26  C   UNL     1       4.969   6.009  15.871  0.00  0.00    +0.000 A 
ATOM     27  C   UNL     1       5.902   5.036  15.509  0.00  0.00    +0.000 A 
ATOM     28  C   UNL     1       6.752   4.495  16.468  0.00  0.00    +0.000 A 
ATOM     29  C   UNL     1       6.655   4.910  17.795  0.00  0.00    +0.000 A 
ATOM     30  C   UNL     1       5.718   5.880  18.161  0.00  0.00    +0.000 A 
ENDBRANCH  24  25
ENDBRANCH   1  24
TORSDOF 8
ENDMDL
MODEL 2
REMARK VINA RESULT:      -7.5      1.376      1.685
REMARK  Name = 
REMARK  9 active torsions:
REMARK  status: ('A' for Active; 'I' for Inactive)
REMARK    1  A    between atoms: C_1  and  C_2
REMARK    2  A    between atoms: C_2  and  O_3
REMARK    3  A    between atoms: O_3  and  C_4
REMARK    4  A    between atoms: C_9  and  N_10
REMARK    5  A    between atoms: C_11  and  C_13
REMARK    6  A    between atoms: C_13  and  C_14
REMARK    7  A    between atoms: C_13  and  N_21
REMARK    8  A    between atoms: C_14  and  C_15
REMARK    9  A    between atoms: C_22  and  C_24
REMARK                            x       y       z     vdW  Elec       q    Type
REMARK                         _______ _______ _______ _____ _____    ______ ____
ROOT
ATOM      1  C   UNL     1       2.969   7.399  17.563  0.00  0.00    +0.000 C 
ENDROOT
BRANCH   1   3
ATOM      2  N   UNL     1       1.256   8.534  18.960  0.00  0.00    +0.000 N 
ATOM      3  C   UNL     1       2.190   8.679  17.932  0.00  0.00    +0.000 C 
ATOM      4  O   UNL     1       2.502   9.748  17.405  0.00  0.00    +0.000 OA
ATOM      5  H   UNL     1       1.000   7.598  19.268  0.00  0.00    +0.000 HD
BRANCH   2  11
ATOM      6  C   UNL     1      -0.539  10.231  18.970  0.00  0.00    +0.000 A 
ATOM      7  C   UNL     1      -1.256  11.232  19.654  0.00  0.00    +0.000 A 
ATOM      8  C   UNL     1      -0.866  11.659  20.920  0.00  0.00    +0.000 A 
ATOM      9  C   UNL     1       0.220  11.058  21.537  0.00  0.00    +0.000 A 
ATOM     10  C   UNL     1       0.906  10.027  20.893  0.00  0.00    +0.000 A 
ATOM     11  C   UNL     1       0.554   9.595  19.606  0.00  0.00    +0.000 A 
BRANCH   6  12
ATOM     12  O   UNL     1      -0.840   9.870  17.669  0.00  0.00    +0.000 OA
BRANCH  12  14
ATOM     13  C   UNL     1      -2.522  10.547  16.061  0.00  0.00    +0.000 C 
ATOM     14  C   UNL     1      -2.249   9.839  17.373  0.00  0.00    +0.000 C 
ENDBRANCH  12  14
ENDBRANCH   6  12
ENDBRANCH   2  11
ENDBRANCH   1   3
BRANCH   1  15
ATOM     15  N   UNL     1       2.648   6.419  18.615  0.00  0.00    +0.000 N 
ATOM     16  C   UNL     1       2.449   5.081  18.395  0.00  0.00    +0.000 C 
ATOM     17  O   UNL     1       2.549   4.602  17.266  0.00  0.00    +0.000 OA
ATOM     18  H   UNL     1       2.369   6.781  19.521  0.00  0.00    +0.000 HD
BRANCH  16  19
ATOM     19  C   UNL     1       2.144   4.285  19.582  0.00  0.00    +0.000 A 
ATOM     20  C   UNL     1       2.633   4.478  20.862  0.00  0.00    +0.000 A 
ATOM     21  C   UNL     1       2.097   3.552  21.808  0.00  0.00    +0.000 A 
ATOM     22  C   UNL     1       1.220   2.669  21.221  0.00  0.00    +0.000 A 
ATOM     23  S   UNL     1       1.054   2.954  19.543  0.00  0.00    +0.000 S 
ENDBRANCH  16  19
ENDBRANCH   1  15
BRANCH   1  24
ATOM     24  C   UNL     1       4.498   7.599  17.615  0.00  0.00    +0.000 C 
BRANCH  24  25
ATOM     25  C   UNL     1       5.389   6.578  16.953  0.00  0.00    +0.000 A 
ATOM     26  C   UNL     1       6.349   5.886  17.706  0.00  0.00    +0.000 A 
ATOM     27  C   UNL     1       7.070   4.831  17.143  0.00  0.00    +0.000 A 
ATOM     28  C   UNL     1       6.844   4.459  15.822  0.00  0.00    +0.000 A 
ATOM     29  C   UNL     1       5.911   5.155  15.055  0.00  0.00    +0.000 A 
ATOM     30  C   UNL     1       5.191   6.214  15.614  0.00  0.00    +0.000 A 
ENDBRANCH  24  25
ENDBRANCH   1  24
TORSDOF 8
ENDMDL
MODEL 3
REMARK VINA RESULT:      -7.4      1.748      4.162
REMARK  Name = 
REMARK  9 active torsions:
REMARK  status: ('A' for Active; 'I' for Inactive)
REMARK    1  A    between atoms: C_1  and  C_2
REMARK    2  A    between atoms: C_2  and  O_3
REMARK    3  A    between atoms: O_3  and  C_4
REMARK    4  A    between atoms: C_9  and  N_10
REMARK    5  A    between atoms: C_11  and  C_13
REMARK    6  A    between atoms: C_13  and  C_14
REMARK    7  A    between atoms: C_13  and  N_21
REMARK    8  A    between atoms: C_14  and  C_15
REMARK    9  A    between atoms: C_22  and  C_24
REMARK                            x       y       z     vdW  Elec       q    Type
REMARK                         _______ _______ _______ _____ _____    ______ ____
ROOT
ATOM      1  C   UNL     1       2.585   7.117  18.895  0.00  0.00    +0.000 C 
ENDROOT
BRANCH   1   3
ATOM      2  N   UNL     1       1.311   9.240  19.113  0.00  0.00    +0.000 N 
ATOM      3  C   UNL     1       2.131   8.463  18.291  0.00  0.00    +0.000 C 
ATOM      4  O   UNL     1       2.593   8.824  17.208  0.00  0.00    +0.000 OA
ATOM      5  H   UNL     1       0.907   8.820  19.947  0.00  0.00    +0.000 HD
BRANCH   2  11
ATOM      6  C   UNL     1      -0.433  10.911  18.599  0.00  0.00    +0.000 A 
ATOM      7  C   UNL     1      -0.806  12.258  18.421  0.00  0.00    +0.000 A 
ATOM      8  C   UNL     1       0.144  13.275  18.432  0.00  0.00    +0.000 A 
ATOM      9  C   UNL     1       1.474  12.963  18.665  0.00  0.00    +0.000 A 
ATOM     10  C   UNL     1       1.849  11.638  18.898  0.00  0.00    +0.000 A 
ATOM     11  C   UNL     1       0.919  10.589  18.866  0.00  0.00    +0.000 A 
BRANCH   6  12
ATOM     12  O   UNL     1      -1.342   9.875  18.482  0.00  0.00    +0.000 OA
BRANCH  12  14
ATOM     13  C   UNL     1      -2.543   9.833  16.377  0.00  0.00    +0.000 C 
ATOM     14  C   UNL     1      -2.577  10.239  17.837  0.00  0.00    +0.000 C 
ENDBRANCH  12  14
ENDBRANCH   6  12
ENDBRANCH   2  11
ENDBRANCH   1   3
BRANCH   1  15
ATOM     15  N   UNL     1       3.467   6.504  17.887  0.00  0.00    +0.000 N 
ATOM     16  C   UNL     1       4.623   5.827  18.175  0.00  0.00    +0.000 C 
ATOM     17  O   UNL     1       4.993   5.671  19.338  0.00  0.00    +0.000 OA
ATOM     18  H   UNL     1       3.316   6.761  16.916  0.00  0.00    +0.000 HD
BRANCH  16  19
ATOM     19  C   UNL     1       5.347   5.295  17.023  0.00  0.00    +0.000 A 
ATOM     20  C   UNL     1       4.866   4.412  16.072  0.00  0.00    +0.000 A 
ATOM     21  C   UNL     1       5.815   4.128  15.045  0.00  0.00    +0.000 A 
ATOM     22  C   UNL     1       7.002   4.795  15.244  0.00  0.00    +0.000 A 
ATOM     23  S   UNL     1       6.968   5.747  16.665  0.00  0.00    +0.000 S 
ENDBRANCH  16  19
ENDBRANCH   1  15
BRANCH   1  24
ATOM     24  C   UNL     1       1.414   6.132  19.096  0.00  0.00    +0.000 C 
BRANCH  24  25
ATOM     25  C   UNL     1       1.692   4.791  19.727  0.00  0.00    +0.000 A 
ATOM     26  C   UNL     1       2.069   4.710  21.075  0.00  0.00    +0.000 A 
ATOM     27  C   UNL     1       2.176   3.473  21.712  0.00  0.00    +0.000 A 
ATOM     28  C   UNL     1       1.911   2.301  21.009  0.00  0.00    +0.000 A 
ATOM     29  C   UNL     1       1.559   2.366  19.661  0.00  0.00    +0.000 A 
ATOM     30  C   UNL     1       1.457   3.604  19.020  0.00  0.00    +0.000 A 
ENDBRANCH  24  25
ENDBRANCH   1  24
TORSDOF 8
ENDMDL
MODEL 4
REMARK VINA RESULT:      -7.4      1.502      1.641
REMARK  Name = 
REMARK  9 active torsions:
REMARK  status: ('A' for Active; 'I' for Inactive)
REMARK    1  A    between atoms: C_1  and  C_2
REMARK    2  A    between atoms: C_2  and  O_3
REMARK    3  A    between atoms: O_3  and  C_4
REMARK    4  A    between atoms: C_9  and  N_10
REMARK    5  A    between atoms: C_11  and  C_13
REMARK    6  A    between atoms: C_13  and  C_14
REMARK    7  A    between atoms: C_13  and  N_21
REMARK    8  A    between atoms: C_14  and  C_15
REMARK    9  A    between atoms: C_22  and  C_24
REMARK                            x       y       z     vdW  Elec       q    Type
REMARK                         _______ _______ _______ _____ _____    ______ ____
ROOT
ATOM      1  C   UNL     1       2.940   7.220  17.749  0.00  0.00    +0.000 C 
ENDROOT
BRANCH   1   3
ATOM      2  N   UNL     1       1.339   8.207  19.373  0.00  0.00    +0.000 N 
ATOM      3  C   UNL     1       2.240   8.464  18.338  0.00  0.00    +0.000 C 
ATOM      4  O   UNL     1       2.587   9.585  17.962  0.00  0.00    +0.000 OA
ATOM      5  H   UNL     1       1.048   7.248  19.549  0.00  0.00    +0.000 HD
BRANCH   2  11
ATOM      6  C   UNL     1      -0.248  10.078  19.664  0.00  0.00    +0.000 A 
ATOM      7  C   UNL     1      -0.897  10.995  20.514  0.00  0.00    +0.000 A 
ATOM      8  C   UNL     1      -0.557  11.094  21.860  0.00  0.00    +0.000 A 
ATOM      9  C   UNL     1       0.405  10.245  22.384  0.00  0.00    +0.000 A 
ATOM     10  C   UNL     1       1.016   9.293  21.565  0.00  0.00    +0.000 A 
ATOM     11  C   UNL     1       0.715   9.189  20.199  0.00  0.00    +0.000 A 
BRANCH   6  12
ATOM     12  O   UNL     1      -0.490  10.039  18.303  0.00  0.00    +0.000 OA
BRANCH  12  14
ATOM     13  C   UNL     1      -2.609   9.851  17.140  0.00  0.00    +0.000 C 
ATOM     14  C   UNL     1      -1.660  10.768  17.887  0.00  0.00    +0.000 C 
ENDBRANCH  12  14
ENDBRANCH   6  12
ENDBRANCH   2  11
ENDBRANCH   1   3
BRANCH   1  15
ATOM     15  N   UNL     1       2.815   6.170  18.774  0.00  0.00    +0.000 N 
ATOM     16  C   UNL     1       2.168   4.976  18.587  0.00  0.00    +0.000 C 
ATOM     17  O   UNL     1       1.651   4.697  17.506  0.00  0.00    +0.000 OA
ATOM     18  H   UNL     1       3.051   6.418  19.730  0.00  0.00    +0.000 HD
BRANCH  16  19
ATOM     19  C   UNL     1       2.164   4.073  19.736  0.00  0.00    +0.000 A 
ATOM     20  C   UNL     1       1.114   3.834  20.605  0.00  0.00    +0.000 A 
ATOM     21  C   UNL     1       1.423   2.856  21.597  0.00  0.00    +0.000 A 
ATOM     22  C   UNL     1       2.707   2.381  21.467  0.00  0.00    +0.000 A 
ATOM     23  S   UNL     1       3.530   3.118  20.161  0.00  0.00    +0.000 S 
ENDBRANCH  16  19
ENDBRANCH   1  15
BRANCH   1  24
ATOM     24  C   UNL     1       4.454   7.435  17.539  0.00  0.00    +0.000 C 
BRANCH  24  25
ATOM     25  C   UNL     1       5.280   6.301  16.986  0.00  0.00    +0.000 A 
ATOM     26  C   UNL     1       5.194   5.965  15.626  0.00  0.00    +0.000 A 
ATOM     27  C   UNL     1       6.064   5.025  15.069  0.00  0.00    +0.000 A 
ATOM     28  C   UNL     1       7.027   4.410  15.863  0.00  0.00    +0.000 A 
ATOM     29  C   UNL     1       7.107   4.717  17.221  0.00  0.00    +0.000 A 
ATOM     30  C   UNL     1       6.233   5.653  17.782  0.00  0.00    +0.000 A 
ENDBRANCH  24  25
ENDBRANCH   1  24
TORSDOF 8
ENDMDL
MODEL 5
REMARK VINA RESULT:      -7.3      2.420      4.510
REMARK  Name = 
REMARK  9 active torsions:
REMARK  status: ('A' for Active; 'I' for Inactive)
REMARK    1  A    between atoms: C_1  and  C_2
REMARK    2  A    between atoms: C_2  and  O_3
REMARK    3  A    between atoms: O_3  and  C_4
REMARK    4  A    between atoms: C_9  and  N_10
REMARK    5  A    between atoms: C_11  and  C_13
REMARK    6  A    between atoms: C_13  and  C_14
REMARK    7  A    between atoms: C_13  and  N_21
REMARK    8  A    between atoms: C_14  and  C_15
REMARK    9  A    between atoms: C_22  and  C_24
REMARK                            x       y       z     vdW  Elec       q    Type
REMARK                         _______ _______ _______ _____ _____    ______ ____
ROOT
ATOM      1  C   UNL     1       2.948   6.612  19.419  0.00  0.00    +0.000 C 
ENDROOT
BRANCH   1   3
ATOM      2  N   UNL     1       1.349   8.460  19.864  0.00  0.00    +0.000 N 
ATOM      3  C   UNL     1       2.203   7.872  18.929  0.00  0.00    +0.000 C 
ATOM      4  O   UNL     1       2.480   8.344  17.826  0.00  0.00    +0.000 OA
ATOM      5  H   UNL     1       1.113   7.948  20.711  0.00  0.00    +0.000 HD
BRANCH   2  11
ATOM      6  C   UNL     1       0.711  10.664  20.782  0.00  0.00    +0.000 A 
ATOM      7  C   UNL     1       0.120  11.928  20.596  0.00  0.00    +0.000 A 
ATOM      8  C   UNL     1      -0.541  12.247  19.413  0.00  0.00    +0.000 A 
ATOM      9  C   UNL     1      -0.579  11.321  18.383  0.00  0.00    +0.000 A 
ATOM     10  C   UNL     1       0.052  10.084  18.533  0.00  0.00    +0.000 A 
ATOM     11  C   UNL     1       0.701   9.724  19.723  0.00  0.00    +0.000 A 
BRANCH   6  12
ATOM     12  O   UNL     1       1.275  10.286  21.987  0.00  0.00    +0.000 OA
BRANCH  12  14
ATOM     13  C   UNL     1      -0.809  10.152  23.218  0.00  0.00    +0.000 C 
ATOM     14  C   UNL     1       0.446   9.420  22.784  0.00  0.00    +0.000 C 
ENDBRANCH  12  14
ENDBRANCH   6  12
ENDBRANCH   2  11
ENDBRANCH   1   3
BRANCH   1  15
ATOM     15  N   UNL     1       3.714   6.124  18.259  0.00  0.00    +0.000 N 
ATOM     16  C   UNL     1       4.998   5.647  18.320  0.00  0.00    +0.000 C 
ATOM     17  O   UNL     1       5.598   5.580  19.392  0.00  0.00    +0.000 OA
ATOM     18  H   UNL     1       3.346   6.331  17.335  0.00  0.00    +0.000 HD
BRANCH  16  19
ATOM     19  C   UNL     1       5.571   5.212  17.049  0.00  0.00    +0.000 A 
ATOM     20  C   UNL     1       4.991   4.366  16.120  0.00  0.00    +0.000 A 
ATOM     21  C   UNL     1       5.797   4.180  14.957  0.00  0.00    +0.000 A 
ATOM     22  C   UNL     1       6.977   4.882  15.033  0.00  0.00    +0.000 A 
ATOM     23  S   UNL     1       7.110   5.749  16.500  0.00  0.00    +0.000 S 
ENDBRANCH  16  19
ENDBRANCH   1  15
BRANCH   1  24
ATOM     24  C   UNL     1       1.987   5.469  19.808  0.00  0.00    +0.000 C 
BRANCH  24  25
ATOM     25  C   UNL     1       2.328   4.059  19.393  0.00  0.00    +0.000 A 
ATOM     26  C   UNL     1       1.889   3.562  18.157  0.00  0.00    +0.000 A 
ATOM     27  C   UNL     1       2.326   2.320  17.693  0.00  0.00    +0.000 A 
ATOM     28  C   UNL     1       3.202   1.558  18.459  0.00  0.00    +0.000 A 
ATOM     29  C   UNL     1       3.626   2.029  19.702  0.00  0.00    +0.000 A 
ATOM     30  C   UNL     1       3.186   3.270  20.171  0.00  0.00    +0.000 A 
ENDBRANCH  24  25
ENDBRANCH   1  24
TORSDOF 8
ENDMDL
MODEL 6
REMARK VINA RESULT:      -7.3      1.136      2.305
REMARK  Name = 
REMARK  9 active torsions:
REMARK  status: ('A' for Active; 'I' for Inactive)
REMARK    1  A    between atoms: C_1  and  C_2
REMARK    2  A    between atoms: C_2  and  O_3
REMARK    3  A    between atoms: O_3  and  C_4
REMARK    4  A    between atoms: C_9  and  N_10
REMARK    5  A    between atoms: C_11  and  C_13
REMARK    6  A    between atoms: C_13  and  C_14
REMARK    7  A    between atoms: C_13  and  N_21
REMARK    8  A    between atoms: C_14  and  C_15
REMARK    9  A    between atoms: C_22  and  C_24
REMARK                            x       y       z     vdW  Elec       q    Type
REMARK                         _______ _______ _______ _____ _____    ______ ____
ROOT
ATOM      1  C   UNL     1       2.582   7.327  17.969  0.00  0.00    +0.000 C 
ENDROOT
BRANCH   1   3
ATOM      2  N   UNL     1       1.197   9.383  17.798  0.00  0.00    +0.000 N 
ATOM      3  C   UNL     1       1.816   8.475  18.659  0.00  0.00    +0.000 C 
ATOM      4  O   UNL     1       1.693   8.466  19.885  0.00  0.00    +0.000 OA
ATOM      5  H   UNL     1       1.432   9.364  16.808  0.00  0.00    +0.000 HD
BRANCH   2  11
ATOM      6  C   UNL     1       0.749  11.699  18.529  0.00  0.00    +0.000 A 
ATOM      7  C   UNL     1      -0.177  12.713  18.843  0.00  0.00    +0.000 A 
ATOM      8  C   UNL     1      -1.543  12.451  18.888  0.00  0.00    +0.000 A 
ATOM      9  C   UNL     1      -2.004  11.182  18.575  0.00  0.00    +0.000 A 
ATOM     10  C   UNL     1      -1.101  10.182  18.209  0.00  0.00    +0.000 A 
ATOM     11  C   UNL     1       0.283  10.409  18.182  0.00  0.00    +0.000 A 
BRANCH   6  12
ATOM     12  O   UNL     1       2.115  11.908  18.587  0.00  0.00    +0.000 OA
BRANCH  12  14
ATOM     13  C   UNL     1       3.250  14.020  18.232  0.00  0.00    +0.000 C 
ATOM     14  C   UNL     1       2.500  13.144  19.217  0.00  0.00    +0.000 C 
ENDBRANCH  12  14
ENDBRANCH   6  12
ENDBRANCH   2  11
ENDBRANCH   1   3
BRANCH   1  15
ATOM     15  N   UNL     1       2.579   6.210  18.929  0.00  0.00    +0.000 N 
ATOM     16  C   UNL     1       2.068   4.964  18.671  0.00  0.00    +0.000 C 
ATOM     17  O   UNL     1       1.581   4.694  17.574  0.00  0.00    +0.000 OA
ATOM     18  H   UNL     1       2.789   6.426  19.899  0.00  0.00    +0.000 HD
BRANCH  16  19
ATOM     19  C   UNL     1       2.169   4.001  19.764  0.00  0.00    +0.000 A 
ATOM     20  C   UNL     1       1.190   3.684  20.689  0.00  0.00    +0.000 A 
ATOM     21  C   UNL     1       1.594   2.663  21.600  0.00  0.00    +0.000 A 
ATOM     22  C   UNL     1       2.878   2.234  21.354  0.00  0.00    +0.000 A 
ATOM     23  S   UNL     1       3.586   3.065  20.038  0.00  0.00    +0.000 S 
ENDBRANCH  16  19
ENDBRANCH   1  15
BRANCH   1  24
ATOM     24  C   UNL     1       4.065   7.670  17.716  0.00  0.00    +0.000 C 
BRANCH  24  25
ATOM     25  C   UNL     1       4.989   6.586  17.222  0.00  0.00    +0.000 A 
ATOM     26  C   UNL     1       4.996   6.229  15.866  0.00  0.00    +0.000 A 
ATOM     27  C   UNL     1       5.952   5.342  15.367  0.00  0.00    +0.000 A 
ATOM     28  C   UNL     1       6.910   4.799  16.219  0.00  0.00    +0.000 A 
ATOM     29  C   UNL     1       6.899   5.126  17.574  0.00  0.00    +0.000 A 
ATOM     30  C   UNL     1       5.939   6.009  18.076  0.00  0.00    +0.000 A 
ENDBRANCH  24  25
ENDBRANCH   1  24
TORSDOF 8
ENDMDL
MODEL 7
REMARK VINA RESULT:      -7.2      2.675      7.744
REMARK  Name = 
REMARK  9 active torsions:
REMARK  status: ('A' for Active; 'I' for Inactive)
REMARK    1  A    between atoms: C_1  and  C_2
REMARK    2  A    between atoms: C_2  and  O_3
REMARK    3  A    between atoms: O_3  and  C_4
REMARK    4  A    between atoms: C_9  and  N_10
REMARK    5  A    between atoms: C_11  and  C_13
REMARK    6  A    between atoms: C_13  and  C_14
REMARK    7  A    between atoms: C_13  and  N_21
REMARK    8  A    between atoms: C_14  and  C_15
REMARK    9  A    between atoms: C_22  and  C_24
REMARK                            x       y       z     vdW  Elec       q    Type
REMARK                         _______ _______ _______ _____ _____    ______ ____
ROOT
ATOM      1  C   UNL     1       2.268   7.213  18.604  0.00  0.00    +0.000 C 
ENDROOT
BRANCH   1   3
ATOM      2  N   UNL     1       4.159   5.919  17.643  0.00  0.00    +0.000 N 
ATOM      3  C   UNL     1       3.387   7.079  17.549  0.00  0.00    +0.000 C 
ATOM      4  O   UNL     1       3.462   7.908  16.642  0.00  0.00    +0.000 OA
ATOM      5  H   UNL     1       4.086   5.342  18.478  0.00  0.00    +0.000 HD
BRANCH   2  11
ATOM      6  C   UNL     1       6.419   6.034  16.651  0.00  0.00    +0.000 A 
ATOM      7  C   UNL     1       7.367   5.534  15.738  0.00  0.00    +0.000 A 
ATOM      8  C   UNL     1       7.030   4.547  14.817  0.00  0.00    +0.000 A 
ATOM      9  C   UNL     1       5.750   4.015  14.827  0.00  0.00    +0.000 A 
ATOM     10  C   UNL     1       4.816   4.462  15.763  0.00  0.00    +0.000 A 
ATOM     11  C   UNL     1       5.119   5.475  16.685  0.00  0.00    +0.000 A 
BRANCH   6  12
ATOM     12  O   UNL     1       6.700   7.090  17.499  0.00  0.00    +0.000 OA
BRANCH  12  14
ATOM     13  C   UNL     1       7.693   5.790  19.287  0.00  0.00    +0.000 C 
ATOM     14  C   UNL     1       7.889   6.916  18.290  0.00  0.00    +0.000 C 
ENDBRANCH  12  14
ENDBRANCH   6  12
ENDBRANCH   2  11
ENDBRANCH   1   3
BRANCH   1  15
ATOM     15  N   UNL     1       2.228   8.640  18.964  0.00  0.00    +0.000 N 
ATOM     16  C   UNL     1       1.317   9.540  18.474  0.00  0.00    +0.000 C 
ATOM     17  O   UNL     1       0.438   9.188  17.689  0.00  0.00    +0.000 OA
ATOM     18  H   UNL     1       3.033   9.023  19.450  0.00  0.00    +0.000 HD
BRANCH  16  19
ATOM     19  C   UNL     1       1.455  10.909  18.966  0.00  0.00    +0.000 A 
ATOM     20  C   UNL     1       2.110  11.956  18.342  0.00  0.00    +0.000 A 
ATOM     21  C   UNL     1       2.018  13.182  19.068  0.00  0.00    +0.000 A 
ATOM     22  C   UNL     1       1.302  13.036  20.234  0.00  0.00    +0.000 A 
ATOM     23  S   UNL     1       0.755  11.430  20.449  0.00  0.00    +0.000 S 
ENDBRANCH  16  19
ENDBRANCH   1  15
BRANCH   1  24
ATOM     24  C   UNL     1       2.586   6.451  19.907  0.00  0.00    +0.000 C 
BRANCH  24  25
ATOM     25  C   UNL     1       2.013   5.069  20.101  0.00  0.00    +0.000 A 
ATOM     26  C   UNL     1       1.446   4.382  19.017  0.00  0.00    +0.000 A 
ATOM     27  C   UNL     1       1.055   3.048  19.145  0.00  0.00    +0.000 A 
ATOM     28  C   UNL     1       1.224   2.386  20.357  0.00  0.00    +0.000 A 
ATOM     29  C   UNL     1       1.764   3.064  21.449  0.00  0.00    +0.000 A 
ATOM     30  C   UNL     1       2.150   4.401  21.325  0.00  0.00    +0.000 A 
ENDBRANCH  24  25
ENDBRANCH   1  24
TORSDOF 8
ENDMDL
MODEL 8
REMARK VINA RESULT:      -7.1      2.323      4.709
REMARK  Name = 
REMARK  9 active torsions:
REMARK  status: ('A' for Active; 'I' for Inactive)
REMARK    1  A    between atoms: C_1  and  C_2
REMARK    2  A    between atoms: C_2  and  O_3
REMARK    3  A    between atoms: O_3  and  C_4
REMARK    4  A    between atoms: C_9  and  N_10
REMARK    5  A    between atoms: C_11  and  C_13
REMARK    6  A    between atoms: C_13  and  C_14
REMARK    7  A    between atoms: C_13  and  N_21
REMARK    8  A    between atoms: C_14  and  C_15
REMARK    9  A    between atoms: C_22  and  C_24
REMARK                            x       y       z     vdW  Elec       q    Type
REMARK                         _______ _______ _______ _____ _____    ______ ____
ROOT
ATOM      1  C   UNL     1       2.613   6.897  18.867  0.00  0.00    +0.000 C 
ENDROOT
BRANCH   1   3
ATOM      2  N   UNL     1       1.532   9.067  19.412  0.00  0.00    +0.000 N 
ATOM      3  C   UNL     1       2.171   8.309  18.428  0.00  0.00    +0.000 C 
ATOM      4  O   UNL     1       2.498   8.724  17.315  0.00  0.00    +0.000 OA
ATOM      5  H   UNL     1       1.222   8.609  20.266  0.00  0.00    +0.000 HD
BRANCH   2  11
ATOM      6  C   UNL     1       0.190  11.011  20.131  0.00  0.00    +0.000 A 
ATOM      7  C   UNL     1      -0.073  12.393  20.064  0.00  0.00    +0.000 A 
ATOM      8  C   UNL     1       0.596  13.210  19.158  0.00  0.00    +0.000 A 
ATOM      9  C   UNL     1       1.570  12.663  18.337  0.00  0.00    +0.000 A 
ATOM     10  C   UNL     1       1.879  11.305  18.432  0.00  0.00    +0.000 A 
ATOM     11  C   UNL     1       1.203  10.452  19.316  0.00  0.00    +0.000 A 
BRANCH   6  12
ATOM     12  O   UNL     1      -0.540  10.163  20.944  0.00  0.00    +0.000 OA
BRANCH  12  14
ATOM     13  C   UNL     1      -0.056   9.511  23.228  0.00  0.00    +0.000 C 
ATOM     14  C   UNL     1      -0.623  10.583  22.319  0.00  0.00    +0.000 C 
ENDBRANCH  12  14
ENDBRANCH   6  12
ENDBRANCH   2  11
ENDBRANCH   1   3
BRANCH   1  15
ATOM     15  N   UNL     1       3.581   6.448  17.852  0.00  0.00    +0.000 N 
ATOM     16  C   UNL     1       4.722   5.739  18.127  0.00  0.00    +0.000 C 
ATOM     17  O   UNL     1       5.001   5.409  19.279  0.00  0.00    +0.000 OA
ATOM     18  H   UNL     1       3.505   6.849  16.922  0.00  0.00    +0.000 HD
BRANCH  16  19
ATOM     19  C   UNL     1       5.543   5.391  16.970  0.00  0.00    +0.000 A 
ATOM     20  C   UNL     1       5.198   5.516  15.635  0.00  0.00    +0.000 A 
ATOM     21  C   UNL     1       6.250   5.132  14.750  0.00  0.00    +0.000 A 
ATOM     22  C   UNL     1       7.369   4.715  15.432  0.00  0.00    +0.000 A 
ATOM     23  S   UNL     1       7.144   4.780  17.126  0.00  0.00    +0.000 S 
ENDBRANCH  16  19
ENDBRANCH   1  15
BRANCH   1  24
ATOM     24  C   UNL     1       1.455   5.877  18.834  0.00  0.00    +0.000 C 
BRANCH  24  25
ATOM     25  C   UNL     1       1.530   4.662  19.726  0.00  0.00    +0.000 A 
ATOM     26  C   UNL     1       1.203   3.395  19.220  0.00  0.00    +0.000 A 
ATOM     27  C   UNL     1       1.416   2.247  19.984  0.00  0.00    +0.000 A 
ATOM     28  C   UNL     1       1.956   2.350  21.263  0.00  0.00    +0.000 A 
ATOM     29  C   UNL     1       2.262   3.605  21.787  0.00  0.00    +0.000 A 
ATOM     30  C   UNL     1       2.044   4.757  21.026  0.00  0.00    +0.000 A 
ENDBRANCH  24  25
ENDBRANCH   1  24
TORSDOF 8
ENDMDL
MODEL 9
REMARK VINA RESULT:      -7.1      0.854      1.039
REMARK  Name = 
REMARK  9 active torsions:
REMARK  status: ('A' for Active; 'I' for Inactive)
REMARK    1  A    between atoms: C_1  and  C_2
REMARK    2  A    between atoms: C_2  and  O_3
REMARK    3  A    between atoms: O_3  and  C_4
REMARK    4  A    between atoms: C_9  and  N_10
REMARK    5  A    between atoms: C_11  and  C_13
REMARK    6  A    between atoms: C_13  and  C_14
REMARK    7  A    between atoms: C_13  and  N_21
REMARK    8  A    between atoms: C_14  and  C_15
REMARK    9  A    between atoms: C_22  and  C_24
REMARK                            x       y       z     vdW  Elec       q    Type
REMARK                         _______ _______ _______ _____ _____    ______ ____
ROOT
ATOM      1  C   UNL     1       2.651   7.314  17.730  0.00  0.00    +0.000 C 
ENDROOT
BRANCH   1   3
ATOM      2  N   UNL     1       1.844   9.661  17.850  0.00  0.00    +0.000 N 
ATOM      3  C   UNL     1       2.105   8.491  18.566  0.00  0.00    +0.000 C 
ATOM      4  O   UNL     1       1.826   8.309  19.752  0.00  0.00    +0.000 OA
ATOM      5  H   UNL     1       2.194   9.747  16.898  0.00  0.00    +0.000 HD
BRANCH   2  11
ATOM      6  C   UNL     1      -0.245  10.826  18.467  0.00  0.00    +0.000 A 
ATOM      7  C   UNL     1      -0.885  11.950  19.023  0.00  0.00    +0.000 A 
ATOM      8  C   UNL     1      -0.163  13.081  19.394  0.00  0.00    +0.000 A 
ATOM      9  C   UNL     1       1.216  13.084  19.256  0.00  0.00    +0.000 A 
ATOM     10  C   UNL     1       1.870  11.955  18.758  0.00  0.00    +0.000 A 
ATOM     11  C   UNL     1       1.166  10.812  18.350  0.00  0.00    +0.000 A 
BRANCH   6  12
ATOM     12  O   UNL     1      -0.952   9.738  17.989  0.00  0.00    +0.000 OA
BRANCH  12  14
ATOM     13  C   UNL     1      -3.326   9.684  17.502  0.00  0.00    +0.000 C 
ATOM     14  C   UNL     1      -1.947  10.065  17.001  0.00  0.00    +0.000 C 
ENDBRANCH  12  14
ENDBRANCH   6  12
ENDBRANCH   2  11
ENDBRANCH   1   3
BRANCH   1  15
ATOM     15  N   UNL     1       2.794   6.189  18.670  0.00  0.00    +0.000 N 
ATOM     16  C   UNL     1       2.223   4.954  18.496  0.00  0.00    +0.000 C 
ATOM     17  O   UNL     1       1.549   4.702  17.498  0.00  0.00    +0.000 OA
ATOM     18  H   UNL     1       3.173   6.393  19.590  0.00  0.00    +0.000 HD
BRANCH  16  19
ATOM     19  C   UNL     1       2.495   3.980  19.550  0.00  0.00    +0.000 A 
ATOM     20  C   UNL     1       3.618   3.182  19.678  0.00  0.00    +0.000 A 
ATOM     21  C   UNL     1       3.595   2.370  20.852  0.00  0.00    +0.000 A 
ATOM     22  C   UNL     1       2.447   2.563  21.586  0.00  0.00    +0.000 A 
ATOM     23  S   UNL     1       1.408   3.708  20.856  0.00  0.00    +0.000 S 
ENDBRANCH  16  19
ENDBRANCH   1  15
BRANCH   1  24
ATOM     24  C   UNL     1       4.063   7.587  17.172  0.00  0.00    +0.000 C 
BRANCH  24  25
ATOM     25  C   UNL     1       5.049   6.448  17.095  0.00  0.00    +0.000 A 
ATOM     26  C   UNL     1       4.998   5.542  16.025  0.00  0.00    +0.000 A 
ATOM     27  C   UNL     1       5.996   4.581  15.858  0.00  0.00    +0.000 A 
ATOM     28  C   UNL     1       7.055   4.511  16.759  0.00  0.00    +0.000 A 
ATOM     29  C   UNL     1       7.104   5.389  17.841  0.00  0.00    +0.000 A 
ATOM     30  C   UNL     1       6.103   6.348  18.013  0.00  0.00    +0.000 A 
ENDBRANCH  24  25
ENDBRANCH   1  24
TORSDOF 8
ENDMDL
