MODEL 1
REMARK VINA RESULT:      -8.1      0.000      0.000
REMARK  Name = 
REMARK  0 active torsions:
REMARK  status: ('A' for Active; 'I' for Inactive)
REMARK                            x       y       z     vdW  Elec       q    Type
REMARK                         _______ _______ _______ _____ _____    ______ ____
ROOT
ATOM      1  O   UNL     1       8.462   4.002  17.815  0.00  0.00    +0.000 OA
ATOM      2  C   UNL     1       7.583   4.583  17.195  0.00  0.00    +0.000 C 
ATOM      3  C   UNL     1       7.795   5.636  16.143  0.00  0.00    +0.000 C 
ATOM      4  S   UNL     1       6.519   5.255  14.902  0.00  0.00    +0.000 S 
ATOM      5  C   UNL     1       5.516   4.526  16.124  0.00  0.00    +0.000 C 
ATOM      6  N   UNL     1       4.270   4.248  15.940  0.00  0.00    +0.000 NA
ATOM      7  C   UNL     1       3.645   3.710  17.180  0.00  0.00    +0.000 C 
ATOM      8  C   UNL     1       4.119   4.479  18.452  0.00  0.00    +0.000 C 
ATOM      9  N   UNL     1       5.593   4.460  18.563  0.00  0.00    +0.000 NA
ATOM     10  N   UNL     1       6.223   4.354  17.289  0.00  0.00    +0.000 N 
ATOM     11  C   UNL     1       3.521   5.904  18.453  0.00  0.00    +0.000 A 
ATOM     12  C   UNL     1       3.691   6.953  17.552  0.00  0.00    +0.000 A 
ATOM     13  C   UNL     1       2.900   8.099  17.684  0.00  0.00    +0.000 A 
ATOM     14  C   UNL     1       1.963   8.209  18.716  0.00  0.00    +0.000 A 
ATOM     15  C   UNL     1       1.809   7.172  19.636  0.00  0.00    +0.000 A 
ATOM     16  C   UNL     1       2.577   6.022  19.497  0.00  0.00    +0.000 A 
ATOM     17  C   UNL     1       2.557   4.803  20.266  0.00  0.00    +0.000 A 
ATOM     18  C   UNL     1       1.800   4.463  21.374  0.00  0.00    +0.000 A 
ATOM     19  C   UNL     1       1.967   3.199  21.937  0.00  0.00    +0.000 A 
ATOM     20  C   UNL     1       2.897   2.299  21.397  0.00  0.00    +0.000 A 
ATOM     21  C   UNL     1       3.655   2.635  20.278  0.00  0.00    +0.000 A 
ATOM     22  C   UNL     1       3.470   3.888  19.707  0.00  0.00    +0.000 A 
ATOM     23  H   UNL     1       5.902   3.664  19.121  0.00  0.00    +0.000 HD
ENDROOT
TORSDOF 0
ENDMDL
MODEL 2
REMARK VINA RESULT:      -7.4      6.207      8.218
REMARK  Name = 
REMARK  0 active torsions:
REMARK  status: ('A' for Active; 'I' for Inactive)
REMARK                            x       y       z     vdW  Elec       q    Type
REMARK                         _______ _______ _______ _____ _____    ______ ____
ROOT
ATOM      1  O   UNL     1       3.021  14.566  18.033  0.00  0.00    +0.000 OA
ATOM      2  C   UNL     1       1.945  14.379  18.586  0.00  0.00    +0.000 C 
ATOM      3  C   UNL     1       1.153  15.409  19.342  0.00  0.00    +0.000 C 
ATOM      4  S   UNL     1      -0.569  15.032  18.887  0.00  0.00    +0.000 S 
ATOM      5  C   UNL     1      -0.152  13.367  18.594  0.00  0.00    +0.000 C 
ATOM      6  N   UNL     1      -1.030  12.432  18.465  0.00  0.00    +0.000 NA
ATOM      7  C   UNL     1      -0.385  11.100  18.306  0.00  0.00    +0.000 C 
ATOM      8  C   UNL     1       0.839  10.928  19.257  0.00  0.00    +0.000 C 
ATOM      9  N   UNL     1       1.826  12.010  19.051  0.00  0.00    +0.000 NA
ATOM     10  N   UNL     1       1.213  13.208  18.581  0.00  0.00    +0.000 N 
ATOM     11  C   UNL     1       0.351  10.811  20.719  0.00  0.00    +0.000 A 
ATOM     12  C   UNL     1      -0.347  11.720  21.510  0.00  0.00    +0.000 A 
ATOM     13  C   UNL     1      -0.825  11.308  22.760  0.00  0.00    +0.000 A 
ATOM     14  C   UNL     1      -0.590  10.011  23.226  0.00  0.00    +0.000 A 
ATOM     15  C   UNL     1       0.133   9.106  22.447  0.00  0.00    +0.000 A 
ATOM     16  C   UNL     1       0.590   9.503  21.196  0.00  0.00    +0.000 A 
ATOM     17  C   UNL     1       1.291   8.746  20.190  0.00  0.00    +0.000 A 
ATOM     18  C   UNL     1       1.735   7.434  20.212  0.00  0.00    +0.000 A 
ATOM     19  C   UNL     1       2.391   6.930  19.091  0.00  0.00    +0.000 A 
ATOM     20  C   UNL     1       2.610   7.745  17.970  0.00  0.00    +0.000 A 
ATOM     21  C   UNL     1       2.159   9.063  17.942  0.00  0.00    +0.000 A 
ATOM     22  C   UNL     1       1.487   9.554  19.053  0.00  0.00    +0.000 A 
ATOM     23  H   UNL     1       2.523  11.735  18.360  0.00  0.00    +0.000 HD
ENDROOT
TORSDOF 0
ENDMDL
MODEL 3
REMARK VINA RESULT:      -7.1      1.907      3.713
REMARK  Name = 
REMARK  0 active torsions:
REMARK  status: ('A' for Active; 'I' for Inactive)
REMARK                            x       y       z     vdW  Elec       q    Type
REMARK                         _______ _______ _______ _____ _____    ______ ____
ROOT
ATOM      1  O   UNL     1       5.161   7.005  14.707  0.00  0.00    +0.000 OA
ATOM      2  C   UNL     1       5.418   5.983  15.328  0.00  0.00    +0.000 C 
ATOM      3  C   UNL     1       6.058   4.746  14.763  0.00  0.00    +0.000 C 
ATOM      4  S   UNL     1       7.173   4.202  16.096  0.00  0.00    +0.000 S 
ATOM      5  C   UNL     1       6.158   4.964  17.287  0.00  0.00    +0.000 C 
ATOM      6  N   UNL     1       6.259   4.733  18.552  0.00  0.00    +0.000 NA
ATOM      7  C   UNL     1       5.211   5.459  19.322  0.00  0.00    +0.000 C 
ATOM      8  C   UNL     1       3.827   5.416  18.605  0.00  0.00    +0.000 C 
ATOM      9  N   UNL     1       3.926   5.953  17.230  0.00  0.00    +0.000 NA
ATOM     10  N   UNL     1       5.229   5.776  16.681  0.00  0.00    +0.000 N 
ATOM     11  C   UNL     1       3.252   3.983  18.665  0.00  0.00    +0.000 A 
ATOM     12  C   UNL     1       3.747   2.791  18.140  0.00  0.00    +0.000 A 
ATOM     13  C   UNL     1       3.121   1.586  18.478  0.00  0.00    +0.000 A 
ATOM     14  C   UNL     1       2.000   1.570  19.313  0.00  0.00    +0.000 A 
ATOM     15  C   UNL     1       1.486   2.764  19.819  0.00  0.00    +0.000 A 
ATOM     16  C   UNL     1       2.116   3.961  19.504  0.00  0.00    +0.000 A 
ATOM     17  C   UNL     1       1.823   5.301  19.948  0.00  0.00    +0.000 A 
ATOM     18  C   UNL     1       0.811   5.763  20.773  0.00  0.00    +0.000 A 
ATOM     19  C   UNL     1       0.749   7.125  21.059  0.00  0.00    +0.000 A 
ATOM     20  C   UNL     1       1.686   8.009  20.505  0.00  0.00    +0.000 A 
ATOM     21  C   UNL     1       2.710   7.548  19.680  0.00  0.00    +0.000 A 
ATOM     22  C   UNL     1       2.780   6.186  19.416  0.00  0.00    +0.000 A 
ATOM     23  H   UNL     1       3.726   6.952  17.219  0.00  0.00    +0.000 HD
ENDROOT
TORSDOF 0
ENDMDL
MODEL 4
REMARK VINA RESULT:      -7.0      1.994      2.205
REMARK  Name = 
REMARK  0 active torsions:
REMARK  status: ('A' for Active; 'I' for Inactive)
REMARK                            x       y       z     vdW  Elec       q    Type
REMARK                         _______ _______ _______ _____ _____    ______ ____
ROOT
ATOM      1  O   UNL     1       8.404   5.154  19.874  0.00  0.00    +0.000 OA
ATOM      2  C   UNL     1       7.858   5.929  19.101  0.00  0.00    +0.000 C 
ATOM      3  C   UNL     1       8.245   7.362  18.870  0.00  0.00    +0.000 C 
ATOM      4  S   UNL     1       8.026   7.574  17.075  0.00  0.00    +0.000 S 
ATOM      5  C   UNL     1       6.824   6.314  17.050  0.00  0.00    +0.000 C 
ATOM      6  N   UNL     1       6.034   6.113  16.051  0.00  0.00    +0.000 NA
ATOM      7  C   UNL     1       5.058   5.026  16.341  0.00  0.00    +0.000 C 
ATOM      8  C   UNL     1       4.507   5.112  17.798  0.00  0.00    +0.000 C 
ATOM      9  N   UNL     1       5.610   5.095  18.783  0.00  0.00    +0.000 NA
ATOM     10  N   UNL     1       6.815   5.634  18.244  0.00  0.00    +0.000 N 
ATOM     11  C   UNL     1       3.580   6.341  17.934  0.00  0.00    +0.000 A 
ATOM     12  C   UNL     1       3.856   7.698  17.781  0.00  0.00    +0.000 A 
ATOM     13  C   UNL     1       2.797   8.613  17.790  0.00  0.00    +0.000 A 
ATOM     14  C   UNL     1       1.479   8.184  17.972  0.00  0.00    +0.000 A 
ATOM     15  C   UNL     1       1.203   6.828  18.152  0.00  0.00    +0.000 A 
ATOM     16  C   UNL     1       2.248   5.913  18.122  0.00  0.00    +0.000 A 
ATOM     17  C   UNL     1       2.215   4.475  18.215  0.00  0.00    +0.000 A 
ATOM     18  C   UNL     1       1.142   3.620  18.401  0.00  0.00    +0.000 A 
ATOM     19  C   UNL     1       1.379   2.248  18.450  0.00  0.00    +0.000 A 
ATOM     20  C   UNL     1       2.684   1.749  18.329  0.00  0.00    +0.000 A 
ATOM     21  C   UNL     1       3.766   2.605  18.135  0.00  0.00    +0.000 A 
ATOM     22  C   UNL     1       3.521   3.971  18.065  0.00  0.00    +0.000 A 
ATOM     23  H   UNL     1       5.812   4.142  19.082  0.00  0.00    +0.000 HD
ENDROOT
TORSDOF 0
ENDMDL
MODEL 5
REMARK VINA RESULT:      -6.9      1.362      1.388
REMARK  Name = 
REMARK  0 active torsions:
REMARK  status: ('A' for Active; 'I' for Inactive)
REMARK                            x       y       z     vdW  Elec       q    Type
REMARK                         _______ _______ _______ _____ _____    ______ ____
ROOT
ATOM      1  O   UNL     1       8.388   5.249  19.952  0.00  0.00    +0.000 OA
ATOM      2  C   UNL     1       7.720   5.797  19.087  0.00  0.00    +0.000 C 
ATOM      3  C   UNL     1       8.123   7.011  18.298  0.00  0.00    +0.000 C 
ATOM      4  S   UNL     1       7.497   6.655  16.626  0.00  0.00    +0.000 S 
ATOM      5  C   UNL     1       6.253   5.630  17.285  0.00  0.00    +0.000 C 
ATOM      6  N   UNL     1       5.239   5.224  16.602  0.00  0.00    +0.000 NA
ATOM      7  C   UNL     1       4.299   4.433  17.443  0.00  0.00    +0.000 C 
ATOM      8  C   UNL     1       4.115   5.061  18.859  0.00  0.00    +0.000 C 
ATOM      9  N   UNL     1       5.417   5.216  19.542  0.00  0.00    +0.000 NA
ATOM     10  N   UNL     1       6.488   5.382  18.616  0.00  0.00    +0.000 N 
ATOM     11  C   UNL     1       3.319   6.380  18.745  0.00  0.00    +0.000 A 
ATOM     12  C   UNL     1       3.627   7.563  18.077  0.00  0.00    +0.000 A 
ATOM     13  C   UNL     1       2.655   8.566  17.983  0.00  0.00    +0.000 A 
ATOM     14  C   UNL     1       1.396   8.400  18.566  0.00  0.00    +0.000 A 
ATOM     15  C   UNL     1       1.092   7.227  19.258  0.00  0.00    +0.000 A 
ATOM     16  C   UNL     1       2.046   6.220  19.336  0.00  0.00    +0.000 A 
ATOM     17  C   UNL     1       1.954   4.908  19.928  0.00  0.00    +0.000 A 
ATOM     18  C   UNL     1       0.908   4.313  20.613  0.00  0.00    +0.000 A 
ATOM     19  C   UNL     1       1.071   3.013  21.086  0.00  0.00    +0.000 A 
ATOM     20  C   UNL     1       2.280   2.331  20.883  0.00  0.00    +0.000 A 
ATOM     21  C   UNL     1       3.332   2.924  20.188  0.00  0.00    +0.000 A 
ATOM     22  C   UNL     1       3.157   4.212  19.700  0.00  0.00    +0.000 A 
ATOM     23  H   UNL     1       5.629   4.394  20.106  0.00  0.00    +0.000 HD
ENDROOT
TORSDOF 0
ENDMDL
MODEL 6
REMARK VINA RESULT:      -6.6     10.726     13.267
REMARK  Name = 
REMARK  0 active torsions:
REMARK  status: ('A' for Active; 'I' for Inactive)
REMARK                            x       y       z     vdW  Elec       q    Type
REMARK                         _______ _______ _______ _____ _____    ______ ____
ROOT
ATOM      1  O   UNL     1      -5.269  12.002  24.904  0.00  0.00    +0.000 OA
ATOM      2  C   UNL     1      -5.831  12.702  24.074  0.00  0.00    +0.000 C 
ATOM      3  C   UNL     1      -7.248  13.198  24.153  0.00  0.00    +0.000 C 
ATOM      4  S   UNL     1      -7.139  14.892  23.496  0.00  0.00    +0.000 S 
ATOM      5  C   UNL     1      -5.744  14.460  22.548  0.00  0.00    +0.000 C 
ATOM      6  N   UNL     1      -5.283  15.196  21.595  0.00  0.00    +0.000 NA
ATOM      7  C   UNL     1      -4.138  14.539  20.907  0.00  0.00    +0.000 C 
ATOM      8  C   UNL     1      -4.381  13.013  20.698  0.00  0.00    +0.000 C 
ATOM      9  N   UNL     1      -4.668  12.342  21.985  0.00  0.00    +0.000 NA
ATOM     10  N   UNL     1      -5.267  13.228  22.926  0.00  0.00    +0.000 N 
ATOM     11  C   UNL     1      -5.483  12.801  19.636  0.00  0.00    +0.000 A 
ATOM     12  C   UNL     1      -6.822  13.183  19.638  0.00  0.00    +0.000 A 
ATOM     13  C   UNL     1      -7.579  13.021  18.472  0.00  0.00    +0.000 A 
ATOM     14  C   UNL     1      -7.013  12.464  17.322  0.00  0.00    +0.000 A 
ATOM     15  C   UNL     1      -5.679  12.055  17.324  0.00  0.00    +0.000 A 
ATOM     16  C   UNL     1      -4.918  12.233  18.472  0.00  0.00    +0.000 A 
ATOM     17  C   UNL     1      -3.521  11.959  18.702  0.00  0.00    +0.000 A 
ATOM     18  C   UNL     1      -2.572  11.406  17.859  0.00  0.00    +0.000 A 
ATOM     19  C   UNL     1      -1.269  11.250  18.326  0.00  0.00    +0.000 A 
ATOM     20  C   UNL     1      -0.934  11.633  19.634  0.00  0.00    +0.000 A 
ATOM     21  C   UNL     1      -1.884  12.196  20.483  0.00  0.00    +0.000 A 
ATOM     22  C   UNL     1      -3.176  12.369  20.005  0.00  0.00    +0.000 A 
ATOM     23  H   UNL     1      -3.810  11.988  22.406  0.00  0.00    +0.000 HD
ENDROOT
TORSDOF 0
ENDMDL
MODEL 7
REMARK VINA RESULT:      -6.6      9.818     12.034
REMARK  Name = 
REMARK  0 active torsions:
REMARK  status: ('A' for Active; 'I' for Inactive)
REMARK                            x       y       z     vdW  Elec       q    Type
REMARK                         _______ _______ _______ _____ _____    ______ ____
ROOT
ATOM      1  O   UNL     1       3.972  14.325  17.877  0.00  0.00    +0.000 OA
ATOM      2  C   UNL     1       4.672  15.203  18.362  0.00  0.00    +0.000 C 
ATOM      3  C   UNL     1       4.283  16.645  18.536  0.00  0.00    +0.000 C 
ATOM      4  S   UNL     1       5.001  17.083  20.150  0.00  0.00    +0.000 S 
ATOM      5  C   UNL     1       6.231  15.867  19.960  0.00  0.00    +0.000 C 
ATOM      6  N   UNL     1       7.288  15.811  20.696  0.00  0.00    +0.000 NA
ATOM      7  C   UNL     1       8.201  14.721  20.255  0.00  0.00    +0.000 C 
ATOM      8  C   UNL     1       8.299  14.638  18.700  0.00  0.00    +0.000 C 
ATOM      9  N   UNL     1       6.960  14.471  18.093  0.00  0.00    +0.000 NA
ATOM     10  N   UNL     1       5.934  15.043  18.901  0.00  0.00    +0.000 N 
ATOM     11  C   UNL     1       9.071  15.862  18.159  0.00  0.00    +0.000 A 
ATOM     12  C   UNL     1       8.770  17.220  18.234  0.00  0.00    +0.000 A 
ATOM     13  C   UNL     1       9.724  18.153  17.810  0.00  0.00    +0.000 A 
ATOM     14  C   UNL     1      10.956  17.736  17.296  0.00  0.00    +0.000 A 
ATOM     15  C   UNL     1      11.249  16.376  17.195  0.00  0.00    +0.000 A 
ATOM     16  C   UNL     1      10.314  15.447  17.635  0.00  0.00    +0.000 A 
ATOM     17  C   UNL     1      10.405  14.009  17.699  0.00  0.00    +0.000 A 
ATOM     18  C   UNL     1      11.427  13.164  17.300  0.00  0.00    +0.000 A 
ATOM     19  C   UNL     1      11.269  11.791  17.478  0.00  0.00    +0.000 A 
ATOM     20  C   UNL     1      10.087  11.279  18.035  0.00  0.00    +0.000 A 
ATOM     21  C   UNL     1       9.060  12.127  18.442  0.00  0.00    +0.000 A 
ATOM     22  C   UNL     1       9.231  13.496  18.283  0.00  0.00    +0.000 A 
ATOM     23  H   UNL     1       6.738  13.483  17.976  0.00  0.00    +0.000 HD
ENDROOT
TORSDOF 0
ENDMDL
MODEL 8
REMARK VINA RESULT:      -6.4      9.877     11.199
REMARK  Name = 
REMARK  0 active torsions:
REMARK  status: ('A' for Active; 'I' for Inactive)
REMARK                            x       y       z     vdW  Elec       q    Type
REMARK                         _______ _______ _______ _____ _____    ______ ____
ROOT
ATOM      1  O   UNL     1       7.481  11.146  24.521  0.00  0.00    +0.000 OA
ATOM      2  C   UNL     1       7.277  12.284  24.124  0.00  0.00    +0.000 C 
ATOM      3  C   UNL     1       6.129  13.166  24.529  0.00  0.00    +0.000 C 
ATOM      4  S   UNL     1       6.890  14.815  24.656  0.00  0.00    +0.000 S 
ATOM      5  C   UNL     1       8.111  14.367  23.499  0.00  0.00    +0.000 C 
ATOM      6  N   UNL     1       8.881  15.222  22.919  0.00  0.00    +0.000 NA
ATOM      7  C   UNL     1       9.769  14.565  21.921  0.00  0.00    +0.000 C 
ATOM      8  C   UNL     1       9.014  13.476  21.098  0.00  0.00    +0.000 C 
ATOM      9  N   UNL     1       8.402  12.468  21.991  0.00  0.00    +0.000 NA
ATOM     10  N   UNL     1       8.083  13.012  23.270  0.00  0.00    +0.000 N 
ATOM     11  C   UNL     1       8.001  14.150  20.146  0.00  0.00    +0.000 A 
ATOM     12  C   UNL     1       6.891  14.944  20.427  0.00  0.00    +0.000 A 
ATOM     13  C   UNL     1       6.225  15.580  19.374  0.00  0.00    +0.000 A 
ATOM     14  C   UNL     1       6.647  15.411  18.052  0.00  0.00    +0.000 A 
ATOM     15  C   UNL     1       7.742  14.595  17.764  0.00  0.00    +0.000 A 
ATOM     16  C   UNL     1       8.420  13.978  18.808  0.00  0.00    +0.000 A 
ATOM     17  C   UNL     1       9.602  13.154  18.778  0.00  0.00    +0.000 A 
ATOM     18  C   UNL     1      10.356  12.719  17.701  0.00  0.00    +0.000 A 
ATOM     19  C   UNL     1      11.474  11.924  17.943  0.00  0.00    +0.000 A 
ATOM     20  C   UNL     1      11.815  11.560  19.254  0.00  0.00    +0.000 A 
ATOM     21  C   UNL     1      11.063  12.000  20.341  0.00  0.00    +0.000 A 
ATOM     22  C   UNL     1       9.962  12.810  20.095  0.00  0.00    +0.000 A 
ATOM     23  H   UNL     1       9.039  11.688  22.145  0.00  0.00    +0.000 HD
ENDROOT
TORSDOF 0
ENDMDL
MODEL 9
REMARK VINA RESULT:      -6.4     10.212     11.606
REMARK  Name = 
REMARK  0 active torsions:
REMARK  status: ('A' for Active; 'I' for Inactive)
REMARK                            x       y       z     vdW  Elec       q    Type
REMARK                         _______ _______ _______ _____ _____    ______ ____
ROOT
ATOM      1  O   UNL     1      12.224  16.750  16.782  0.00  0.00    +0.000 OA
ATOM      2  C   UNL     1      11.361  17.037  17.600  0.00  0.00    +0.000 C 
ATOM      3  C   UNL     1      11.232  18.349  18.321  0.00  0.00    +0.000 C 
ATOM      4  S   UNL     1       9.434  18.629  18.368  0.00  0.00    +0.000 S 
ATOM      5  C   UNL     1       9.141  16.914  18.294  0.00  0.00    +0.000 C 
ATOM      6  N   UNL     1       7.996  16.382  18.552  0.00  0.00    +0.000 NA
ATOM      7  C   UNL     1       8.061  14.896  18.490  0.00  0.00    +0.000 C 
ATOM      8  C   UNL     1       9.368  14.343  19.137  0.00  0.00    +0.000 C 
ATOM      9  N   UNL     1      10.565  14.942  18.506  0.00  0.00    +0.000 NA
ATOM     10  N   UNL     1      10.299  16.241  17.985  0.00  0.00    +0.000 N 
ATOM     11  C   UNL     1       9.317  14.541  20.669  0.00  0.00    +0.000 A 
ATOM     12  C   UNL     1       9.240  15.709  21.424  0.00  0.00    +0.000 A 
ATOM     13  C   UNL     1       9.033  15.614  22.805  0.00  0.00    +0.000 A 
ATOM     14  C   UNL     1       8.926  14.369  23.430  0.00  0.00    +0.000 A 
ATOM     15  C   UNL     1       9.030  13.197  22.681  0.00  0.00    +0.000 A 
ATOM     16  C   UNL     1       9.213  13.285  21.306  0.00  0.00    +0.000 A 
ATOM     17  C   UNL     1       9.283  12.238  20.318  0.00  0.00    +0.000 A 
ATOM     18  C   UNL     1       9.228  10.863  20.473  0.00  0.00    +0.000 A 
ATOM     19  C   UNL     1       9.313  10.057  19.340  0.00  0.00    +0.000 A 
ATOM     20  C   UNL     1       9.466  10.632  18.070  0.00  0.00    +0.000 A 
ATOM     21  C   UNL     1       9.514  12.015  17.909  0.00  0.00    +0.000 A 
ATOM     22  C   UNL     1       9.409  12.815  19.039  0.00  0.00    +0.000 A 
ATOM     23  H   UNL     1      10.890  14.365  17.731  0.00  0.00    +0.000 HD
ENDROOT
TORSDOF 0
ENDMDL
