MODEL 1
REMARK VINA RESULT:      -9.6      0.000      0.000
REMARK  Name = 
REMARK  5 active torsions:
REMARK  status: ('A' for Active; 'I' for Inactive)
REMARK    1  A    between atoms: C_1  and  S_2
REMARK    2  A    between atoms: S_2  and  C_3
REMARK    3  A    between atoms: C_6  and  C_7
REMARK    4  A    between atoms: C_7  and  C_8
REMARK    5  A    between atoms: C_8  and  O_9
REMARK                            x       y       z     vdW  Elec       q    Type
REMARK                         _______ _______ _______ _____ _____    ______ ____
ROOT
ATOM      1  C   UNL     1       4.103   5.920  17.713  0.00  0.00    +0.000 C 
ATOM      2  C   UNL     1       5.587   6.328  17.901  0.00  0.00    +0.000 A 
ATOM      3  C   UNL     1       6.371   7.287  17.286  0.00  0.00    +0.000 A 
ATOM      4  C   UNL     1       7.687   7.452  17.736  0.00  0.00    +0.000 A 
ATOM      5  C   UNL     1       8.208   6.663  18.782  0.00  0.00    +0.000 A 
ATOM      6  C   UNL     1       7.430   5.678  19.386  0.00  0.00    +0.000 A 
ATOM      7  C   UNL     1       6.144   5.524  18.917  0.00  0.00    +0.000 A 
ATOM      8  C   UNL     1       5.082   4.675  19.367  0.00  0.00    +0.000 A 
ATOM      9  N   UNL     1       4.892   3.375  19.164  0.00  0.00    +0.000 NA
ATOM     10  C   UNL     1       3.537   3.206  19.347  0.00  0.00    +0.000 A 
ATOM     11  C   UNL     1       2.738   2.064  19.435  0.00  0.00    +0.000 A 
ATOM     12  C   UNL     1       1.571   2.159  20.200  0.00  0.00    +0.000 A 
ATOM     13  C   UNL     1       1.255   3.348  20.863  0.00  0.00    +0.000 A 
ATOM     14  C   UNL     1       1.924   4.544  20.560  0.00  0.00    +0.000 A 
ATOM     15  C   UNL     1       2.947   4.454  19.608  0.00  0.00    +0.000 A 
ATOM     16  N   UNL     1       3.861   5.318  19.063  0.00  0.00    +0.000 N 
ENDROOT
BRANCH   1  17
ATOM     17  O   UNL     1       4.102   4.885  16.705  0.00  0.00    +0.000 OA
ATOM     18  H   UNL     1       4.077   5.327  15.835  0.00  0.00    +0.000 HD
ENDBRANCH   1  17
BRANCH   1  19
ATOM     19  C   UNL     1       3.225   7.071  17.172  0.00  0.00    +0.000 C 
BRANCH  19  23
ATOM     20  C   UNL     1       0.925   9.400  20.047  0.00  0.00    +0.000 A 
ATOM     21  C   UNL     1       1.029   9.804  18.714  0.00  0.00    +0.000 A 
ATOM     22  C   UNL     1       1.769   9.056  17.788  0.00  0.00    +0.000 A 
ATOM     23  C   UNL     1       2.444   7.901  18.178  0.00  0.00    +0.000 A 
ATOM     24  C   UNL     1       2.354   7.506  19.531  0.00  0.00    +0.000 A 
ATOM     25  C   UNL     1       1.604   8.245  20.453  0.00  0.00    +0.000 A 
BRANCH  20  27
ATOM     26  C   UNL     1       0.410   9.411  22.751  0.00  0.00    +0.000 C 
ATOM     27  S   UNL     1      -0.017  10.321  21.244  0.00  0.00    +0.000 S 
ENDBRANCH  20  27
ENDBRANCH  19  23
ENDBRANCH   1  19
TORSDOF 4
ENDMDL
MODEL 2
REMARK VINA RESULT:      -9.3      1.732      4.315
REMARK  Name = 
REMARK  5 active torsions:
REMARK  status: ('A' for Active; 'I' for Inactive)
REMARK    1  A    between atoms: C_1  and  S_2
REMARK    2  A    between atoms: S_2  and  C_3
REMARK    3  A    between atoms: C_6  and  C_7
REMARK    4  A    between atoms: C_7  and  C_8
REMARK    5  A    between atoms: C_8  and  O_9
REMARK                            x       y       z     vdW  Elec       q    Type
REMARK                         _______ _______ _______ _____ _____    ______ ____
ROOT
ATOM      1  C   UNL     1       3.190   5.411  18.761  0.00  0.00    +0.000 C 
ATOM      2  C   UNL     1       2.681   4.442  19.859  0.00  0.00    +0.000 A 
ATOM      3  C   UNL     1       1.568   4.471  20.679  0.00  0.00    +0.000 A 
ATOM      4  C   UNL     1       1.355   3.389  21.542  0.00  0.00    +0.000 A 
ATOM      5  C   UNL     1       2.248   2.299  21.585  0.00  0.00    +0.000 A 
ATOM      6  C   UNL     1       3.385   2.278  20.779  0.00  0.00    +0.000 A 
ATOM      7  C   UNL     1       3.582   3.360  19.950  0.00  0.00    +0.000 A 
ATOM      8  C   UNL     1       4.586   3.606  18.959  0.00  0.00    +0.000 A 
ATOM      9  N   UNL     1       5.849   3.992  19.110  0.00  0.00    +0.000 NA
ATOM     10  C   UNL     1       6.170   4.558  17.896  0.00  0.00    +0.000 A 
ATOM     11  C   UNL     1       7.380   5.000  17.358  0.00  0.00    +0.000 A 
ATOM     12  C   UNL     1       7.518   4.950  15.968  0.00  0.00    +0.000 A 
ATOM     13  C   UNL     1       6.483   4.447  15.173  0.00  0.00    +0.000 A 
ATOM     14  C   UNL     1       5.197   4.251  15.699  0.00  0.00    +0.000 A 
ATOM     15  C   UNL     1       5.040   4.534  17.062  0.00  0.00    +0.000 A 
ATOM     16  N   UNL     1       4.018   4.444  17.972  0.00  0.00    +0.000 N 
ENDROOT
BRANCH   1  17
ATOM     17  O   UNL     1       4.047   6.359  19.436  0.00  0.00    +0.000 OA
ATOM     18  H   UNL     1       3.661   6.524  20.317  0.00  0.00    +0.000 HD
ENDBRANCH   1  17
BRANCH   1  19
ATOM     19  C   UNL     1       2.054   6.226  18.103  0.00  0.00    +0.000 C 
BRANCH  19  23
ATOM     20  C   UNL     1       1.361  10.312  19.447  0.00  0.00    +0.000 A 
ATOM     21  C   UNL     1       1.813  10.048  18.153  0.00  0.00    +0.000 A 
ATOM     22  C   UNL     1       2.037   8.735  17.718  0.00  0.00    +0.000 A 
ATOM     23  C   UNL     1       1.839   7.655  18.577  0.00  0.00    +0.000 A 
ATOM     24  C   UNL     1       1.401   7.925  19.892  0.00  0.00    +0.000 A 
ATOM     25  C   UNL     1       1.164   9.236  20.321  0.00  0.00    +0.000 A 
BRANCH  20  27
ATOM     26  C   UNL     1      -0.044  11.619  21.421  0.00  0.00    +0.000 C 
ATOM     27  S   UNL     1       1.055  11.969  20.023  0.00  0.00    +0.000 S 
ENDBRANCH  20  27
ENDBRANCH  19  23
ENDBRANCH   1  19
TORSDOF 4
ENDMDL
MODEL 3
REMARK VINA RESULT:      -9.1      1.777      4.501
REMARK  Name = 
REMARK  5 active torsions:
REMARK  status: ('A' for Active; 'I' for Inactive)
REMARK    1  A    between atoms: C_1  and  S_2
REMARK    2  A    between atoms: S_2  and  C_3
REMARK    3  A    between atoms: C_6  and  C_7
REMARK    4  A    between atoms: C_7  and  C_8
REMARK    5  A    between atoms: C_8  and  O_9
REMARK                            x       y       z     vdW  Elec       q    Type
REMARK                         _______ _______ _______ _____ _____    ______ ____
ROOT
ATOM      1  C   UNL     1       3.176   5.409  18.743  0.00  0.00    +0.000 C 
ATOM      2  C   UNL     1       2.679   4.445  19.850  0.00  0.00    +0.000 A 
ATOM      3  C   UNL     1       1.566   4.469  20.671  0.00  0.00    +0.000 A 
ATOM      4  C   UNL     1       1.366   3.393  21.545  0.00  0.00    +0.000 A 
ATOM      5  C   UNL     1       2.271   2.314  21.597  0.00  0.00    +0.000 A 
ATOM      6  C   UNL     1       3.408   2.298  20.791  0.00  0.00    +0.000 A 
ATOM      7  C   UNL     1       3.591   3.374  19.951  0.00  0.00    +0.000 A 
ATOM      8  C   UNL     1       4.592   3.622  18.957  0.00  0.00    +0.000 A 
ATOM      9  N   UNL     1       5.851   4.023  19.104  0.00  0.00    +0.000 NA
ATOM     10  C   UNL     1       6.165   4.581  17.883  0.00  0.00    +0.000 A 
ATOM     11  C   UNL     1       7.369   5.031  17.340  0.00  0.00    +0.000 A 
ATOM     12  C   UNL     1       7.506   4.970  15.950  0.00  0.00    +0.000 A 
ATOM     13  C   UNL     1       6.477   4.447  15.161  0.00  0.00    +0.000 A 
ATOM     14  C   UNL     1       5.194   4.242  15.691  0.00  0.00    +0.000 A 
ATOM     15  C   UNL     1       5.034   4.536  17.051  0.00  0.00    +0.000 A 
ATOM     16  N   UNL     1       4.015   4.444  17.962  0.00  0.00    +0.000 N 
ENDROOT
BRANCH   1  17
ATOM     17  O   UNL     1       4.023   6.372  19.407  0.00  0.00    +0.000 OA
ATOM     18  H   UNL     1       4.073   7.160  18.833  0.00  0.00    +0.000 HD
ENDBRANCH   1  17
BRANCH   1  19
ATOM     19  C   UNL     1       2.030   6.205  18.078  0.00  0.00    +0.000 C 
BRANCH  19  23
ATOM     20  C   UNL     1       1.394  10.285  19.465  0.00  0.00    +0.000 A 
ATOM     21  C   UNL     1       1.190   9.197  20.316  0.00  0.00    +0.000 A 
ATOM     22  C   UNL     1       1.393   7.883  19.871  0.00  0.00    +0.000 A 
ATOM     23  C   UNL     1       1.781   7.626  18.558  0.00  0.00    +0.000 A 
ATOM     24  C   UNL     1       1.968   8.727  17.694  0.00  0.00    +0.000 A 
ATOM     25  C   UNL     1       1.778  10.039  18.141  0.00  0.00    +0.000 A 
BRANCH  20  27
ATOM     26  C   UNL     1       2.077  12.844  18.715  0.00  0.00    +0.000 C 
ATOM     27  S   UNL     1       1.156  11.965  20.005  0.00  0.00    +0.000 S 
ENDBRANCH  20  27
ENDBRANCH  19  23
ENDBRANCH   1  19
TORSDOF 4
ENDMDL
MODEL 4
REMARK VINA RESULT:      -9.1      1.308      4.395
REMARK  Name = 
REMARK  5 active torsions:
REMARK  status: ('A' for Active; 'I' for Inactive)
REMARK    1  A    between atoms: C_1  and  S_2
REMARK    2  A    between atoms: S_2  and  C_3
REMARK    3  A    between atoms: C_6  and  C_7
REMARK    4  A    between atoms: C_7  and  C_8
REMARK    5  A    between atoms: C_8  and  O_9
REMARK                            x       y       z     vdW  Elec       q    Type
REMARK                         _______ _______ _______ _____ _____    ______ ____
ROOT
ATOM      1  C   UNL     1       3.143   5.698  18.695  0.00  0.00    +0.000 C 
ATOM      2  C   UNL     1       2.490   4.292  18.717  0.00  0.00    +0.000 A 
ATOM      3  C   UNL     1       1.169   3.884  18.776  0.00  0.00    +0.000 A 
ATOM      4  C   UNL     1       0.899   2.511  18.716  0.00  0.00    +0.000 A 
ATOM      5  C   UNL     1       1.939   1.565  18.605  0.00  0.00    +0.000 A 
ATOM      6  C   UNL     1       3.271   1.970  18.573  0.00  0.00    +0.000 A 
ATOM      7  C   UNL     1       3.513   3.324  18.648  0.00  0.00    +0.000 A 
ATOM      8  C   UNL     1       4.739   4.060  18.561  0.00  0.00    +0.000 A 
ATOM      9  N   UNL     1       5.686   4.238  19.476  0.00  0.00    +0.000 NA
ATOM     10  C   UNL     1       6.325   5.390  19.070  0.00  0.00    +0.000 A 
ATOM     11  C   UNL     1       7.495   6.015  19.503  0.00  0.00    +0.000 A 
ATOM     12  C   UNL     1       8.200   6.774  18.564  0.00  0.00    +0.000 A 
ATOM     13  C   UNL     1       7.746   6.863  17.244  0.00  0.00    +0.000 A 
ATOM     14  C   UNL     1       6.452   6.448  16.895  0.00  0.00    +0.000 A 
ATOM     15  C   UNL     1       5.683   5.896  17.927  0.00  0.00    +0.000 A 
ATOM     16  N   UNL     1       4.436   5.335  18.031  0.00  0.00    +0.000 N 
ENDROOT
BRANCH   1  17
ATOM     17  O   UNL     1       3.380   6.047  20.077  0.00  0.00    +0.000 OA
ATOM     18  H   UNL     1       3.565   7.005  20.107  0.00  0.00    +0.000 HD
ENDBRANCH   1  17
BRANCH   1  19
ATOM     19  C   UNL     1       2.214   6.786  18.112  0.00  0.00    +0.000 C 
BRANCH  19  23
ATOM     20  C   UNL     1       0.715   9.873  20.795  0.00  0.00    +0.000 A 
ATOM     21  C   UNL     1       0.991  10.157  19.457  0.00  0.00    +0.000 A 
ATOM     22  C   UNL     1       1.474   9.166  18.592  0.00  0.00    +0.000 A 
ATOM     23  C   UNL     1       1.716   7.873  19.052  0.00  0.00    +0.000 A 
ATOM     24  C   UNL     1       1.456   7.593  20.411  0.00  0.00    +0.000 A 
ATOM     25  C   UNL     1       0.961   8.580  21.272  0.00  0.00    +0.000 A 
BRANCH  20  27
ATOM     26  C   UNL     1      -0.705  10.044  23.148  0.00  0.00    +0.000 C 
ATOM     27  S   UNL     1       0.089  11.108  21.915  0.00  0.00    +0.000 S 
ENDBRANCH  20  27
ENDBRANCH  19  23
ENDBRANCH   1  19
TORSDOF 4
ENDMDL
MODEL 5
REMARK VINA RESULT:      -8.8      1.949      2.546
REMARK  Name = 
REMARK  5 active torsions:
REMARK  status: ('A' for Active; 'I' for Inactive)
REMARK    1  A    between atoms: C_1  and  S_2
REMARK    2  A    between atoms: S_2  and  C_3
REMARK    3  A    between atoms: C_6  and  C_7
REMARK    4  A    between atoms: C_7  and  C_8
REMARK    5  A    between atoms: C_8  and  O_9
REMARK                            x       y       z     vdW  Elec       q    Type
REMARK                         _______ _______ _______ _____ _____    ______ ____
ROOT
ATOM      1  C   UNL     1       3.465   5.827  17.893  0.00  0.00    +0.000 C 
ATOM      2  C   UNL     1       4.440   5.426  16.756  0.00  0.00    +0.000 A 
ATOM      3  C   UNL     1       5.149   6.176  15.834  0.00  0.00    +0.000 A 
ATOM      4  C   UNL     1       6.011   5.504  14.959  0.00  0.00    +0.000 A 
ATOM      5  C   UNL     1       6.155   4.102  15.006  0.00  0.00    +0.000 A 
ATOM      6  C   UNL     1       5.423   3.340  15.915  0.00  0.00    +0.000 A 
ATOM      7  C   UNL     1       4.570   4.022  16.755  0.00  0.00    +0.000 A 
ATOM      8  C   UNL     1       3.754   3.555  17.835  0.00  0.00    +0.000 A 
ATOM      9  N   UNL     1       2.584   2.925  17.802  0.00  0.00    +0.000 NA
ATOM     10  C   UNL     1       2.035   3.182  19.039  0.00  0.00    +0.000 A 
ATOM     11  C   UNL     1       0.906   2.676  19.687  0.00  0.00    +0.000 A 
ATOM     12  C   UNL     1       0.933   2.641  21.084  0.00  0.00    +0.000 A 
ATOM     13  C   UNL     1       2.067   3.073  21.780  0.00  0.00    +0.000 A 
ATOM     14  C   UNL     1       3.075   3.805  21.135  0.00  0.00    +0.000 A 
ATOM     15  C   UNL     1       2.898   4.021  19.763  0.00  0.00    +0.000 A 
ATOM     16  N   UNL     1       3.620   4.615  18.761  0.00  0.00    +0.000 N 
ENDROOT
BRANCH   1  17
ATOM     17  O   UNL     1       2.148   5.842  17.298  0.00  0.00    +0.000 OA
ATOM     18  H   UNL     1       2.146   5.179  16.582  0.00  0.00    +0.000 HD
ENDBRANCH   1  17
BRANCH   1  19
ATOM     19  C   UNL     1       3.726   7.249  18.438  0.00  0.00    +0.000 C 
BRANCH  19  23
ATOM     20  C   UNL     1       0.324   9.846  19.251  0.00  0.00    +0.000 A 
ATOM     21  C   UNL     1       0.780   8.938  20.208  0.00  0.00    +0.000 A 
ATOM     22  C   UNL     1       1.873   8.101  19.949  0.00  0.00    +0.000 A 
ATOM     23  C   UNL     1       2.521   8.135  18.716  0.00  0.00    +0.000 A 
ATOM     24  C   UNL     1       2.046   9.040  17.741  0.00  0.00    +0.000 A 
ATOM     25  C   UNL     1       0.962   9.885  18.005  0.00  0.00    +0.000 A 
BRANCH  20  27
ATOM     26  C   UNL     1      -2.144  10.449  18.190  0.00  0.00    +0.000 C 
ATOM     27  S   UNL     1      -1.054  10.931  19.556  0.00  0.00    +0.000 S 
ENDBRANCH  20  27
ENDBRANCH  19  23
ENDBRANCH   1  19
TORSDOF 4
ENDMDL
MODEL 6
REMARK VINA RESULT:      -8.4      1.566      4.524
REMARK  Name = 
REMARK  5 active torsions:
REMARK  status: ('A' for Active; 'I' for Inactive)
REMARK    1  A    between atoms: C_1  and  S_2
REMARK    2  A    between atoms: S_2  and  C_3
REMARK    3  A    between atoms: C_6  and  C_7
REMARK    4  A    between atoms: C_7  and  C_8
REMARK    5  A    between atoms: C_8  and  O_9
REMARK                            x       y       z     vdW  Elec       q    Type
REMARK                         _______ _______ _______ _____ _____    ______ ____
ROOT
ATOM      1  C   UNL     1       2.963   5.944  19.018  0.00  0.00    +0.000 C 
ATOM      2  C   UNL     1       2.411   4.739  19.823  0.00  0.00    +0.000 A 
ATOM      3  C   UNL     1       1.178   4.496  20.402  0.00  0.00    +0.000 A 
ATOM      4  C   UNL     1       0.972   3.257  21.020  0.00  0.00    +0.000 A 
ATOM      5  C   UNL     1       1.989   2.281  21.062  0.00  0.00    +0.000 A 
ATOM      6  C   UNL     1       3.241   2.532  20.504  0.00  0.00    +0.000 A 
ATOM      7  C   UNL     1       3.425   3.763  19.914  0.00  0.00    +0.000 A 
ATOM      8  C   UNL     1       4.543   4.296  19.193  0.00  0.00    +0.000 A 
ATOM      9  N   UNL     1       5.693   4.781  19.651  0.00  0.00    +0.000 NA
ATOM     10  C   UNL     1       6.138   5.593  18.631  0.00  0.00    +0.000 A 
ATOM     11  C   UNL     1       7.349   6.254  18.421  0.00  0.00    +0.000 A 
ATOM     12  C   UNL     1       7.734   6.478  17.095  0.00  0.00    +0.000 A 
ATOM     13  C   UNL     1       6.936   6.021  16.042  0.00  0.00    +0.000 A 
ATOM     14  C   UNL     1       5.619   5.593  16.266  0.00  0.00    +0.000 A 
ATOM     15  C   UNL     1       5.186   5.601  17.598  0.00  0.00    +0.000 A 
ATOM     16  N   UNL     1       4.045   5.235  18.262  0.00  0.00    +0.000 N 
ENDROOT
BRANCH   1  17
ATOM     17  O   UNL     1       3.547   6.838  19.992  0.00  0.00    +0.000 OA
ATOM     18  H   UNL     1       2.941   7.597  20.089  0.00  0.00    +0.000 HD
ENDBRANCH   1  17
BRANCH   1  19
ATOM     19  C   UNL     1       1.856   6.739  18.288  0.00  0.00    +0.000 C 
BRANCH  19  23
ATOM     20  C   UNL     1       1.247  10.924  19.332  0.00  0.00    +0.000 A 
ATOM     21  C   UNL     1       1.853  10.565  18.127  0.00  0.00    +0.000 A 
ATOM     22  C   UNL     1       2.051   9.220  17.790  0.00  0.00    +0.000 A 
ATOM     23  C   UNL     1       1.670   8.201  18.661  0.00  0.00    +0.000 A 
ATOM     24  C   UNL     1       1.075   8.567  19.889  0.00  0.00    +0.000 A 
ATOM     25  C   UNL     1       0.865   9.911  20.220  0.00  0.00    +0.000 A 
BRANCH  20  27
ATOM     26  C   UNL     1      -0.796  12.769  19.406  0.00  0.00    +0.000 C 
ATOM     27  S   UNL     1       0.971  12.625  19.783  0.00  0.00    +0.000 S 
ENDBRANCH  20  27
ENDBRANCH  19  23
ENDBRANCH   1  19
TORSDOF 4
ENDMDL
MODEL 7
REMARK VINA RESULT:      -8.3      1.520      4.500
REMARK  Name = 
REMARK  5 active torsions:
REMARK  status: ('A' for Active; 'I' for Inactive)
REMARK    1  A    between atoms: C_1  and  S_2
REMARK    2  A    between atoms: S_2  and  C_3
REMARK    3  A    between atoms: C_6  and  C_7
REMARK    4  A    between atoms: C_7  and  C_8
REMARK    5  A    between atoms: C_8  and  O_9
REMARK                            x       y       z     vdW  Elec       q    Type
REMARK                         _______ _______ _______ _____ _____    ______ ____
ROOT
ATOM      1  C   UNL     1       3.004   5.884  18.996  0.00  0.00    +0.000 C 
ATOM      2  C   UNL     1       2.460   4.721  19.866  0.00  0.00    +0.000 A 
ATOM      3  C   UNL     1       1.243   4.521  20.492  0.00  0.00    +0.000 A 
ATOM      4  C   UNL     1       1.038   3.310  21.165  0.00  0.00    +0.000 A 
ATOM      5  C   UNL     1       2.040   2.320  21.212  0.00  0.00    +0.000 A 
ATOM      6  C   UNL     1       3.277   2.527  20.605  0.00  0.00    +0.000 A 
ATOM      7  C   UNL     1       3.461   3.732  19.962  0.00  0.00    +0.000 A 
ATOM      8  C   UNL     1       4.563   4.217  19.186  0.00  0.00    +0.000 A 
ATOM      9  N   UNL     1       5.734   4.700  19.588  0.00  0.00    +0.000 NA
ATOM     10  C   UNL     1       6.159   5.464  18.523  0.00  0.00    +0.000 A 
ATOM     11  C   UNL     1       7.373   6.097  18.249  0.00  0.00    +0.000 A 
ATOM     12  C   UNL     1       7.718   6.262  16.904  0.00  0.00    +0.000 A 
ATOM     13  C   UNL     1       6.879   5.779  15.895  0.00  0.00    +0.000 A 
ATOM     14  C   UNL     1       5.564   5.382  16.177  0.00  0.00    +0.000 A 
ATOM     15  C   UNL     1       5.175   5.449  17.521  0.00  0.00    +0.000 A 
ATOM     16  N   UNL     1       4.050   5.128  18.235  0.00  0.00    +0.000 N 
ENDROOT
BRANCH   1  17
ATOM     17  O   UNL     1       3.633   6.805  19.916  0.00  0.00    +0.000 OA
ATOM     18  H   UNL     1       3.701   6.352  20.778  0.00  0.00    +0.000 HD
ENDBRANCH   1  17
BRANCH   1  19
ATOM     19  C   UNL     1       1.887   6.669  18.272  0.00  0.00    +0.000 C 
BRANCH  19  23
ATOM     20  C   UNL     1       1.145  10.744  19.620  0.00  0.00    +0.000 A 
ATOM     21  C   UNL     1       0.879   9.653  20.450  0.00  0.00    +0.000 A 
ATOM     22  C   UNL     1       1.117   8.341  20.018  0.00  0.00    +0.000 A 
ATOM     23  C   UNL     1       1.601   8.088  18.736  0.00  0.00    +0.000 A 
ATOM     24  C   UNL     1       1.849   9.192  17.891  0.00  0.00    +0.000 A 
ATOM     25  C   UNL     1       1.624  10.503  18.327  0.00  0.00    +0.000 A 
BRANCH  20  27
ATOM     26  C   UNL     1      -0.170  12.129  21.603  0.00  0.00    +0.000 C 
ATOM     27  S   UNL     1       0.865  12.422  20.145  0.00  0.00    +0.000 S 
ENDBRANCH  20  27
ENDBRANCH  19  23
ENDBRANCH   1  19
TORSDOF 4
ENDMDL
MODEL 8
REMARK VINA RESULT:      -8.1      2.068      4.732
REMARK  Name = 
REMARK  5 active torsions:
REMARK  status: ('A' for Active; 'I' for Inactive)
REMARK    1  A    between atoms: C_1  and  S_2
REMARK    2  A    between atoms: S_2  and  C_3
REMARK    3  A    between atoms: C_6  and  C_7
REMARK    4  A    between atoms: C_7  and  C_8
REMARK    5  A    between atoms: C_8  and  O_9
REMARK                            x       y       z     vdW  Elec       q    Type
REMARK                         _______ _______ _______ _____ _____    ______ ____
ROOT
ATOM      1  C   UNL     1       3.908   5.107  19.012  0.00  0.00    +0.000 C 
ATOM      2  C   UNL     1       2.657   4.241  19.310  0.00  0.00    +0.000 A 
ATOM      3  C   UNL     1       1.790   4.202  20.388  0.00  0.00    +0.000 A 
ATOM      4  C   UNL     1       0.696   3.331  20.324  0.00  0.00    +0.000 A 
ATOM      5  C   UNL     1       0.478   2.509  19.200  0.00  0.00    +0.000 A 
ATOM      6  C   UNL     1       1.363   2.525  18.123  0.00  0.00    +0.000 A 
ATOM      7  C   UNL     1       2.440   3.379  18.215  0.00  0.00    +0.000 A 
ATOM      8  C   UNL     1       3.469   3.689  17.267  0.00  0.00    +0.000 A 
ATOM      9  N   UNL     1       4.550   2.992  16.932  0.00  0.00    +0.000 NA
ATOM     10  C   UNL     1       5.406   3.939  16.414  0.00  0.00    +0.000 A 
ATOM     11  C   UNL     1       6.626   3.833  15.743  0.00  0.00    +0.000 A 
ATOM     12  C   UNL     1       6.946   4.847  14.835  0.00  0.00    +0.000 A 
ATOM     13  C   UNL     1       6.051   5.897  14.604  0.00  0.00    +0.000 A 
ATOM     14  C   UNL     1       4.964   6.121  15.461  0.00  0.00    +0.000 A 
ATOM     15  C   UNL     1       4.806   5.206  16.510  0.00  0.00    +0.000 A 
ATOM     16  N   UNL     1       3.897   5.013  17.517  0.00  0.00    +0.000 N 
ENDROOT
BRANCH   1  17
ATOM     17  O   UNL     1       5.033   4.372  19.543  0.00  0.00    +0.000 OA
ATOM     18  H   UNL     1       5.521   3.999  18.784  0.00  0.00    +0.000 HD
ENDBRANCH   1  17
BRANCH   1  19
ATOM     19  C   UNL     1       3.883   6.472  19.736  0.00  0.00    +0.000 C 
BRANCH  19  23
ATOM     20  C   UNL     1       0.738   9.313  18.731  0.00  0.00    +0.000 A 
ATOM     21  C   UNL     1       0.847   8.789  20.020  0.00  0.00    +0.000 A 
ATOM     22  C   UNL     1       1.858   7.874  20.345  0.00  0.00    +0.000 A 
ATOM     23  C   UNL     1       2.768   7.443  19.382  0.00  0.00    +0.000 A 
ATOM     24  C   UNL     1       2.643   7.959  18.074  0.00  0.00    +0.000 A 
ATOM     25  C   UNL     1       1.642   8.883  17.752  0.00  0.00    +0.000 A 
BRANCH  20  27
ATOM     26  C   UNL     1      -0.944  11.132  19.932  0.00  0.00    +0.000 C 
ATOM     27  S   UNL     1      -0.527  10.487  18.291  0.00  0.00    +0.000 S 
ENDBRANCH  20  27
ENDBRANCH  19  23
ENDBRANCH   1  19
TORSDOF 4
ENDMDL
MODEL 9
REMARK VINA RESULT:      -7.6      5.139      8.318
REMARK  Name = 
REMARK  5 active torsions:
REMARK  status: ('A' for Active; 'I' for Inactive)
REMARK    1  A    between atoms: C_1  and  S_2
REMARK    2  A    between atoms: S_2  and  C_3
REMARK    3  A    between atoms: C_6  and  C_7
REMARK    4  A    between atoms: C_7  and  C_8
REMARK    5  A    between atoms: C_8  and  O_9
REMARK                            x       y       z     vdW  Elec       q    Type
REMARK                         _______ _______ _______ _____ _____    ______ ____
ROOT
ATOM      1  C   UNL     1      -0.388  11.602  19.525  0.00  0.00    +0.000 C 
ATOM      2  C   UNL     1       0.438  10.293  19.435  0.00  0.00    +0.000 A 
ATOM      3  C   UNL     1       0.994   9.619  18.362  0.00  0.00    +0.000 A 
ATOM      4  C   UNL     1       1.752   8.471  18.624  0.00  0.00    +0.000 A 
ATOM      5  C   UNL     1       1.945   8.006  19.941  0.00  0.00    +0.000 A 
ATOM      6  C   UNL     1       1.365   8.667  21.023  0.00  0.00    +0.000 A 
ATOM      7  C   UNL     1       0.611   9.784  20.739  0.00  0.00    +0.000 A 
ATOM      8  C   UNL     1      -0.039  10.718  21.609  0.00  0.00    +0.000 A 
ATOM      9  N   UNL     1      -1.182  10.598  22.277  0.00  0.00    +0.000 NA
ATOM     10  C   UNL     1      -1.569  11.902  22.504  0.00  0.00    +0.000 A 
ATOM     11  C   UNL     1      -2.585  12.454  23.286  0.00  0.00    +0.000 A 
ATOM     12  C   UNL     1      -2.370  13.738  23.797  0.00  0.00    +0.000 A 
ATOM     13  C   UNL     1      -1.168  14.406  23.546  0.00  0.00    +0.000 A 
ATOM     14  C   UNL     1      -0.279  13.950  22.562  0.00  0.00    +0.000 A 
ATOM     15  C   UNL     1      -0.644  12.770  21.902  0.00  0.00    +0.000 A 
ATOM     16  N   UNL     1      -0.081  11.965  20.946  0.00  0.00    +0.000 N 
ENDROOT
BRANCH   1  17
ATOM     17  O   UNL     1      -1.773  11.204  19.407  0.00  0.00    +0.000 OA
ATOM     18  H   UNL     1      -1.986  11.174  18.455  0.00  0.00    +0.000 HD
ENDBRANCH   1  17
BRANCH   1  19
ATOM     19  C   UNL     1      -0.102  12.577  18.362  0.00  0.00    +0.000 C 
BRANCH  19  23
ATOM     20  C   UNL     1       3.245  15.344  18.711  0.00  0.00    +0.000 A 
ATOM     21  C   UNL     1       3.443  14.025  18.297  0.00  0.00    +0.000 A 
ATOM     22  C   UNL     1       2.368  13.134  18.185  0.00  0.00    +0.000 A 
ATOM     23  C   UNL     1       1.072  13.532  18.509  0.00  0.00    +0.000 A 
ATOM     24  C   UNL     1       0.877  14.860  18.947  0.00  0.00    +0.000 A 
ATOM     25  C   UNL     1       1.949  15.755  19.047  0.00  0.00    +0.000 A 
BRANCH  20  27
ATOM     26  C   UNL     1       5.979  15.432  18.400  0.00  0.00    +0.000 C 
ATOM     27  S   UNL     1       4.589  16.503  18.852  0.00  0.00    +0.000 S 
ENDBRANCH  20  27
ENDBRANCH  19  23
ENDBRANCH   1  19
TORSDOF 4
ENDMDL
