MODEL 1
REMARK VINA RESULT:      -7.7      0.000      0.000
REMARK  Name = 
REMARK  9 active torsions:
REMARK  status: ('A' for Active; 'I' for Inactive)
REMARK    1  A    between atoms: C_1  and  O_2
REMARK    2  A    between atoms: O_2  and  C_3
REMARK    3  A    between atoms: N_15  and  C_16
REMARK    4  A    between atoms: C_16  and  C_17
REMARK    5  A    between atoms: C_17  and  C_18
REMARK    6  A    between atoms: C_18  and  C_19
REMARK    7  A    between atoms: C_19  and  N_20
REMARK    8  A    between atoms: C_27  and  O_28
REMARK    9  A    between atoms: O_28  and  C_29
REMARK                            x       y       z     vdW  Elec       q    Type
REMARK                         _______ _______ _______ _____ _____    ______ ____
ROOT
ATOM      1  C   UNL     1       2.875   2.914  18.608  0.00  0.00    +0.000 A 
ATOM      2  C   UNL     1       3.271   2.980  17.251  0.00  0.00    +0.000 A 
ATOM      3  C   UNL     1       4.275   3.821  16.772  0.00  0.00    +0.000 A 
ATOM      4  N   UNL     1       4.641   3.765  15.489  0.00  0.00    +0.000 NA
ATOM      5  C   UNL     1       5.648   4.547  15.062  0.00  0.00    +0.000 A 
ATOM      6  N   UNL     1       6.047   4.485  13.759  0.00  0.00    +0.000 N 
ATOM      7  C   UNL     1       5.392   3.677  12.755  0.00  0.00    +0.000 C 
ATOM      8  C   UNL     1       6.558   3.170  11.911  0.00  0.00    +0.000 C 
ATOM      9  C   UNL     1       7.566   4.312  11.969  0.00  0.00    +0.000 C 
ATOM     10  C   UNL     1       7.362   4.941  13.351  0.00  0.00    +0.000 C 
ATOM     11  N   UNL     1       6.286   5.409  15.866  0.00  0.00    +0.000 NA
ATOM     12  C   UNL     1       5.892   5.509  17.144  0.00  0.00    +0.000 A 
ATOM     13  N   UNL     1       6.459   6.511  17.934  0.00  0.00    +0.000 N 
ATOM     14  C   UNL     1       4.857   4.701  17.661  0.00  0.00    +0.000 A 
ATOM     15  C   UNL     1       4.392   4.731  19.003  0.00  0.00    +0.000 A 
ATOM     16  C   UNL     1       3.418   3.850  19.495  0.00  0.00    +0.000 A 
ATOM     17  H   UNL     1       6.760   6.207  18.850  0.00  0.00    +0.000 HD
ENDROOT
BRANCH   1  19
ATOM     18  C   UNL     1       0.611   2.341  18.971  0.00  0.00    +0.000 C 
ATOM     19  O   UNL     1       1.997   1.957  19.040  0.00  0.00    +0.000 OA
ENDBRANCH   1  19
BRANCH  16  20
ATOM     20  O   UNL     1       3.206   4.087  20.817  0.00  0.00    +0.000 OA
ATOM     21  C   UNL     1       2.125   4.853  21.308  0.00  0.00    +0.000 C 
ENDBRANCH  16  20
BRANCH  13  22
ATOM     22  C   UNL     1       7.240   7.571  17.313  0.00  0.00    +0.000 C 
BRANCH  22  23
ATOM     23  C   UNL     1       8.268   8.133  18.303  0.00  0.00    +0.000 C 
BRANCH  23  24
ATOM     24  C   UNL     1       8.484   9.628  18.052  0.00  0.00    +0.000 C 
BRANCH  24  25
ATOM     25  C   UNL     1       9.245  10.302  19.195  0.00  0.00    +0.000 C 
BRANCH  25  26
ATOM     26  N   UNL     1       9.677  11.672  18.857  0.00  0.00    +0.000 NA
ATOM     27  C   UNL     1      10.996  11.668  18.222  0.00  0.00    +0.000 C 
ATOM     28  C   UNL     1      11.976  11.904  19.352  0.00  0.00    +0.000 C 
ATOM     29  C   UNL     1      11.246  12.927  20.193  0.00  0.00    +0.000 C 
ATOM     30  C   UNL     1       9.782  12.568  20.027  0.00  0.00    +0.000 C 
ENDBRANCH  25  26
ENDBRANCH  24  25
ENDBRANCH  23  24
ENDBRANCH  22  23
ENDBRANCH  13  22
TORSDOF 7
ENDMDL
MODEL 2
REMARK VINA RESULT:      -7.6      2.608      5.405
REMARK  Name = 
REMARK  9 active torsions:
REMARK  status: ('A' for Active; 'I' for Inactive)
REMARK    1  A    between atoms: C_1  and  O_2
REMARK    2  A    between atoms: O_2  and  C_3
REMARK    3  A    between atoms: N_15  and  C_16
REMARK    4  A    between atoms: C_16  and  C_17
REMARK    5  A    between atoms: C_17  and  C_18
REMARK    6  A    between atoms: C_18  and  C_19
REMARK    7  A    between atoms: C_19  and  N_20
REMARK    8  A    between atoms: C_27  and  O_28
REMARK    9  A    between atoms: O_28  and  C_29
REMARK                            x       y       z     vdW  Elec       q    Type
REMARK                         _______ _______ _______ _____ _____    ______ ____
ROOT
ATOM      1  C   UNL     1       5.933   3.581  13.133  0.00  0.00    +0.000 A 
ATOM      2  C   UNL     1       5.235   3.390  14.350  0.00  0.00    +0.000 A 
ATOM      3  C   UNL     1       5.401   4.193  15.478  0.00  0.00    +0.000 A 
ATOM      4  N   UNL     1       4.646   3.992  16.561  0.00  0.00    +0.000 NA
ATOM      5  C   UNL     1       4.785   4.815  17.616  0.00  0.00    +0.000 A 
ATOM      6  N   UNL     1       4.006   4.633  18.721  0.00  0.00    +0.000 N 
ATOM      7  C   UNL     1       3.073   3.541  18.878  0.00  0.00    +0.000 C 
ATOM      8  C   UNL     1       1.900   4.194  19.602  0.00  0.00    +0.000 C 
ATOM      9  C   UNL     1       2.561   5.255  20.473  0.00  0.00    +0.000 C 
ATOM     10  C   UNL     1       3.787   5.707  19.673  0.00  0.00    +0.000 C 
ATOM     11  N   UNL     1       5.676   5.816  17.641  0.00  0.00    +0.000 NA
ATOM     12  C   UNL     1       6.472   5.995  16.578  0.00  0.00    +0.000 A 
ATOM     13  N   UNL     1       7.495   6.942  16.669  0.00  0.00    +0.000 N 
ATOM     14  C   UNL     1       6.362   5.181  15.429  0.00  0.00    +0.000 A 
ATOM     15  C   UNL     1       7.153   5.315  14.257  0.00  0.00    +0.000 A 
ATOM     16  C   UNL     1       6.952   4.539  13.107  0.00  0.00    +0.000 A 
ATOM     17  H   UNL     1       7.573   7.557  15.871  0.00  0.00    +0.000 HD
ENDROOT
BRANCH   1  19
ATOM     18  C   UNL     1       4.318   3.164  11.459  0.00  0.00    +0.000 C 
ATOM     19  O   UNL     1       5.610   2.859  12.016  0.00  0.00    +0.000 OA
ENDBRANCH   1  19
BRANCH  16  20
ATOM     20  O   UNL     1       7.827   4.916  12.137  0.00  0.00    +0.000 OA
ATOM     21  C   UNL     1       8.608   6.091  12.205  0.00  0.00    +0.000 C 
ENDBRANCH  16  20
BRANCH  13  22
ATOM     22  C   UNL     1       7.844   7.510  17.963  0.00  0.00    +0.000 C 
BRANCH  22  23
ATOM     23  C   UNL     1       7.913   9.039  17.879  0.00  0.00    +0.000 C 
BRANCH  23  24
ATOM     24  C   UNL     1       9.006   9.574  18.809  0.00  0.00    +0.000 C 
BRANCH  24  25
ATOM     25  C   UNL     1       9.395  11.015  18.475  0.00  0.00    +0.000 C 
BRANCH  25  26
ATOM     26  N   UNL     1      10.765  11.347  18.912  0.00  0.00    +0.000 NA
ATOM     27  C   UNL     1      10.805  11.648  20.343  0.00  0.00    +0.000 C 
ATOM     28  C   UNL     1      10.679  13.155  20.432  0.00  0.00    +0.000 C 
ATOM     29  C   UNL     1      11.524  13.610  19.263  0.00  0.00    +0.000 C 
ATOM     30  C   UNL     1      11.339  12.522  18.224  0.00  0.00    +0.000 C 
ENDBRANCH  25  26
ENDBRANCH  24  25
ENDBRANCH  23  24
ENDBRANCH  22  23
ENDBRANCH  13  22
TORSDOF 7
ENDMDL
MODEL 3
REMARK VINA RESULT:      -7.2      2.626      5.441
REMARK  Name = 
REMARK  9 active torsions:
REMARK  status: ('A' for Active; 'I' for Inactive)
REMARK    1  A    between atoms: C_1  and  O_2
REMARK    2  A    between atoms: O_2  and  C_3
REMARK    3  A    between atoms: N_15  and  C_16
REMARK    4  A    between atoms: C_16  and  C_17
REMARK    5  A    between atoms: C_17  and  C_18
REMARK    6  A    between atoms: C_18  and  C_19
REMARK    7  A    between atoms: C_19  and  N_20
REMARK    8  A    between atoms: C_27  and  O_28
REMARK    9  A    between atoms: O_28  and  C_29
REMARK                            x       y       z     vdW  Elec       q    Type
REMARK                         _______ _______ _______ _____ _____    ______ ____
ROOT
ATOM      1  C   UNL     1       5.860   3.626  12.999  0.00  0.00    +0.000 A 
ATOM      2  C   UNL     1       5.156   3.433  14.212  0.00  0.00    +0.000 A 
ATOM      3  C   UNL     1       5.343   4.212  15.354  0.00  0.00    +0.000 A 
ATOM      4  N   UNL     1       4.582   4.014  16.433  0.00  0.00    +0.000 NA
ATOM      5  C   UNL     1       4.742   4.814  17.502  0.00  0.00    +0.000 A 
ATOM      6  N   UNL     1       3.958   4.635  18.603  0.00  0.00    +0.000 N 
ATOM      7  C   UNL     1       2.995   3.567  18.741  0.00  0.00    +0.000 C 
ATOM      8  C   UNL     1       1.840   4.240  19.476  0.00  0.00    +0.000 C 
ATOM      9  C   UNL     1       2.530   5.267  20.366  0.00  0.00    +0.000 C 
ATOM     10  C   UNL     1       3.768   5.698  19.573  0.00  0.00    +0.000 C 
ATOM     11  N   UNL     1       5.661   5.789  17.544  0.00  0.00    +0.000 NA
ATOM     12  C   UNL     1       6.464   5.964  16.485  0.00  0.00    +0.000 A 
ATOM     13  N   UNL     1       7.512   6.880  16.593  0.00  0.00    +0.000 N 
ATOM     14  C   UNL     1       6.332   5.174  15.323  0.00  0.00    +0.000 A 
ATOM     15  C   UNL     1       7.127   5.305  14.153  0.00  0.00    +0.000 A 
ATOM     16  C   UNL     1       6.905   4.555  12.990  0.00  0.00    +0.000 A 
ATOM     17  H   UNL     1       7.608   7.507  15.806  0.00  0.00    +0.000 HD
ENDROOT
BRANCH   1  19
ATOM     18  C   UNL     1       6.332   1.774  11.610  0.00  0.00    +0.000 C 
ATOM     19  O   UNL     1       5.518   2.933  11.870  0.00  0.00    +0.000 OA
ENDBRANCH   1  19
BRANCH  16  20
ATOM     20  O   UNL     1       7.791   4.924  12.026  0.00  0.00    +0.000 OA
ATOM     21  C   UNL     1       8.404   6.196  11.976  0.00  0.00    +0.000 C 
ENDBRANCH  16  20
BRANCH  13  22
ATOM     22  C   UNL     1       7.876   7.416  17.897  0.00  0.00    +0.000 C 
BRANCH  22  23
ATOM     23  C   UNL     1       7.577   8.918  17.965  0.00  0.00    +0.000 C 
BRANCH  23  24
ATOM     24  C   UNL     1       8.832   9.691  18.379  0.00  0.00    +0.000 C 
BRANCH  24  25
ATOM     25  C   UNL     1       8.767  11.163  17.966  0.00  0.00    +0.000 C 
BRANCH  25  26
ATOM     26  N   UNL     1       9.589  12.030  18.832  0.00  0.00    +0.000 NA
ATOM     27  C   UNL     1      10.476  12.881  18.039  0.00  0.00    +0.000 C 
ATOM     28  C   UNL     1      11.788  12.128  17.971  0.00  0.00    +0.000 C 
ATOM     29  C   UNL     1      11.894  11.555  19.368  0.00  0.00    +0.000 C 
ATOM     30  C   UNL     1      10.457  11.284  19.768  0.00  0.00    +0.000 C 
ENDBRANCH  25  26
ENDBRANCH  24  25
ENDBRANCH  23  24
ENDBRANCH  22  23
ENDBRANCH  13  22
TORSDOF 7
ENDMDL
MODEL 4
REMARK VINA RESULT:      -7.1      0.714      1.098
REMARK  Name = 
REMARK  9 active torsions:
REMARK  status: ('A' for Active; 'I' for Inactive)
REMARK    1  A    between atoms: C_1  and  O_2
REMARK    2  A    between atoms: O_2  and  C_3
REMARK    3  A    between atoms: N_15  and  C_16
REMARK    4  A    between atoms: C_16  and  C_17
REMARK    5  A    between atoms: C_17  and  C_18
REMARK    6  A    between atoms: C_18  and  C_19
REMARK    7  A    between atoms: C_19  and  N_20
REMARK    8  A    between atoms: C_27  and  O_28
REMARK    9  A    between atoms: O_28  and  C_29
REMARK                            x       y       z     vdW  Elec       q    Type
REMARK                         _______ _______ _______ _____ _____    ______ ____
ROOT
ATOM      1  C   UNL     1       2.927   3.007  18.649  0.00  0.00    +0.000 A 
ATOM      2  C   UNL     1       3.286   3.074  17.282  0.00  0.00    +0.000 A 
ATOM      3  C   UNL     1       4.353   3.826  16.792  0.00  0.00    +0.000 A 
ATOM      4  N   UNL     1       4.673   3.774  15.497  0.00  0.00    +0.000 NA
ATOM      5  C   UNL     1       5.740   4.464  15.058  0.00  0.00    +0.000 A 
ATOM      6  N   UNL     1       6.090   4.403  13.741  0.00  0.00    +0.000 N 
ATOM      7  C   UNL     1       5.328   3.694  12.738  0.00  0.00    +0.000 C 
ATOM      8  C   UNL     1       6.411   3.101  11.842  0.00  0.00    +0.000 C 
ATOM      9  C   UNL     1       7.529   4.135  11.897  0.00  0.00    +0.000 C 
ATOM     10  C   UNL     1       7.432   4.738  13.302  0.00  0.00    +0.000 C 
ATOM     11  N   UNL     1       6.484   5.235  15.864  0.00  0.00    +0.000 NA
ATOM     12  C   UNL     1       6.142   5.334  17.156  0.00  0.00    +0.000 A 
ATOM     13  N   UNL     1       6.830   6.251  17.954  0.00  0.00    +0.000 N 
ATOM     14  C   UNL     1       5.047   4.617  17.685  0.00  0.00    +0.000 A 
ATOM     15  C   UNL     1       4.629   4.652  19.043  0.00  0.00    +0.000 A 
ATOM     16  C   UNL     1       3.588   3.857  19.542  0.00  0.00    +0.000 A 
ATOM     17  H   UNL     1       7.127   5.891  18.850  0.00  0.00    +0.000 HD
ENDROOT
BRANCH   1  19
ATOM     18  C   UNL     1       0.617   2.536  18.814  0.00  0.00    +0.000 C 
ATOM     19  O   UNL     1       1.972   2.128  19.084  0.00  0.00    +0.000 OA
ENDBRANCH   1  19
BRANCH  16  20
ATOM     20  O   UNL     1       3.441   4.074  20.876  0.00  0.00    +0.000 OA
ATOM     21  C   UNL     1       2.221   4.465  21.473  0.00  0.00    +0.000 C 
ENDBRANCH  16  20
BRANCH  13  22
ATOM     22  C   UNL     1       7.693   7.247  17.336  0.00  0.00    +0.000 C 
BRANCH  22  23
ATOM     23  C   UNL     1       7.355   8.649  17.855  0.00  0.00    +0.000 C 
BRANCH  23  24
ATOM     24  C   UNL     1       8.614   9.336  18.391  0.00  0.00    +0.000 C 
BRANCH  24  25
ATOM     25  C   UNL     1       8.719  10.792  17.935  0.00  0.00    +0.000 C 
BRANCH  25  26
ATOM     26  N   UNL     1       9.825  11.513  18.592  0.00  0.00    +0.000 NA
ATOM     27  C   UNL     1       9.385  12.818  19.087  0.00  0.00    +0.000 C 
ATOM     28  C   UNL     1       9.735  13.795  17.984  0.00  0.00    +0.000 C 
ATOM     29  C   UNL     1      11.076  13.273  17.516  0.00  0.00    +0.000 C 
ATOM     30  C   UNL     1      10.977  11.772  17.703  0.00  0.00    +0.000 C 
ENDBRANCH  25  26
ENDBRANCH  24  25
ENDBRANCH  23  24
ENDBRANCH  22  23
ENDBRANCH  13  22
TORSDOF 7
ENDMDL
MODEL 5
REMARK VINA RESULT:      -7.1      0.808      1.006
REMARK  Name = 
REMARK  9 active torsions:
REMARK  status: ('A' for Active; 'I' for Inactive)
REMARK    1  A    between atoms: C_1  and  O_2
REMARK    2  A    between atoms: O_2  and  C_3
REMARK    3  A    between atoms: N_15  and  C_16
REMARK    4  A    between atoms: C_16  and  C_17
REMARK    5  A    between atoms: C_17  and  C_18
REMARK    6  A    between atoms: C_18  and  C_19
REMARK    7  A    between atoms: C_19  and  N_20
REMARK    8  A    between atoms: C_27  and  O_28
REMARK    9  A    between atoms: O_28  and  C_29
REMARK                            x       y       z     vdW  Elec       q    Type
REMARK                         _______ _______ _______ _____ _____    ______ ____
ROOT
ATOM      1  C   UNL     1       2.175   3.863  18.588  0.00  0.00    +0.000 A 
ATOM      2  C   UNL     1       2.646   3.793  17.255  0.00  0.00    +0.000 A 
ATOM      3  C   UNL     1       3.828   4.388  16.814  0.00  0.00    +0.000 A 
ATOM      4  N   UNL     1       4.241   4.209  15.557  0.00  0.00    +0.000 NA
ATOM      5  C   UNL     1       5.412   4.745  15.171  0.00  0.00    +0.000 A 
ATOM      6  N   UNL     1       5.855   4.553  13.895  0.00  0.00    +0.000 N 
ATOM      7  C   UNL     1       5.098   3.864  12.875  0.00  0.00    +0.000 C 
ATOM      8  C   UNL     1       6.173   3.094  12.114  0.00  0.00    +0.000 C 
ATOM      9  C   UNL     1       7.395   4.000  12.202  0.00  0.00    +0.000 C 
ATOM     10  C   UNL     1       7.257   4.708  13.554  0.00  0.00    +0.000 C 
ATOM     11  N   UNL     1       6.174   5.485  15.989  0.00  0.00    +0.000 NA
ATOM     12  C   UNL     1       5.745   5.711  17.238  0.00  0.00    +0.000 A 
ATOM     13  N   UNL     1       6.468   6.601  18.035  0.00  0.00    +0.000 N 
ATOM     14  C   UNL     1       4.536   5.158  17.714  0.00  0.00    +0.000 A 
ATOM     15  C   UNL     1       4.019   5.334  19.025  0.00  0.00    +0.000 A 
ATOM     16  C   UNL     1       2.857   4.696  19.481  0.00  0.00    +0.000 A 
ATOM     17  H   UNL     1       6.651   6.274  18.974  0.00  0.00    +0.000 HD
ENDROOT
BRANCH   1  19
ATOM     18  C   UNL     1       1.386   1.750  19.295  0.00  0.00    +0.000 C 
ATOM     19  O   UNL     1       1.093   3.127  18.991  0.00  0.00    +0.000 OA
ENDBRANCH   1  19
BRANCH  16  20
ATOM     20  O   UNL     1       2.631   5.021  20.782  0.00  0.00    +0.000 OA
ATOM     21  C   UNL     1       2.388   4.065  21.793  0.00  0.00    +0.000 C 
ENDBRANCH  16  20
BRANCH  13  22
ATOM     22  C   UNL     1       7.487   7.450  17.435  0.00  0.00    +0.000 C 
BRANCH  22  23
ATOM     23  C   UNL     1       8.380   8.068  18.518  0.00  0.00    +0.000 C 
BRANCH  23  24
ATOM     24  C   UNL     1       8.547   9.570  18.275  0.00  0.00    +0.000 C 
BRANCH  24  25
ATOM     25  C   UNL     1       9.292  10.262  19.418  0.00  0.00    +0.000 C 
BRANCH  25  26
ATOM     26  N   UNL     1      10.408  11.100  18.940  0.00  0.00    +0.000 NA
ATOM     27  C   UNL     1      11.028  11.834  20.044  0.00  0.00    +0.000 C 
ATOM     28  C   UNL     1      10.344  13.185  20.052  0.00  0.00    +0.000 C 
ATOM     29  C   UNL     1      10.209  13.477  18.573  0.00  0.00    +0.000 C 
ATOM     30  C   UNL     1      10.005  12.113  17.943  0.00  0.00    +0.000 C 
ENDBRANCH  25  26
ENDBRANCH  24  25
ENDBRANCH  23  24
ENDBRANCH  22  23
ENDBRANCH  13  22
TORSDOF 7
ENDMDL
MODEL 6
REMARK VINA RESULT:      -7.0      7.542     10.813
REMARK  Name = 
REMARK  9 active torsions:
REMARK  status: ('A' for Active; 'I' for Inactive)
REMARK    1  A    between atoms: C_1  and  O_2
REMARK    2  A    between atoms: O_2  and  C_3
REMARK    3  A    between atoms: N_15  and  C_16
REMARK    4  A    between atoms: C_16  and  C_17
REMARK    5  A    between atoms: C_17  and  C_18
REMARK    6  A    between atoms: C_18  and  C_19
REMARK    7  A    between atoms: C_19  and  N_20
REMARK    8  A    between atoms: C_27  and  O_28
REMARK    9  A    between atoms: O_28  and  C_29
REMARK                            x       y       z     vdW  Elec       q    Type
REMARK                         _______ _______ _______ _____ _____    ______ ____
ROOT
ATOM      1  C   UNL     1      -3.888  11.314  17.458  0.00  0.00    +0.000 A 
ATOM      2  C   UNL     1      -3.163  11.953  18.492  0.00  0.00    +0.000 A 
ATOM      3  C   UNL     1      -1.808  11.740  18.740  0.00  0.00    +0.000 A 
ATOM      4  N   UNL     1      -1.180  12.442  19.687  0.00  0.00    +0.000 NA
ATOM      5  C   UNL     1       0.138  12.259  19.871  0.00  0.00    +0.000 A 
ATOM      6  N   UNL     1       0.796  12.985  20.820  0.00  0.00    +0.000 N 
ATOM      7  C   UNL     1       0.144  13.905  21.725  0.00  0.00    +0.000 C 
ATOM      8  C   UNL     1       1.151  15.047  21.835  0.00  0.00    +0.000 C 
ATOM      9  C   UNL     1       2.500  14.350  21.703  0.00  0.00    +0.000 C 
ATOM     10  C   UNL     1       2.235  13.164  20.769  0.00  0.00    +0.000 C 
ATOM     11  N   UNL     1       0.852  11.372  19.163  0.00  0.00    +0.000 NA
ATOM     12  C   UNL     1       0.221  10.626  18.245  0.00  0.00    +0.000 A 
ATOM     13  N   UNL     1       0.938   9.604  17.617  0.00  0.00    +0.000 N 
ATOM     14  C   UNL     1      -1.157  10.786  17.986  0.00  0.00    +0.000 A 
ATOM     15  C   UNL     1      -1.896  10.050  17.020  0.00  0.00    +0.000 A 
ATOM     16  C   UNL     1      -3.246  10.301  16.738  0.00  0.00    +0.000 A 
ATOM     17  H   UNL     1       0.826   9.566  16.613  0.00  0.00    +0.000 HD
ENDROOT
BRANCH   1  19
ATOM     18  C   UNL     1      -6.158  11.225  18.110  0.00  0.00    +0.000 C 
ATOM     19  O   UNL     1      -5.173  11.684  17.166  0.00  0.00    +0.000 OA
ENDBRANCH   1  19
BRANCH  16  20
ATOM     20  O   UNL     1      -3.672   9.473  15.747  0.00  0.00    +0.000 OA
ATOM     21  C   UNL     1      -3.711   9.844  14.384  0.00  0.00    +0.000 C 
ENDBRANCH  16  20
BRANCH  13  22
ATOM     22  C   UNL     1       2.233   9.198  18.142  0.00  0.00    +0.000 C 
BRANCH  22  23
ATOM     23  C   UNL     1       2.089   7.954  19.028  0.00  0.00    +0.000 C 
BRANCH  23  24
ATOM     24  C   UNL     1       2.612   6.716  18.293  0.00  0.00    +0.000 C 
BRANCH  24  25
ATOM     25  C   UNL     1       3.348   5.756  19.229  0.00  0.00    +0.000 C 
BRANCH  25  26
ATOM     26  N   UNL     1       2.943   4.351  19.031  0.00  0.00    +0.000 NA
ATOM     27  C   UNL     1       1.499   4.242  18.825  0.00  0.00    +0.000 C 
ATOM     28  C   UNL     1       0.927   3.953  20.197  0.00  0.00    +0.000 C 
ATOM     29  C   UNL     1       1.956   3.006  20.774  0.00  0.00    +0.000 C 
ATOM     30  C   UNL     1       3.268   3.473  20.175  0.00  0.00    +0.000 C 
ENDBRANCH  25  26
ENDBRANCH  24  25
ENDBRANCH  23  24
ENDBRANCH  22  23
ENDBRANCH  13  22
TORSDOF 7
ENDMDL
MODEL 7
REMARK VINA RESULT:      -6.9      2.963      4.769
REMARK  Name = 
REMARK  9 active torsions:
REMARK  status: ('A' for Active; 'I' for Inactive)
REMARK    1  A    between atoms: C_1  and  O_2
REMARK    2  A    between atoms: O_2  and  C_3
REMARK    3  A    between atoms: N_15  and  C_16
REMARK    4  A    between atoms: C_16  and  C_17
REMARK    5  A    between atoms: C_17  and  C_18
REMARK    6  A    between atoms: C_18  and  C_19
REMARK    7  A    between atoms: C_19  and  N_20
REMARK    8  A    between atoms: C_27  and  O_28
REMARK    9  A    between atoms: O_28  and  C_29
REMARK                            x       y       z     vdW  Elec       q    Type
REMARK                         _______ _______ _______ _____ _____    ______ ____
ROOT
ATOM      1  C   UNL     1       2.915   2.997  20.757  0.00  0.00    +0.000 A 
ATOM      2  C   UNL     1       2.367   4.300  20.696  0.00  0.00    +0.000 A 
ATOM      3  C   UNL     1       2.852   5.312  19.868  0.00  0.00    +0.000 A 
ATOM      4  N   UNL     1       2.228   6.492  19.813  0.00  0.00    +0.000 NA
ATOM      5  C   UNL     1       2.682   7.432  18.967  0.00  0.00    +0.000 A 
ATOM      6  N   UNL     1       2.042   8.634  18.886  0.00  0.00    +0.000 N 
ATOM      7  C   UNL     1       0.929   9.012  19.727  0.00  0.00    +0.000 C 
ATOM      8  C   UNL     1       0.032   9.798  18.776  0.00  0.00    +0.000 C 
ATOM      9  C   UNL     1       1.017  10.471  17.827  0.00  0.00    +0.000 C 
ATOM     10  C   UNL     1       2.188   9.489  17.723  0.00  0.00    +0.000 C 
ATOM     11  N   UNL     1       3.760   7.249  18.191  0.00  0.00    +0.000 NA
ATOM     12  C   UNL     1       4.422   6.087  18.275  0.00  0.00    +0.000 A 
ATOM     13  N   UNL     1       5.625   5.959  17.577  0.00  0.00    +0.000 N 
ATOM     14  C   UNL     1       3.985   5.049  19.127  0.00  0.00    +0.000 A 
ATOM     15  C   UNL     1       4.618   3.784  19.261  0.00  0.00    +0.000 A 
ATOM     16  C   UNL     1       4.100   2.752  20.056  0.00  0.00    +0.000 A 
ATOM     17  H   UNL     1       5.722   5.099  17.056  0.00  0.00    +0.000 HD
ENDROOT
BRANCH   1  19
ATOM     18  C   UNL     1       1.159   2.442  22.238  0.00  0.00    +0.000 C 
ATOM     19  O   UNL     1       2.296   2.006  21.470  0.00  0.00    +0.000 OA
ENDBRANCH   1  19
BRANCH  16  20
ATOM     20  O   UNL     1       4.894   1.652  19.958  0.00  0.00    +0.000 OA
ATOM     21  C   UNL     1       5.451   0.991  21.076  0.00  0.00    +0.000 C 
ENDBRANCH  16  20
BRANCH  13  22
ATOM     22  C   UNL     1       6.262   7.138  17.006  0.00  0.00    +0.000 C 
BRANCH  22  23
ATOM     23  C   UNL     1       7.563   7.461  17.751  0.00  0.00    +0.000 C 
BRANCH  23  24
ATOM     24  C   UNL     1       7.792   8.974  17.788  0.00  0.00    +0.000 C 
BRANCH  24  25
ATOM     25  C   UNL     1       8.979   9.358  18.673  0.00  0.00    +0.000 C 
BRANCH  25  26
ATOM     26  N   UNL     1       9.020  10.803  18.969  0.00  0.00    +0.000 NA
ATOM     27  C   UNL     1      10.077  11.469  18.208  0.00  0.00    +0.000 C 
ATOM     28  C   UNL     1      11.272  11.498  19.137  0.00  0.00    +0.000 C 
ATOM     29  C   UNL     1      10.626  11.795  20.472  0.00  0.00    +0.000 C 
ATOM     30  C   UNL     1       9.276  11.110  20.392  0.00  0.00    +0.000 C 
ENDBRANCH  25  26
ENDBRANCH  24  25
ENDBRANCH  23  24
ENDBRANCH  22  23
ENDBRANCH  13  22
TORSDOF 7
ENDMDL
MODEL 8
REMARK VINA RESULT:      -6.9      3.882      7.124
REMARK  Name = 
REMARK  9 active torsions:
REMARK  status: ('A' for Active; 'I' for Inactive)
REMARK    1  A    between atoms: C_1  and  O_2
REMARK    2  A    between atoms: O_2  and  C_3
REMARK    3  A    between atoms: N_15  and  C_16
REMARK    4  A    between atoms: C_16  and  C_17
REMARK    5  A    between atoms: C_17  and  C_18
REMARK    6  A    between atoms: C_18  and  C_19
REMARK    7  A    between atoms: C_19  and  N_20
REMARK    8  A    between atoms: C_27  and  O_28
REMARK    9  A    between atoms: O_28  and  C_29
REMARK                            x       y       z     vdW  Elec       q    Type
REMARK                         _______ _______ _______ _____ _____    ______ ____
ROOT
ATOM      1  C   UNL     1       2.718   3.247  21.161  0.00  0.00    +0.000 A 
ATOM      2  C   UNL     1       2.256   4.583  21.211  0.00  0.00    +0.000 A 
ATOM      3  C   UNL     1       2.491   5.527  20.211  0.00  0.00    +0.000 A 
ATOM      4  N   UNL     1       1.953   6.746  20.299  0.00  0.00    +0.000 NA
ATOM      5  C   UNL     1       2.147   7.620  19.297  0.00  0.00    +0.000 A 
ATOM      6  N   UNL     1       1.586   8.862  19.365  0.00  0.00    +0.000 N 
ATOM      7  C   UNL     1       0.843   9.349  20.505  0.00  0.00    +0.000 C 
ATOM      8  C   UNL     1      -0.275  10.163  19.862  0.00  0.00    +0.000 C 
ATOM      9  C   UNL     1       0.371  10.729  18.603  0.00  0.00    +0.000 C 
ATOM     10  C   UNL     1       1.382   9.662  18.171  0.00  0.00    +0.000 C 
ATOM     11  N   UNL     1       2.891   7.332  18.219  0.00  0.00    +0.000 NA
ATOM     12  C   UNL     1       3.477   6.129  18.145  0.00  0.00    +0.000 A 
ATOM     13  N   UNL     1       4.366   5.890  17.095  0.00  0.00    +0.000 N 
ATOM     14  C   UNL     1       3.293   5.157  19.152  0.00  0.00    +0.000 A 
ATOM     15  C   UNL     1       3.862   3.855  19.141  0.00  0.00    +0.000 A 
ATOM     16  C   UNL     1       3.584   2.892  20.121  0.00  0.00    +0.000 A 
ATOM     17  H   UNL     1       4.233   5.007  16.622  0.00  0.00    +0.000 HD
ENDROOT
BRANCH   1  19
ATOM     18  C   UNL     1       0.896   2.257  22.294  0.00  0.00    +0.000 C 
ATOM     19  O   UNL     1       2.320   2.329  22.095  0.00  0.00    +0.000 OA
ENDBRANCH   1  19
BRANCH  16  20
ATOM     20  O   UNL     1       4.235   1.734  19.829  0.00  0.00    +0.000 OA
ATOM     21  C   UNL     1       4.117   1.064  18.591  0.00  0.00    +0.000 C 
ENDBRANCH  16  20
BRANCH  13  22
ATOM     22  C   UNL     1       4.839   6.998  16.278  0.00  0.00    +0.000 C 
BRANCH  22  23
ATOM     23  C   UNL     1       6.356   6.908  16.075  0.00  0.00    +0.000 C 
BRANCH  23  24
ATOM     24  C   UNL     1       6.878   5.553  16.564  0.00  0.00    +0.000 C 
BRANCH  24  25
ATOM     25  C   UNL     1       7.155   4.590  15.409  0.00  0.00    +0.000 C 
BRANCH  25  26
ATOM     26  N   UNL     1       6.658   5.098  14.116  0.00  0.00    +0.000 NA
ATOM     27  C   UNL     1       5.530   4.301  13.634  0.00  0.00    +0.000 C 
ATOM     28  C   UNL     1       6.143   3.270  12.709  0.00  0.00    +0.000 C 
ATOM     29  C   UNL     1       7.207   4.078  11.999  0.00  0.00    +0.000 C 
ATOM     30  C   UNL     1       7.671   5.077  13.040  0.00  0.00    +0.000 C 
ENDBRANCH  25  26
ENDBRANCH  24  25
ENDBRANCH  23  24
ENDBRANCH  22  23
ENDBRANCH  13  22
TORSDOF 7
ENDMDL
MODEL 9
REMARK VINA RESULT:      -6.8      4.651      8.644
REMARK  Name = 
REMARK  9 active torsions:
REMARK  status: ('A' for Active; 'I' for Inactive)
REMARK    1  A    between atoms: C_1  and  O_2
REMARK    2  A    between atoms: O_2  and  C_3
REMARK    3  A    between atoms: N_15  and  C_16
REMARK    4  A    between atoms: C_16  and  C_17
REMARK    5  A    between atoms: C_17  and  C_18
REMARK    6  A    between atoms: C_18  and  C_19
REMARK    7  A    between atoms: C_19  and  N_20
REMARK    8  A    between atoms: C_27  and  O_28
REMARK    9  A    between atoms: O_28  and  C_29
REMARK                            x       y       z     vdW  Elec       q    Type
REMARK                         _______ _______ _______ _____ _____    ______ ____
ROOT
ATOM      1  C   UNL     1       5.935   6.116  16.229  0.00  0.00    +0.000 A 
ATOM      2  C   UNL     1       4.823   6.975  16.400  0.00  0.00    +0.000 A 
ATOM      3  C   UNL     1       3.986   6.952  17.515  0.00  0.00    +0.000 A 
ATOM      4  N   UNL     1       3.004   7.850  17.635  0.00  0.00    +0.000 NA
ATOM      5  C   UNL     1       2.245   7.844  18.744  0.00  0.00    +0.000 A 
ATOM      6  N   UNL     1       1.252   8.768  18.889  0.00  0.00    +0.000 N 
ATOM      7  C   UNL     1       0.893   9.729  17.871  0.00  0.00    +0.000 C 
ATOM      8  C   UNL     1       0.568  10.980  18.682  0.00  0.00    +0.000 C 
ATOM      9  C   UNL     1      -0.015  10.428  19.977  0.00  0.00    +0.000 C 
ATOM     10  C   UNL     1       0.715   9.099  20.196  0.00  0.00    +0.000 C 
ATOM     11  N   UNL     1       2.410   6.950  19.729  0.00  0.00    +0.000 NA
ATOM     12  C   UNL     1       3.360   6.014  19.596  0.00  0.00    +0.000 A 
ATOM     13  N   UNL     1       3.429   5.000  20.554  0.00  0.00    +0.000 N 
ATOM     14  C   UNL     1       4.207   5.979  18.467  0.00  0.00    +0.000 A 
ATOM     15  C   UNL     1       5.247   5.034  18.257  0.00  0.00    +0.000 A 
ATOM     16  C   UNL     1       6.119   5.089  17.161  0.00  0.00    +0.000 A 
ATOM     17  H   UNL     1       4.359   4.805  20.897  0.00  0.00    +0.000 HD
ENDROOT
BRANCH   1  19
ATOM     18  C   UNL     1       6.927   5.163  14.307  0.00  0.00    +0.000 C 
ATOM     19  O   UNL     1       6.809   6.294  15.190  0.00  0.00    +0.000 OA
ENDBRANCH   1  19
BRANCH  16  20
ATOM     20  O   UNL     1       7.032   4.085  17.246  0.00  0.00    +0.000 OA
ATOM     21  C   UNL     1       8.248   4.195  17.958  0.00  0.00    +0.000 C 
ENDBRANCH  16  20
BRANCH  13  22
ATOM     22  C   UNL     1       2.338   4.821  21.501  0.00  0.00    +0.000 C 
BRANCH  22  23
ATOM     23  C   UNL     1       2.185   3.341  21.873  0.00  0.00    +0.000 C 
BRANCH  23  24
ATOM     24  C   UNL     1       1.097   2.688  21.016  0.00  0.00    +0.000 C 
BRANCH  24  25
ATOM     25  C   UNL     1       0.655   3.585  19.860  0.00  0.00    +0.000 C 
BRANCH  25  26
ATOM     26  N   UNL     1       0.769   2.917  18.549  0.00  0.00    +0.000 NA
ATOM     27  C   UNL     1       1.590   1.709  18.642  0.00  0.00    +0.000 C 
ATOM     28  C   UNL     1       2.987   2.153  18.258  0.00  0.00    +0.000 C 
ATOM     29  C   UNL     1       2.710   3.121  17.130  0.00  0.00    +0.000 C 
ATOM     30  C   UNL     1       1.386   3.760  17.504  0.00  0.00    +0.000 C 
ENDBRANCH  25  26
ENDBRANCH  24  25
ENDBRANCH  23  24
ENDBRANCH  22  23
ENDBRANCH  13  22
TORSDOF 7
ENDMDL
