MODEL 1
REMARK VINA RESULT:      -7.5      0.000      0.000
REMARK  Name = 
REMARK  4 active torsions:
REMARK  status: ('A' for Active; 'I' for Inactive)
REMARK    1  A    between atoms: C_1  and  C_2
REMARK    2  A    between atoms: C_2  and  N_3
REMARK    3  A    between atoms: C_2  and  C_15
REMARK    4  A    between atoms: C_4  and  C_6
REMARK                            x       y       z     vdW  Elec       q    Type
REMARK                         _______ _______ _______ _____ _____    ______ ____
ROOT
ATOM      1  N   UNL     1       4.899   3.025  18.898  0.00  0.00    +0.000 N 
ATOM      2  C   UNL     1       5.281   4.337  18.686  0.00  0.00    +0.000 C 
ATOM      3  O   UNL     1       5.157   5.228  19.516  0.00  0.00    +0.000 OA
ATOM      4  H   UNL     1       5.273   2.303  18.299  0.00  0.00    +0.000 HD
ENDROOT
BRANCH   2   5
ATOM      5  C   UNL     1       5.878   4.650  17.354  0.00  0.00    +0.000 A 
ATOM      6  C   UNL     1       6.868   5.648  17.213  0.00  0.00    +0.000 A 
ATOM      7  C   UNL     1       7.459   5.893  15.969  0.00  0.00    +0.000 A 
ATOM      8  C   UNL     1       7.046   5.126  14.901  0.00  0.00    +0.000 A 
ATOM      9  C   UNL     1       6.086   4.150  15.035  0.00  0.00    +0.000 A 
ATOM     10  C   UNL     1       5.485   3.884  16.248  0.00  0.00    +0.000 A 
ATOM     11  O   UNL     1       5.835   3.509  13.862  0.00  0.00    +0.000 OA
ATOM     12  C   UNL     1       6.748   4.191  12.976  0.00  0.00    +0.000 C 
ATOM     13  O   UNL     1       7.524   5.214  13.632  0.00  0.00    +0.000 OA
ENDBRANCH   2   5
BRANCH   1  15
ATOM     14  C   UNL     1       5.118   1.462  20.769  0.00  0.00    +0.000 C 
ATOM     15  C   UNL     1       4.311   2.619  20.170  0.00  0.00    +0.000 C 
BRANCH  15  16
ATOM     16  C   UNL     1       2.824   2.226  20.025  0.00  0.00    +0.000 C 
ATOM     17  C   UNL     1       2.288   2.204  18.570  0.00  0.00    +0.000 C 
ATOM     18  C   UNL     1       1.092   3.171  18.623  0.00  0.00    +0.000 C 
ATOM     19  C   UNL     1       1.633   4.604  18.786  0.00  0.00    +0.000 C 
ATOM     20  C   UNL     1       2.034   4.652  20.267  0.00  0.00    +0.000 C 
ATOM     21  C   UNL     1       1.826   3.197  20.723  0.00  0.00    +0.000 C 
ATOM     22  C   UNL     1       0.513   2.874  20.006  0.00  0.00    +0.000 C 
ENDBRANCH  15  16
ENDBRANCH   1  15
TORSDOF 3
ENDMDL
MODEL 2
REMARK VINA RESULT:      -7.3      4.230      6.469
REMARK  Name = 
REMARK  4 active torsions:
REMARK  status: ('A' for Active; 'I' for Inactive)
REMARK    1  A    between atoms: C_1  and  C_2
REMARK    2  A    between atoms: C_2  and  N_3
REMARK    3  A    between atoms: C_2  and  C_15
REMARK    4  A    between atoms: C_4  and  C_6
REMARK                            x       y       z     vdW  Elec       q    Type
REMARK                         _______ _______ _______ _____ _____    ______ ____
ROOT
ATOM      1  N   UNL     1       3.367   6.274  19.110  0.00  0.00    +0.000 N 
ATOM      2  C   UNL     1       2.352   6.773  19.905  0.00  0.00    +0.000 C 
ATOM      3  O   UNL     1       1.890   6.184  20.874  0.00  0.00    +0.000 OA
ATOM      4  H   UNL     1       3.880   6.909  18.515  0.00  0.00    +0.000 HD
ENDROOT
BRANCH   2   5
ATOM      5  C   UNL     1       1.810   8.113  19.532  0.00  0.00    +0.000 A 
ATOM      6  C   UNL     1       1.985   8.636  18.231  0.00  0.00    +0.000 A 
ATOM      7  C   UNL     1       1.426   9.868  17.878  0.00  0.00    +0.000 A 
ATOM      8  C   UNL     1       0.698  10.539  18.837  0.00  0.00    +0.000 A 
ATOM      9  C   UNL     1       0.521  10.032  20.102  0.00  0.00    +0.000 A 
ATOM     10  C   UNL     1       1.060   8.820  20.482  0.00  0.00    +0.000 A 
ATOM     11  O   UNL     1      -0.234  10.850  20.885  0.00  0.00    +0.000 OA
ATOM     12  C   UNL     1      -0.513  11.928  19.967  0.00  0.00    +0.000 C 
ATOM     13  O   UNL     1       0.071  11.733  18.662  0.00  0.00    +0.000 OA
ENDBRANCH   2   5
BRANCH   1  15
ATOM     14  C   UNL     1       5.486   5.054  19.220  0.00  0.00    +0.000 C 
ATOM     15  C   UNL     1       3.965   4.975  19.397  0.00  0.00    +0.000 C 
BRANCH  15  16
ATOM     16  C   UNL     1       3.373   3.854  18.516  0.00  0.00    +0.000 C 
ATOM     17  C   UNL     1       1.961   4.142  17.943  0.00  0.00    +0.000 C 
ATOM     18  C   UNL     1       1.129   2.949  18.443  0.00  0.00    +0.000 C 
ATOM     19  C   UNL     1       0.937   3.093  19.965  0.00  0.00    +0.000 C 
ATOM     20  C   UNL     1       2.304   2.673  20.524  0.00  0.00    +0.000 C 
ATOM     21  C   UNL     1       3.152   2.499  19.251  0.00  0.00    +0.000 C 
ATOM     22  C   UNL     1       2.136   1.804  18.342  0.00  0.00    +0.000 C 
ENDBRANCH  15  16
ENDBRANCH   1  15
TORSDOF 3
ENDMDL
MODEL 3
REMARK VINA RESULT:      -7.3      3.812      6.204
REMARK  Name = 
REMARK  4 active torsions:
REMARK  status: ('A' for Active; 'I' for Inactive)
REMARK    1  A    between atoms: C_1  and  C_2
REMARK    2  A    between atoms: C_2  and  N_3
REMARK    3  A    between atoms: C_2  and  C_15
REMARK    4  A    between atoms: C_4  and  C_6
REMARK                            x       y       z     vdW  Elec       q    Type
REMARK                         _______ _______ _______ _____ _____    ______ ____
ROOT
ATOM      1  N   UNL     1       3.072   5.727  17.819  0.00  0.00    +0.000 N 
ATOM      2  C   UNL     1       3.024   6.402  19.026  0.00  0.00    +0.000 C 
ATOM      3  O   UNL     1       3.524   5.984  20.063  0.00  0.00    +0.000 OA
ATOM      4  H   UNL     1       2.892   6.238  16.967  0.00  0.00    +0.000 HD
ENDROOT
BRANCH   2   5
ATOM      5  C   UNL     1       2.313   7.714  19.028  0.00  0.00    +0.000 A 
ATOM      6  C   UNL     1       2.256   8.517  17.867  0.00  0.00    +0.000 A 
ATOM      7  C   UNL     1       1.540   9.718  17.867  0.00  0.00    +0.000 A 
ATOM      8  C   UNL     1       0.895  10.080  19.029  0.00  0.00    +0.000 A 
ATOM      9  C   UNL     1       0.943   9.299  20.161  0.00  0.00    +0.000 A 
ATOM     10  C   UNL     1       1.640   8.109  20.193  0.00  0.00    +0.000 A 
ATOM     11  O   UNL     1       0.232   9.835  21.189  0.00  0.00    +0.000 OA
ATOM     12  C   UNL     1      -0.271  11.041  20.575  0.00  0.00    +0.000 C 
ATOM     13  O   UNL     1       0.141  11.198  19.201  0.00  0.00    +0.000 OA
ENDBRANCH   2   5
BRANCH   1  15
ATOM     14  C   UNL     1       4.685   4.444  16.501  0.00  0.00    +0.000 C 
ATOM     15  C   UNL     1       3.748   4.439  17.714  0.00  0.00    +0.000 C 
BRANCH  15  16
ATOM     16  C   UNL     1       2.751   3.264  17.626  0.00  0.00    +0.000 C 
ATOM     17  C   UNL     1       1.263   3.643  17.847  0.00  0.00    +0.000 C 
ATOM     18  C   UNL     1       0.839   2.733  19.014  0.00  0.00    +0.000 C 
ATOM     19  C   UNL     1       1.533   3.231  20.296  0.00  0.00    +0.000 C 
ATOM     20  C   UNL     1       2.973   2.729  20.123  0.00  0.00    +0.000 C 
ATOM     21  C   UNL     1       2.963   2.152  18.695  0.00  0.00    +0.000 C 
ATOM     22  C   UNL     1       1.604   1.448  18.698  0.00  0.00    +0.000 C 
ENDBRANCH  15  16
ENDBRANCH   1  15
TORSDOF 3
ENDMDL
MODEL 4
REMARK VINA RESULT:      -7.2      3.836      7.073
REMARK  Name = 
REMARK  4 active torsions:
REMARK  status: ('A' for Active; 'I' for Inactive)
REMARK    1  A    between atoms: C_1  and  C_2
REMARK    2  A    between atoms: C_2  and  N_3
REMARK    3  A    between atoms: C_2  and  C_15
REMARK    4  A    between atoms: C_4  and  C_6
REMARK                            x       y       z     vdW  Elec       q    Type
REMARK                         _______ _______ _______ _____ _____    ______ ____
ROOT
ATOM      1  N   UNL     1       3.373   5.610  18.175  0.00  0.00    +0.000 N 
ATOM      2  C   UNL     1       3.235   6.946  17.846  0.00  0.00    +0.000 C 
ATOM      3  O   UNL     1       3.787   7.475  16.890  0.00  0.00    +0.000 OA
ATOM      4  H   UNL     1       2.693   5.184  18.788  0.00  0.00    +0.000 HD
ENDROOT
BRANCH   2   5
ATOM      5  C   UNL     1       2.352   7.762  18.730  0.00  0.00    +0.000 A 
ATOM      6  C   UNL     1       2.102   7.381  20.068  0.00  0.00    +0.000 A 
ATOM      7  C   UNL     1       1.317   8.183  20.902  0.00  0.00    +0.000 A 
ATOM      8  C   UNL     1       0.810   9.351  20.375  0.00  0.00    +0.000 A 
ATOM      9  C   UNL     1       1.053   9.729  19.075  0.00  0.00    +0.000 A 
ATOM     10  C   UNL     1       1.824   8.959  18.227  0.00  0.00    +0.000 A 
ATOM     11  O   UNL     1       0.467  10.916  18.763  0.00  0.00    +0.000 OA
ATOM     12  C   UNL     1      -0.172  11.243  20.015  0.00  0.00    +0.000 C 
ATOM     13  O   UNL     1       0.047  10.256  21.044  0.00  0.00    +0.000 OA
ENDBRANCH   2   5
BRANCH   1  15
ATOM     14  C   UNL     1       3.446   3.441  17.044  0.00  0.00    +0.000 C 
ATOM     15  C   UNL     1       4.211   4.729  17.368  0.00  0.00    +0.000 C 
BRANCH  15  16
ATOM     16  C   UNL     1       5.552   4.405  18.063  0.00  0.00    +0.000 C 
ATOM     17  C   UNL     1       5.947   5.366  19.213  0.00  0.00    +0.000 C 
ATOM     18  C   UNL     1       7.332   5.880  18.780  0.00  0.00    +0.000 C 
ATOM     19  C   UNL     1       7.147   6.819  17.574  0.00  0.00    +0.000 C 
ATOM     20  C   UNL     1       6.890   5.843  16.417  0.00  0.00    +0.000 C 
ATOM     21  C   UNL     1       6.799   4.484  17.133  0.00  0.00    +0.000 C 
ATOM     22  C   UNL     1       7.940   4.632  18.142  0.00  0.00    +0.000 C 
ENDBRANCH  15  16
ENDBRANCH   1  15
TORSDOF 3
ENDMDL
MODEL 5
REMARK VINA RESULT:      -7.2      3.635      7.049
REMARK  Name = 
REMARK  4 active torsions:
REMARK  status: ('A' for Active; 'I' for Inactive)
REMARK    1  A    between atoms: C_1  and  C_2
REMARK    2  A    between atoms: C_2  and  N_3
REMARK    3  A    between atoms: C_2  and  C_15
REMARK    4  A    between atoms: C_4  and  C_6
REMARK                            x       y       z     vdW  Elec       q    Type
REMARK                         _______ _______ _______ _____ _____    ______ ____
ROOT
ATOM      1  N   UNL     1       3.414   5.699  18.066  0.00  0.00    +0.000 N 
ATOM      2  C   UNL     1       3.326   7.008  17.629  0.00  0.00    +0.000 C 
ATOM      3  O   UNL     1       3.909   7.440  16.643  0.00  0.00    +0.000 OA
ATOM      4  H   UNL     1       2.711   5.347  18.700  0.00  0.00    +0.000 HD
ENDROOT
BRANCH   2   5
ATOM      5  C   UNL     1       2.458   7.921  18.430  0.00  0.00    +0.000 A 
ATOM      6  C   UNL     1       1.851   9.055  17.844  0.00  0.00    +0.000 A 
ATOM      7  C   UNL     1       0.997   9.871  18.592  0.00  0.00    +0.000 A 
ATOM      8  C   UNL     1       0.768   9.524  19.906  0.00  0.00    +0.000 A 
ATOM      9  C   UNL     1       1.352   8.420  20.480  0.00  0.00    +0.000 A 
ATOM     10  C   UNL     1       2.199   7.595  19.769  0.00  0.00    +0.000 A 
ATOM     11  O   UNL     1       0.985   8.258  21.779  0.00  0.00    +0.000 OA
ATOM     12  C   UNL     1       0.101   9.385  21.957  0.00  0.00    +0.000 C 
ATOM     13  O   UNL     1      -0.045  10.189  20.769  0.00  0.00    +0.000 OA
ENDBRANCH   2   5
BRANCH   1  15
ATOM     14  C   UNL     1       3.431   3.441  17.122  0.00  0.00    +0.000 C 
ATOM     15  C   UNL     1       4.232   4.729  17.347  0.00  0.00    +0.000 C 
BRANCH  15  16
ATOM     16  C   UNL     1       5.555   4.425  18.082  0.00  0.00    +0.000 C 
ATOM     17  C   UNL     1       5.925   5.419  19.213  0.00  0.00    +0.000 C 
ATOM     18  C   UNL     1       7.320   5.919  18.798  0.00  0.00    +0.000 C 
ATOM     19  C   UNL     1       7.165   6.822  17.560  0.00  0.00    +0.000 C 
ATOM     20  C   UNL     1       6.935   5.813  16.427  0.00  0.00    +0.000 C 
ATOM     21  C   UNL     1       6.824   4.475  17.181  0.00  0.00    +0.000 C 
ATOM     22  C   UNL     1       7.941   4.652  18.211  0.00  0.00    +0.000 C 
ENDBRANCH  15  16
ENDBRANCH   1  15
TORSDOF 3
ENDMDL
MODEL 6
REMARK VINA RESULT:      -7.2      0.872      1.561
REMARK  Name = 
REMARK  4 active torsions:
REMARK  status: ('A' for Active; 'I' for Inactive)
REMARK    1  A    between atoms: C_1  and  C_2
REMARK    2  A    between atoms: C_2  and  N_3
REMARK    3  A    between atoms: C_2  and  C_15
REMARK    4  A    between atoms: C_4  and  C_6
REMARK                            x       y       z     vdW  Elec       q    Type
REMARK                         _______ _______ _______ _____ _____    ______ ____
ROOT
ATOM      1  N   UNL     1       4.798   3.013  18.533  0.00  0.00    +0.000 N 
ATOM      2  C   UNL     1       5.429   4.160  18.087  0.00  0.00    +0.000 C 
ATOM      3  O   UNL     1       5.681   5.124  18.800  0.00  0.00    +0.000 OA
ATOM      4  H   UNL     1       4.870   2.171  17.981  0.00  0.00    +0.000 HD
ENDROOT
BRANCH   2   5
ATOM      5  C   UNL     1       5.814   4.192  16.645  0.00  0.00    +0.000 A 
ATOM      6  C   UNL     1       5.040   3.529  15.667  0.00  0.00    +0.000 A 
ATOM      7  C   UNL     1       5.380   3.613  14.313  0.00  0.00    +0.000 A 
ATOM      8  C   UNL     1       6.484   4.366  13.975  0.00  0.00    +0.000 A 
ATOM      9  C   UNL     1       7.238   5.017  14.923  0.00  0.00    +0.000 A 
ATOM     10  C   UNL     1       6.928   4.954  16.267  0.00  0.00    +0.000 A 
ATOM     11  O   UNL     1       8.273   5.707  14.375  0.00  0.00    +0.000 OA
ATOM     12  C   UNL     1       8.084   5.418  12.973  0.00  0.00    +0.000 C 
ATOM     13  O   UNL     1       6.945   4.571  12.713  0.00  0.00    +0.000 OA
ENDBRANCH   2   5
BRANCH   1  15
ATOM     14  C   UNL     1       5.103   1.690  20.569  0.00  0.00    +0.000 C 
ATOM     15  C   UNL     1       4.388   2.885  19.927  0.00  0.00    +0.000 C 
BRANCH  15  16
ATOM     16  C   UNL     1       2.857   2.745  20.073  0.00  0.00    +0.000 C 
ATOM     17  C   UNL     1       2.088   2.505  18.748  0.00  0.00    +0.000 C 
ATOM     18  C   UNL     1       1.072   3.660  18.718  0.00  0.00    +0.000 C 
ATOM     19  C   UNL     1       1.835   4.973  18.459  0.00  0.00    +0.000 C 
ATOM     20  C   UNL     1       2.481   5.268  19.821  0.00  0.00    +0.000 C 
ATOM     21  C   UNL     1       2.142   4.008  20.637  0.00  0.00    +0.000 C 
ATOM     22  C   UNL     1       0.695   3.779  20.194  0.00  0.00    +0.000 C 
ENDBRANCH  15  16
ENDBRANCH   1  15
TORSDOF 3
ENDMDL
MODEL 7
REMARK VINA RESULT:      -7.0      3.458      6.855
REMARK  Name = 
REMARK  4 active torsions:
REMARK  status: ('A' for Active; 'I' for Inactive)
REMARK    1  A    between atoms: C_1  and  C_2
REMARK    2  A    between atoms: C_2  and  N_3
REMARK    3  A    between atoms: C_2  and  C_15
REMARK    4  A    between atoms: C_4  and  C_6
REMARK                            x       y       z     vdW  Elec       q    Type
REMARK                         _______ _______ _______ _____ _____    ______ ____
ROOT
ATOM      1  N   UNL     1       3.882   5.435  18.978  0.00  0.00    +0.000 N 
ATOM      2  C   UNL     1       2.663   5.847  18.471  0.00  0.00    +0.000 C 
ATOM      3  O   UNL     1       1.991   5.188  17.687  0.00  0.00    +0.000 OA
ATOM      4  H   UNL     1       4.242   5.882  19.808  0.00  0.00    +0.000 HD
ENDROOT
BRANCH   2   5
ATOM      5  C   UNL     1       2.167   7.179  18.927  0.00  0.00    +0.000 A 
ATOM      6  C   UNL     1       1.994   8.246  18.018  0.00  0.00    +0.000 A 
ATOM      7  C   UNL     1       1.476   9.471  18.449  0.00  0.00    +0.000 A 
ATOM      8  C   UNL     1       1.138   9.592  19.779  0.00  0.00    +0.000 A 
ATOM      9  C   UNL     1       1.300   8.554  20.667  0.00  0.00    +0.000 A 
ATOM     10  C   UNL     1       1.808   7.333  20.274  0.00  0.00    +0.000 A 
ATOM     11  O   UNL     1       0.897   8.883  21.924  0.00  0.00    +0.000 OA
ATOM     12  C   UNL     1       0.461  10.244  21.725  0.00  0.00    +0.000 C 
ATOM     13  O   UNL     1       0.606  10.698  20.364  0.00  0.00    +0.000 OA
ENDBRANCH   2   5
BRANCH   1  15
ATOM     14  C   UNL     1       4.418   3.191  19.793  0.00  0.00    +0.000 C 
ATOM     15  C   UNL     1       4.449   4.147  18.595  0.00  0.00    +0.000 C 
BRANCH  15  16
ATOM     16  C   UNL     1       5.885   4.283  18.045  0.00  0.00    +0.000 C 
ATOM     17  C   UNL     1       6.541   5.673  18.251  0.00  0.00    +0.000 C 
ATOM     18  C   UNL     1       6.921   6.096  16.821  0.00  0.00    +0.000 C 
ATOM     19  C   UNL     1       5.627   6.418  16.049  0.00  0.00    +0.000 C 
ATOM     20  C   UNL     1       5.060   5.027  15.735  0.00  0.00    +0.000 C 
ATOM     21  C   UNL     1       6.011   4.091  16.505  0.00  0.00    +0.000 C 
ATOM     22  C   UNL     1       7.352   4.764  16.208  0.00  0.00    +0.000 C 
ENDBRANCH  15  16
ENDBRANCH   1  15
TORSDOF 3
ENDMDL
MODEL 8
REMARK VINA RESULT:      -7.0      1.536      2.501
REMARK  Name = 
REMARK  4 active torsions:
REMARK  status: ('A' for Active; 'I' for Inactive)
REMARK    1  A    between atoms: C_1  and  C_2
REMARK    2  A    between atoms: C_2  and  N_3
REMARK    3  A    between atoms: C_2  and  C_15
REMARK    4  A    between atoms: C_4  and  C_6
REMARK                            x       y       z     vdW  Elec       q    Type
REMARK                         _______ _______ _______ _____ _____    ______ ____
ROOT
ATOM      1  N   UNL     1       3.375   5.806  18.750  0.00  0.00    +0.000 N 
ATOM      2  C   UNL     1       3.444   5.056  17.591  0.00  0.00    +0.000 C 
ATOM      3  O   UNL     1       2.567   4.284  17.223  0.00  0.00    +0.000 OA
ATOM      4  H   UNL     1       3.982   6.607  18.850  0.00  0.00    +0.000 HD
ENDROOT
BRANCH   2   5
ATOM      5  C   UNL     1       4.673   5.222  16.761  0.00  0.00    +0.000 A 
ATOM      6  C   UNL     1       5.785   5.950  17.238  0.00  0.00    +0.000 A 
ATOM      7  C   UNL     1       6.951   6.051  16.473  0.00  0.00    +0.000 A 
ATOM      8  C   UNL     1       6.974   5.413  15.252  0.00  0.00    +0.000 A 
ATOM      9  C   UNL     1       5.896   4.699  14.785  0.00  0.00    +0.000 A 
ATOM     10  C   UNL     1       4.731   4.580  15.515  0.00  0.00    +0.000 A 
ATOM     11  O   UNL     1       6.133   4.144  13.566  0.00  0.00    +0.000 OA
ATOM     12  C   UNL     1       7.484   4.588  13.320  0.00  0.00    +0.000 C 
ATOM     13  O   UNL     1       8.025   5.389  14.391  0.00  0.00    +0.000 OA
ENDBRANCH   2   5
BRANCH   1  15
ATOM     14  C   UNL     1       1.903   7.097  20.218  0.00  0.00    +0.000 C 
ATOM     15  C   UNL     1       2.212   5.717  19.625  0.00  0.00    +0.000 C 
BRANCH  15  16
ATOM     16  C   UNL     1       2.406   4.675  20.748  0.00  0.00    +0.000 C 
ATOM     17  C   UNL     1       3.524   3.631  20.491  0.00  0.00    +0.000 C 
ATOM     18  C   UNL     1       2.782   2.288  20.610  0.00  0.00    +0.000 C 
ATOM     19  C   UNL     1       1.857   2.133  19.389  0.00  0.00    +0.000 C 
ATOM     20  C   UNL     1       0.689   3.072  19.723  0.00  0.00    +0.000 C 
ATOM     21  C   UNL     1       1.169   3.766  21.010  0.00  0.00    +0.000 C 
ATOM     22  C   UNL     1       1.796   2.577  21.741  0.00  0.00    +0.000 C 
ENDBRANCH  15  16
ENDBRANCH   1  15
TORSDOF 3
ENDMDL
MODEL 9
REMARK VINA RESULT:      -6.9      4.229      7.164
REMARK  Name = 
REMARK  4 active torsions:
REMARK  status: ('A' for Active; 'I' for Inactive)
REMARK    1  A    between atoms: C_1  and  C_2
REMARK    2  A    between atoms: C_2  and  N_3
REMARK    3  A    between atoms: C_2  and  C_15
REMARK    4  A    between atoms: C_4  and  C_6
REMARK                            x       y       z     vdW  Elec       q    Type
REMARK                         _______ _______ _______ _____ _____    ______ ____
ROOT
ATOM      1  N   UNL     1       2.847   6.250  20.078  0.00  0.00    +0.000 N 
ATOM      2  C   UNL     1       2.452   7.284  19.249  0.00  0.00    +0.000 C 
ATOM      3  O   UNL     1       2.765   7.371  18.068  0.00  0.00    +0.000 OA
ATOM      4  H   UNL     1       2.341   6.093  20.937  0.00  0.00    +0.000 HD
ENDROOT
BRANCH   2   5
ATOM      5  C   UNL     1       1.593   8.339  19.861  0.00  0.00    +0.000 A 
ATOM      6  C   UNL     1       1.094   9.415  19.092  0.00  0.00    +0.000 A 
ATOM      7  C   UNL     1       0.245  10.366  19.665  0.00  0.00    +0.000 A 
ATOM      8  C   UNL     1      -0.088  10.210  20.993  0.00  0.00    +0.000 A 
ATOM      9  C   UNL     1       0.390   9.163  21.745  0.00  0.00    +0.000 A 
ATOM     10  C   UNL     1       1.229   8.208  21.209  0.00  0.00    +0.000 A 
ATOM     11  O   UNL     1      -0.069   9.194  23.025  0.00  0.00    +0.000 OA
ATOM     12  C   UNL     1      -0.892  10.379  22.993  0.00  0.00    +0.000 C 
ATOM     13  O   UNL     1      -0.913  11.025  21.703  0.00  0.00    +0.000 OA
ENDBRANCH   2   5
BRANCH   1  15
ATOM     14  C   UNL     1       4.695   5.726  18.561  0.00  0.00    +0.000 C 
ATOM     15  C   UNL     1       3.683   5.169  19.570  0.00  0.00    +0.000 C 
BRANCH  15  16
ATOM     16  C   UNL     1       2.848   4.037  18.933  0.00  0.00    +0.000 C 
ATOM     17  C   UNL     1       1.312   4.233  19.001  0.00  0.00    +0.000 C 
ATOM     18  C   UNL     1       0.827   2.960  19.717  0.00  0.00    +0.000 C 
ATOM     19  C   UNL     1       1.266   3.034  21.192  0.00  0.00    +0.000 C 
ATOM     20  C   UNL     1       2.764   2.704  21.120  0.00  0.00    +0.000 C 
ATOM     21  C   UNL     1       3.026   2.643  19.605  0.00  0.00    +0.000 C 
ATOM     22  C   UNL     1       1.770   1.903  19.142  0.00  0.00    +0.000 C 
ENDBRANCH  15  16
ENDBRANCH   1  15
TORSDOF 3
ENDMDL
