MODEL 1
REMARK VINA RESULT:      -8.9      0.000      0.000
REMARK  Name = 
REMARK  8 active torsions:
REMARK  status: ('A' for Active; 'I' for Inactive)
REMARK    1  A    between atoms: C_1  and  O_2
REMARK    2  A    between atoms: O_2  and  C_3
REMARK    3  A    between atoms: C_5  and  N_6
REMARK    4  A    between atoms: N_6  and  S_7
REMARK    5  A    between atoms: S_7  and  C_10
REMARK    6  A    between atoms: C_13  and  C_14
REMARK    7  A    between atoms: C_18  and  C_19
REMARK    8  A    between atoms: C_24  and  C_25
REMARK                            x       y       z     vdW  Elec       q    Type
REMARK                         _______ _______ _______ _____ _____    ______ ____
ROOT
ATOM      1  C   UNL     1       0.131  10.597  21.159  0.00  0.00    +0.000 A 
ATOM      2  C   UNL     1      -0.734  11.292  20.310  0.00  0.00    +0.000 A 
ATOM      3  C   UNL     1      -0.740  11.027  18.944  0.00  0.00    +0.000 A 
ATOM      4  C   UNL     1       0.128  10.077  18.417  0.00  0.00    +0.000 A 
ATOM      5  C   UNL     1       1.025   9.390  19.254  0.00  0.00    +0.000 A 
ATOM      6  C   UNL     1       1.012   9.647  20.632  0.00  0.00    +0.000 A 
ENDROOT
BRANCH   5   7
ATOM      7  C   UNL     1       1.923   8.382  18.615  0.00  0.00    +0.000 C 
ATOM      8  O   UNL     1       2.256   8.592  17.453  0.00  0.00    +0.000 OA
ATOM      9  N   UNL     1       2.297   7.297  19.380  0.00  0.00    +0.000 N 
ATOM     10  C   UNL     1       3.122   6.332  18.866  0.00  0.00    +0.000 A 
ATOM     11  N   UNL     1       3.792   6.337  17.747  0.00  0.00    +0.000 NA
ATOM     12  C   UNL     1       4.497   5.156  17.602  0.00  0.00    +0.000 A 
ATOM     13  C   UNL     1       4.284   4.238  18.615  0.00  0.00    +0.000 A 
ATOM     14  S   UNL     1       3.282   4.933  19.831  0.00  0.00    +0.000 S 
ATOM     15  H   UNL     1       1.987   7.155  20.324  0.00  0.00    +0.000 HD
BRANCH  12  16
ATOM     16  C   UNL     1       5.367   4.954  16.450  0.00  0.00    +0.000 A 
ATOM     17  C   UNL     1       6.687   5.427  16.424  0.00  0.00    +0.000 A 
ATOM     18  C   UNL     1       7.476   5.263  15.282  0.00  0.00    +0.000 A 
ATOM     19  C   UNL     1       6.959   4.625  14.157  0.00  0.00    +0.000 A 
ATOM     20  C   UNL     1       5.649   4.151  14.169  0.00  0.00    +0.000 A 
ATOM     21  C   UNL     1       4.858   4.319  15.307  0.00  0.00    +0.000 A 
ENDBRANCH  12  16
ENDBRANCH   5   7
BRANCH   1  23
ATOM     22  C   UNL     1      -1.220  11.518  22.894  0.00  0.00    +0.000 C 
ATOM     23  O   UNL     1       0.005  10.926  22.481  0.00  0.00    +0.000 OA
ENDBRANCH   1  23
BRANCH   3  24
ATOM     24  N   UNL     1      -1.631  11.710  18.076  0.00  0.00    +0.000 N 
ATOM     25  H   UNL     1      -1.872  12.675  18.292  0.00  0.00    +0.000 HD
BRANCH  24  26
ATOM     26  S   UNL     1      -2.885  10.867  17.323  0.00  0.00    +0.000 S 
ATOM     27  O   UNL     1      -2.772  11.156  15.907  0.00  0.00    +0.000 OA
ATOM     28  O   UNL     1      -2.908   9.504  17.812  0.00  0.00    +0.000 OA
BRANCH  26  29
ATOM     29  C   UNL     1      -4.354  11.686  17.906  0.00  0.00    +0.000 A 
ATOM     30  C   UNL     1      -4.411  12.130  19.231  0.00  0.00    +0.000 A 
ATOM     31  C   UNL     1      -5.533  12.830  19.678  0.00  0.00    +0.000 A 
ATOM     32  C   UNL     1      -6.594  13.100  18.806  0.00  0.00    +0.000 A 
ATOM     33  C   UNL     1      -7.791  13.881  19.266  0.00  0.00    +0.000 C 
ATOM     34  C   UNL     1      -6.521  12.657  17.477  0.00  0.00    +0.000 A 
ATOM     35  C   UNL     1      -5.400  11.958  17.022  0.00  0.00    +0.000 A 
ENDBRANCH  26  29
ENDBRANCH  24  26
ENDBRANCH   3  24
TORSDOF 6
ENDMDL
MODEL 2
REMARK VINA RESULT:      -8.8      4.168     10.583
REMARK  Name = 
REMARK  8 active torsions:
REMARK  status: ('A' for Active; 'I' for Inactive)
REMARK    1  A    between atoms: C_1  and  O_2
REMARK    2  A    between atoms: O_2  and  C_3
REMARK    3  A    between atoms: C_5  and  N_6
REMARK    4  A    between atoms: N_6  and  S_7
REMARK    5  A    between atoms: S_7  and  C_10
REMARK    6  A    between atoms: C_13  and  C_14
REMARK    7  A    between atoms: C_18  and  C_19
REMARK    8  A    between atoms: C_24  and  C_25
REMARK                            x       y       z     vdW  Elec       q    Type
REMARK                         _______ _______ _______ _____ _____    ______ ____
ROOT
ATOM      1  C   UNL     1       2.721   3.101  19.024  0.00  0.00    +0.000 A 
ATOM      2  C   UNL     1       4.112   3.119  18.875  0.00  0.00    +0.000 A 
ATOM      3  C   UNL     1       4.820   4.304  19.051  0.00  0.00    +0.000 A 
ATOM      4  C   UNL     1       4.143   5.478  19.360  0.00  0.00    +0.000 A 
ATOM      5  C   UNL     1       2.743   5.483  19.484  0.00  0.00    +0.000 A 
ATOM      6  C   UNL     1       2.036   4.281  19.326  0.00  0.00    +0.000 A 
ENDROOT
BRANCH   5   7
ATOM      7  C   UNL     1       2.089   6.782  19.824  0.00  0.00    +0.000 C 
ATOM      8  O   UNL     1       1.432   6.819  20.859  0.00  0.00    +0.000 OA
ATOM      9  N   UNL     1       2.271   7.828  18.943  0.00  0.00    +0.000 N 
ATOM     10  C   UNL     1       1.707   9.051  19.187  0.00  0.00    +0.000 A 
ATOM     11  N   UNL     1       1.110   9.479  20.265  0.00  0.00    +0.000 NA
ATOM     12  C   UNL     1       0.674  10.779  20.091  0.00  0.00    +0.000 A 
ATOM     13  C   UNL     1       0.903  11.292  18.827  0.00  0.00    +0.000 A 
ATOM     14  S   UNL     1       1.800  10.158  17.891  0.00  0.00    +0.000 S 
ATOM     15  H   UNL     1       2.804   7.749  18.096  0.00  0.00    +0.000 HD
BRANCH  12  16
ATOM     16  C   UNL     1       0.024  11.491  21.185  0.00  0.00    +0.000 A 
ATOM     17  C   UNL     1      -0.822  10.841  22.096  0.00  0.00    +0.000 A 
ATOM     18  C   UNL     1      -1.471  11.564  23.101  0.00  0.00    +0.000 A 
ATOM     19  C   UNL     1      -1.282  12.939  23.209  0.00  0.00    +0.000 A 
ATOM     20  C   UNL     1      -0.445  13.598  22.312  0.00  0.00    +0.000 A 
ATOM     21  C   UNL     1       0.200  12.878  21.304  0.00  0.00    +0.000 A 
ENDBRANCH  12  16
ENDBRANCH   5   7
BRANCH   1  23
ATOM     22  C   UNL     1       0.740   1.779  18.931  0.00  0.00    +0.000 C 
ATOM     23  O   UNL     1       2.157   1.865  18.864  0.00  0.00    +0.000 OA
ENDBRANCH   1  23
BRANCH   3  24
ATOM     24  N   UNL     1       6.233   4.330  18.926  0.00  0.00    +0.000 N 
ATOM     25  H   UNL     1       6.788   4.558  19.749  0.00  0.00    +0.000 HD
BRANCH  24  26
ATOM     26  S   UNL     1       6.941   4.851  17.484  0.00  0.00    +0.000 S 
ATOM     27  O   UNL     1       8.148   4.066  17.320  0.00  0.00    +0.000 OA
ATOM     28  O   UNL     1       5.933   4.905  16.447  0.00  0.00    +0.000 OA
BRANCH  26  29
ATOM     29  C   UNL     1       7.450   6.519  17.844  0.00  0.00    +0.000 A 
ATOM     30  C   UNL     1       8.309   6.756  18.921  0.00  0.00    +0.000 A 
ATOM     31  C   UNL     1       8.764   8.053  19.171  0.00  0.00    +0.000 A 
ATOM     32  C   UNL     1       8.375   9.112  18.343  0.00  0.00    +0.000 A 
ATOM     33  C   UNL     1       8.883  10.505  18.582  0.00  0.00    +0.000 C 
ATOM     34  C   UNL     1       7.519   8.860  17.261  0.00  0.00    +0.000 A 
ATOM     35  C   UNL     1       7.061   7.565  17.004  0.00  0.00    +0.000 A 
ENDBRANCH  26  29
ENDBRANCH  24  26
ENDBRANCH   3  24
TORSDOF 6
ENDMDL
MODEL 3
REMARK VINA RESULT:      -8.6      3.985     10.324
REMARK  Name = 
REMARK  8 active torsions:
REMARK  status: ('A' for Active; 'I' for Inactive)
REMARK    1  A    between atoms: C_1  and  O_2
REMARK    2  A    between atoms: O_2  and  C_3
REMARK    3  A    between atoms: C_5  and  N_6
REMARK    4  A    between atoms: N_6  and  S_7
REMARK    5  A    between atoms: S_7  and  C_10
REMARK    6  A    between atoms: C_13  and  C_14
REMARK    7  A    between atoms: C_18  and  C_19
REMARK    8  A    between atoms: C_24  and  C_25
REMARK                            x       y       z     vdW  Elec       q    Type
REMARK                         _______ _______ _______ _____ _____    ______ ____
ROOT
ATOM      1  C   UNL     1       2.615   3.391  19.269  0.00  0.00    +0.000 A 
ATOM      2  C   UNL     1       3.983   3.268  19.010  0.00  0.00    +0.000 A 
ATOM      3  C   UNL     1       4.791   4.400  18.950  0.00  0.00    +0.000 A 
ATOM      4  C   UNL     1       4.234   5.661  19.134  0.00  0.00    +0.000 A 
ATOM      5  C   UNL     1       2.855   5.804  19.366  0.00  0.00    +0.000 A 
ATOM      6  C   UNL     1       2.050   4.658  19.446  0.00  0.00    +0.000 A 
ENDROOT
BRANCH   5   7
ATOM      7  C   UNL     1       2.332   7.190  19.559  0.00  0.00    +0.000 C 
ATOM      8  O   UNL     1       2.612   8.014  18.694  0.00  0.00    +0.000 OA
ATOM      9  N   UNL     1       1.586   7.430  20.693  0.00  0.00    +0.000 N 
ATOM     10  C   UNL     1       1.068   8.674  20.938  0.00  0.00    +0.000 A 
ATOM     11  N   UNL     1       1.023   9.713  20.150  0.00  0.00    +0.000 NA
ATOM     12  C   UNL     1       0.423  10.779  20.793  0.00  0.00    +0.000 A 
ATOM     13  C   UNL     1       0.077  10.530  22.109  0.00  0.00    +0.000 A 
ATOM     14  S   UNL     1       0.399   8.882  22.494  0.00  0.00    +0.000 S 
ATOM     15  H   UNL     1       1.395   6.729  21.386  0.00  0.00    +0.000 HD
BRANCH  12  16
ATOM     16  C   UNL     1       0.210  12.038  20.089  0.00  0.00    +0.000 A 
ATOM     17  C   UNL     1       0.848  12.327  18.874  0.00  0.00    +0.000 A 
ATOM     18  C   UNL     1       0.662  13.566  18.253  0.00  0.00    +0.000 A 
ATOM     19  C   UNL     1      -0.161  14.526  18.835  0.00  0.00    +0.000 A 
ATOM     20  C   UNL     1      -0.802  14.252  20.041  0.00  0.00    +0.000 A 
ATOM     21  C   UNL     1      -0.613  13.018  20.665  0.00  0.00    +0.000 A 
ENDBRANCH  12  16
ENDBRANCH   5   7
BRANCH   1  23
ATOM     22  C   UNL     1       0.628   2.155  18.816  0.00  0.00    +0.000 C 
ATOM     23  O   UNL     1       1.948   2.199  19.341  0.00  0.00    +0.000 OA
ENDBRANCH   1  23
BRANCH   3  24
ATOM     24  N   UNL     1       6.185   4.285  18.711  0.00  0.00    +0.000 N 
ATOM     25  H   UNL     1       6.818   4.338  19.507  0.00  0.00    +0.000 HD
BRANCH  24  26
ATOM     26  S   UNL     1       6.850   4.912  17.291  0.00  0.00    +0.000 S 
ATOM     27  O   UNL     1       8.022   4.110  17.007  0.00  0.00    +0.000 OA
ATOM     28  O   UNL     1       5.801   5.087  16.308  0.00  0.00    +0.000 OA
BRANCH  26  29
ATOM     29  C   UNL     1       7.427   6.526  17.773  0.00  0.00    +0.000 A 
ATOM     30  C   UNL     1       8.236   6.654  18.906  0.00  0.00    +0.000 A 
ATOM     31  C   UNL     1       8.746   7.907  19.255  0.00  0.00    +0.000 A 
ATOM     32  C   UNL     1       8.461   9.031  18.470  0.00  0.00    +0.000 A 
ATOM     33  C   UNL     1       9.031  10.377  18.815  0.00  0.00    +0.000 C 
ATOM     34  C   UNL     1       7.655   8.888  17.331  0.00  0.00    +0.000 A 
ATOM     35  C   UNL     1       7.143   7.637  16.975  0.00  0.00    +0.000 A 
ENDBRANCH  26  29
ENDBRANCH  24  26
ENDBRANCH   3  24
TORSDOF 6
ENDMDL
MODEL 4
REMARK VINA RESULT:      -8.3      2.783      3.811
REMARK  Name = 
REMARK  8 active torsions:
REMARK  status: ('A' for Active; 'I' for Inactive)
REMARK    1  A    between atoms: C_1  and  O_2
REMARK    2  A    between atoms: O_2  and  C_3
REMARK    3  A    between atoms: C_5  and  N_6
REMARK    4  A    between atoms: N_6  and  S_7
REMARK    5  A    between atoms: S_7  and  C_10
REMARK    6  A    between atoms: C_13  and  C_14
REMARK    7  A    between atoms: C_18  and  C_19
REMARK    8  A    between atoms: C_24  and  C_25
REMARK                            x       y       z     vdW  Elec       q    Type
REMARK                         _______ _______ _______ _____ _____    ______ ____
ROOT
ATOM      1  C   UNL     1       0.826  13.292  18.941  0.00  0.00    +0.000 A 
ATOM      2  C   UNL     1      -0.309  13.148  19.746  0.00  0.00    +0.000 A 
ATOM      3  C   UNL     1      -0.745  11.883  20.125  0.00  0.00    +0.000 A 
ATOM      4  C   UNL     1      -0.061  10.753  19.689  0.00  0.00    +0.000 A 
ATOM      5  C   UNL     1       1.064  10.879  18.855  0.00  0.00    +0.000 A 
ATOM      6  C   UNL     1       1.511  12.158  18.494  0.00  0.00    +0.000 A 
ENDROOT
BRANCH   5   7
ATOM      7  C   UNL     1       1.748   9.620  18.433  0.00  0.00    +0.000 C 
ATOM      8  O   UNL     1       2.226   9.599  17.304  0.00  0.00    +0.000 OA
ATOM      9  N   UNL     1       1.780   8.584  19.344  0.00  0.00    +0.000 N 
ATOM     10  C   UNL     1       2.393   7.400  19.033  0.00  0.00    +0.000 A 
ATOM     11  N   UNL     1       3.144   7.110  18.006  0.00  0.00    +0.000 NA
ATOM     12  C   UNL     1       3.555   5.792  18.067  0.00  0.00    +0.000 A 
ATOM     13  C   UNL     1       3.037   5.082  19.136  0.00  0.00    +0.000 A 
ATOM     14  S   UNL     1       2.124   6.135  20.147  0.00  0.00    +0.000 S 
ATOM     15  H   UNL     1       1.360   8.637  20.255  0.00  0.00    +0.000 HD
BRANCH  12  16
ATOM     16  C   UNL     1       4.453   5.252  17.052  0.00  0.00    +0.000 A 
ATOM     17  C   UNL     1       5.058   6.070  16.087  0.00  0.00    +0.000 A 
ATOM     18  C   UNL     1       5.871   5.512  15.095  0.00  0.00    +0.000 A 
ATOM     19  C   UNL     1       6.090   4.137  15.058  0.00  0.00    +0.000 A 
ATOM     20  C   UNL     1       5.495   3.314  16.012  0.00  0.00    +0.000 A 
ATOM     21  C   UNL     1       4.678   3.869  16.999  0.00  0.00    +0.000 A 
ENDBRANCH  12  16
ENDBRANCH   5   7
BRANCH   1  23
ATOM     22  C   UNL     1       2.494  14.994  18.991  0.00  0.00    +0.000 C 
ATOM     23  O   UNL     1       1.167  14.590  18.679  0.00  0.00    +0.000 OA
ENDBRANCH   1  23
BRANCH   3  24
ATOM     24  N   UNL     1      -1.881  11.727  20.960  0.00  0.00    +0.000 N 
ATOM     25  H   UNL     1      -2.797  11.960  20.581  0.00  0.00    +0.000 HD
BRANCH  24  26
ATOM     26  S   UNL     1      -1.755  12.026  22.617  0.00  0.00    +0.000 S 
ATOM     27  O   UNL     1      -1.458  10.750  23.236  0.00  0.00    +0.000 OA
ATOM     28  O   UNL     1      -0.908  13.181  22.833  0.00  0.00    +0.000 OA
BRANCH  26  29
ATOM     29  C   UNL     1      -3.414  12.463  23.094  0.00  0.00    +0.000 A 
ATOM     30  C   UNL     1      -4.296  12.960  22.130  0.00  0.00    +0.000 A 
ATOM     31  C   UNL     1      -5.617  13.244  22.481  0.00  0.00    +0.000 A 
ATOM     32  C   UNL     1      -6.065  13.024  23.789  0.00  0.00    +0.000 A 
ATOM     33  C   UNL     1      -7.492  13.296  24.171  0.00  0.00    +0.000 C 
ATOM     34  C   UNL     1      -5.173  12.518  24.746  0.00  0.00    +0.000 A 
ATOM     35  C   UNL     1      -3.850  12.229  24.400  0.00  0.00    +0.000 A 
ENDBRANCH  26  29
ENDBRANCH  24  26
ENDBRANCH   3  24
TORSDOF 6
ENDMDL
MODEL 5
REMARK VINA RESULT:      -8.3      3.783     10.340
REMARK  Name = 
REMARK  8 active torsions:
REMARK  status: ('A' for Active; 'I' for Inactive)
REMARK    1  A    between atoms: C_1  and  O_2
REMARK    2  A    between atoms: O_2  and  C_3
REMARK    3  A    between atoms: C_5  and  N_6
REMARK    4  A    between atoms: N_6  and  S_7
REMARK    5  A    between atoms: S_7  and  C_10
REMARK    6  A    between atoms: C_13  and  C_14
REMARK    7  A    between atoms: C_18  and  C_19
REMARK    8  A    between atoms: C_24  and  C_25
REMARK                            x       y       z     vdW  Elec       q    Type
REMARK                         _______ _______ _______ _____ _____    ______ ____
ROOT
ATOM      1  C   UNL     1       1.995   4.508  20.612  0.00  0.00    +0.000 A 
ATOM      2  C   UNL     1       2.764   4.228  19.478  0.00  0.00    +0.000 A 
ATOM      3  C   UNL     1       3.108   5.246  18.595  0.00  0.00    +0.000 A 
ATOM      4  C   UNL     1       2.674   6.545  18.830  0.00  0.00    +0.000 A 
ATOM      5  C   UNL     1       1.875   6.839  19.949  0.00  0.00    +0.000 A 
ATOM      6  C   UNL     1       1.549   5.812  20.847  0.00  0.00    +0.000 A 
ENDROOT
BRANCH   5   7
ATOM      7  C   UNL     1       1.453   8.259  20.137  0.00  0.00    +0.000 C 
ATOM      8  O   UNL     1       1.870   9.075  19.321  0.00  0.00    +0.000 OA
ATOM      9  N   UNL     1       0.635   8.536  21.212  0.00  0.00    +0.000 N 
ATOM     10  C   UNL     1       0.201   9.813  21.448  0.00  0.00    +0.000 A 
ATOM     11  N   UNL     1       0.307  10.869  20.688  0.00  0.00    +0.000 NA
ATOM     12  C   UNL     1      -0.257  11.967  21.309  0.00  0.00    +0.000 A 
ATOM     13  C   UNL     1      -0.732  11.720  22.585  0.00  0.00    +0.000 A 
ATOM     14  S   UNL     1      -0.579  10.044  22.949  0.00  0.00    +0.000 S 
ATOM     15  H   UNL     1       0.330   7.839  21.867  0.00  0.00    +0.000 HD
BRANCH  12  16
ATOM     16  C   UNL     1      -0.308  13.255  20.625  0.00  0.00    +0.000 A 
ATOM     17  C   UNL     1      -1.153  14.289  21.052  0.00  0.00    +0.000 A 
ATOM     18  C   UNL     1      -1.216  15.491  20.341  0.00  0.00    +0.000 A 
ATOM     19  C   UNL     1      -0.437  15.674  19.201  0.00  0.00    +0.000 A 
ATOM     20  C   UNL     1       0.407  14.655  18.767  0.00  0.00    +0.000 A 
ATOM     21  C   UNL     1       0.467  13.452  19.473  0.00  0.00    +0.000 A 
ENDBRANCH  12  16
ENDBRANCH   5   7
BRANCH   1  23
ATOM     22  C   UNL     1       2.794   2.449  21.510  0.00  0.00    +0.000 C 
ATOM     23  O   UNL     1       1.765   3.425  21.415  0.00  0.00    +0.000 OA
ENDBRANCH   1  23
BRANCH   3  24
ATOM     24  N   UNL     1       3.908   4.977  17.454  0.00  0.00    +0.000 N 
ATOM     25  H   UNL     1       3.450   4.627  16.614  0.00  0.00    +0.000 HD
BRANCH  24  26
ATOM     26  S   UNL     1       5.479   4.390  17.646  0.00  0.00    +0.000 S 
ATOM     27  O   UNL     1       5.512   3.744  18.942  0.00  0.00    +0.000 OA
ATOM     28  O   UNL     1       5.878   3.685  16.445  0.00  0.00    +0.000 OA
BRANCH  26  29
ATOM     29  C   UNL     1       6.468   5.865  17.772  0.00  0.00    +0.000 A 
ATOM     30  C   UNL     1       6.084   7.010  17.068  0.00  0.00    +0.000 A 
ATOM     31  C   UNL     1       6.817   8.190  17.212  0.00  0.00    +0.000 A 
ATOM     32  C   UNL     1       7.925   8.235  18.066  0.00  0.00    +0.000 A 
ATOM     33  C   UNL     1       8.702   9.507  18.255  0.00  0.00    +0.000 C 
ATOM     34  C   UNL     1       8.296   7.082  18.774  0.00  0.00    +0.000 A 
ATOM     35  C   UNL     1       7.565   5.898  18.636  0.00  0.00    +0.000 A 
ENDBRANCH  26  29
ENDBRANCH  24  26
ENDBRANCH   3  24
TORSDOF 6
ENDMDL
MODEL 6
REMARK VINA RESULT:      -8.3      3.771     10.385
REMARK  Name = 
REMARK  8 active torsions:
REMARK  status: ('A' for Active; 'I' for Inactive)
REMARK    1  A    between atoms: C_1  and  O_2
REMARK    2  A    between atoms: O_2  and  C_3
REMARK    3  A    between atoms: C_5  and  N_6
REMARK    4  A    between atoms: N_6  and  S_7
REMARK    5  A    between atoms: S_7  and  C_10
REMARK    6  A    between atoms: C_13  and  C_14
REMARK    7  A    between atoms: C_18  and  C_19
REMARK    8  A    between atoms: C_24  and  C_25
REMARK                            x       y       z     vdW  Elec       q    Type
REMARK                         _______ _______ _______ _____ _____    ______ ____
ROOT
ATOM      1  C   UNL     1       2.278   4.161  18.327  0.00  0.00    +0.000 A 
ATOM      2  C   UNL     1       3.460   4.047  17.588  0.00  0.00    +0.000 A 
ATOM      3  C   UNL     1       4.200   5.181  17.269  0.00  0.00    +0.000 A 
ATOM      4  C   UNL     1       3.757   6.435  17.674  0.00  0.00    +0.000 A 
ATOM      5  C   UNL     1       2.557   6.570  18.392  0.00  0.00    +0.000 A 
ATOM      6  C   UNL     1       1.825   5.422  18.728  0.00  0.00    +0.000 A 
ENDROOT
BRANCH   5   7
ATOM      7  C   UNL     1       2.150   7.950  18.795  0.00  0.00    +0.000 C 
ATOM      8  O   UNL     1       2.547   8.873  18.092  0.00  0.00    +0.000 OA
ATOM      9  N   UNL     1       1.370   8.072  19.925  0.00  0.00    +0.000 N 
ATOM     10  C   UNL     1       0.953   9.303  20.356  0.00  0.00    +0.000 A 
ATOM     11  N   UNL     1       1.042  10.456  19.753  0.00  0.00    +0.000 NA
ATOM     12  C   UNL     1       0.506  11.456  20.543  0.00  0.00    +0.000 A 
ATOM     13  C   UNL     1       0.071  11.029  21.785  0.00  0.00    +0.000 A 
ATOM     14  S   UNL     1       0.224   9.317  21.899  0.00  0.00    +0.000 S 
ATOM     15  H   UNL     1       1.081   7.288  20.483  0.00  0.00    +0.000 HD
BRANCH  12  16
ATOM     16  C   UNL     1       0.443  12.828  20.053  0.00  0.00    +0.000 A 
ATOM     17  C   UNL     1      -0.669  13.650  20.289  0.00  0.00    +0.000 A 
ATOM     18  C   UNL     1      -0.719  14.943  19.760  0.00  0.00    +0.000 A 
ATOM     19  C   UNL     1       0.337  15.428  18.992  0.00  0.00    +0.000 A 
ATOM     20  C   UNL     1       1.447  14.622  18.750  0.00  0.00    +0.000 A 
ATOM     21  C   UNL     1       1.496  13.329  19.274  0.00  0.00    +0.000 A 
ENDBRANCH  12  16
ENDBRANCH   5   7
BRANCH   1  23
ATOM     22  C   UNL     1       2.497   1.906  19.069  0.00  0.00    +0.000 C 
ATOM     23  O   UNL     1       1.672   2.966  18.604  0.00  0.00    +0.000 OA
ENDBRANCH   1  23
BRANCH   3  24
ATOM     24  N   UNL     1       5.413   5.074  16.540  0.00  0.00    +0.000 N 
ATOM     25  H   UNL     1       5.385   4.646  15.616  0.00  0.00    +0.000 HD
BRANCH  24  26
ATOM     26  S   UNL     1       6.865   4.798  17.356  0.00  0.00    +0.000 S 
ATOM     27  O   UNL     1       6.512   4.129  18.592  0.00  0.00    +0.000 OA
ATOM     28  O   UNL     1       7.828   4.225  16.440  0.00  0.00    +0.000 OA
BRANCH  26  29
ATOM     29  C   UNL     1       7.422   6.432  17.790  0.00  0.00    +0.000 A 
ATOM     30  C   UNL     1       8.215   6.607  18.928  0.00  0.00    +0.000 A 
ATOM     31  C   UNL     1       8.710   7.875  19.239  0.00  0.00    +0.000 A 
ATOM     32  C   UNL     1       8.426   8.969  18.413  0.00  0.00    +0.000 A 
ATOM     33  C   UNL     1       8.979  10.331  18.719  0.00  0.00    +0.000 C 
ATOM     34  C   UNL     1       7.635   8.780  17.270  0.00  0.00    +0.000 A 
ATOM     35  C   UNL     1       7.139   7.513  16.951  0.00  0.00    +0.000 A 
ENDBRANCH  26  29
ENDBRANCH  24  26
ENDBRANCH   3  24
TORSDOF 6
ENDMDL
MODEL 7
REMARK VINA RESULT:      -8.3      3.299      4.599
REMARK  Name = 
REMARK  8 active torsions:
REMARK  status: ('A' for Active; 'I' for Inactive)
REMARK    1  A    between atoms: C_1  and  O_2
REMARK    2  A    between atoms: O_2  and  C_3
REMARK    3  A    between atoms: C_5  and  N_6
REMARK    4  A    between atoms: N_6  and  S_7
REMARK    5  A    between atoms: S_7  and  C_10
REMARK    6  A    between atoms: C_13  and  C_14
REMARK    7  A    between atoms: C_18  and  C_19
REMARK    8  A    between atoms: C_24  and  C_25
REMARK                            x       y       z     vdW  Elec       q    Type
REMARK                         _______ _______ _______ _____ _____    ______ ____
ROOT
ATOM      1  C   UNL     1      -1.448  11.384  18.218  0.00  0.00    +0.000 A 
ATOM      2  C   UNL     1      -1.133  12.260  19.262  0.00  0.00    +0.000 A 
ATOM      3  C   UNL     1       0.016  12.062  20.021  0.00  0.00    +0.000 A 
ATOM      4  C   UNL     1       0.848  10.981  19.752  0.00  0.00    +0.000 A 
ATOM      5  C   UNL     1       0.530  10.074  18.726  0.00  0.00    +0.000 A 
ATOM      6  C   UNL     1      -0.618  10.290  17.951  0.00  0.00    +0.000 A 
ENDROOT
BRANCH   5   7
ATOM      7  C   UNL     1       1.476   8.941  18.495  0.00  0.00    +0.000 C 
ATOM      8  O   UNL     1       2.109   8.951  17.445  0.00  0.00    +0.000 OA
ATOM      9  N   UNL     1       1.554   7.976  19.477  0.00  0.00    +0.000 N 
ATOM     10  C   UNL     1       2.401   6.909  19.341  0.00  0.00    +0.000 A 
ATOM     11  N   UNL     1       3.332   6.709  18.449  0.00  0.00    +0.000 NA
ATOM     12  C   UNL     1       3.951   5.492  18.663  0.00  0.00    +0.000 A 
ATOM     13  C   UNL     1       3.414   4.755  19.703  0.00  0.00    +0.000 A 
ATOM     14  S   UNL     1       2.196   5.674  20.501  0.00  0.00    +0.000 S 
ATOM     15  H   UNL     1       1.003   7.997  20.317  0.00  0.00    +0.000 HD
BRANCH  12  16
ATOM     16  C   UNL     1       5.066   5.075  17.821  0.00  0.00    +0.000 A 
ATOM     17  C   UNL     1       6.396   5.147  18.261  0.00  0.00    +0.000 A 
ATOM     18  C   UNL     1       7.445   4.789  17.408  0.00  0.00    +0.000 A 
ATOM     19  C   UNL     1       7.178   4.355  16.112  0.00  0.00    +0.000 A 
ATOM     20  C   UNL     1       5.862   4.279  15.662  0.00  0.00    +0.000 A 
ATOM     21  C   UNL     1       4.814   4.641  16.511  0.00  0.00    +0.000 A 
ENDBRANCH  12  16
ENDBRANCH   5   7
BRANCH   1  23
ATOM     22  C   UNL     1      -3.820  11.237  18.035  0.00  0.00    +0.000 C 
ATOM     23  O   UNL     1      -2.581  11.717  17.529  0.00  0.00    +0.000 OA
ENDBRANCH   1  23
BRANCH   3  24
ATOM     24  N   UNL     1       0.358  12.958  21.066  0.00  0.00    +0.000 N 
ATOM     25  H   UNL     1      -0.391  13.336  21.644  0.00  0.00    +0.000 HD
BRANCH  24  26
ATOM     26  S   UNL     1       1.648  14.029  20.869  0.00  0.00    +0.000 S 
ATOM     27  O   UNL     1       1.936  14.560  22.186  0.00  0.00    +0.000 OA
ATOM     28  O   UNL     1       2.679  13.397  20.072  0.00  0.00    +0.000 OA
BRANCH  26  29
ATOM     29  C   UNL     1       0.950  15.359  19.913  0.00  0.00    +0.000 A 
ATOM     30  C   UNL     1       1.718  15.959  18.911  0.00  0.00    +0.000 A 
ATOM     31  C   UNL     1       1.156  16.958  18.113  0.00  0.00    +0.000 A 
ATOM     32  C   UNL     1      -0.174  17.353  18.303  0.00  0.00    +0.000 A 
ATOM     33  C   UNL     1      -0.799  18.403  17.431  0.00  0.00    +0.000 C 
ATOM     34  C   UNL     1      -0.937  16.737  19.307  0.00  0.00    +0.000 A 
ATOM     35  C   UNL     1      -0.381  15.735  20.107  0.00  0.00    +0.000 A 
ENDBRANCH  26  29
ENDBRANCH  24  26
ENDBRANCH   3  24
TORSDOF 6
ENDMDL
MODEL 8
REMARK VINA RESULT:      -8.2      1.277      1.760
REMARK  Name = 
REMARK  8 active torsions:
REMARK  status: ('A' for Active; 'I' for Inactive)
REMARK    1  A    between atoms: C_1  and  O_2
REMARK    2  A    between atoms: O_2  and  C_3
REMARK    3  A    between atoms: C_5  and  N_6
REMARK    4  A    between atoms: N_6  and  S_7
REMARK    5  A    between atoms: S_7  and  C_10
REMARK    6  A    between atoms: C_13  and  C_14
REMARK    7  A    between atoms: C_18  and  C_19
REMARK    8  A    between atoms: C_24  and  C_25
REMARK                            x       y       z     vdW  Elec       q    Type
REMARK                         _______ _______ _______ _____ _____    ______ ____
ROOT
ATOM      1  C   UNL     1       0.729   9.122  21.288  0.00  0.00    +0.000 A 
ATOM      2  C   UNL     1       0.050  10.164  20.647  0.00  0.00    +0.000 A 
ATOM      3  C   UNL     1       0.153  10.325  19.269  0.00  0.00    +0.000 A 
ATOM      4  C   UNL     1       0.945   9.458  18.526  0.00  0.00    +0.000 A 
ATOM      5  C   UNL     1       1.658   8.424  19.158  0.00  0.00    +0.000 A 
ATOM      6  C   UNL     1       1.534   8.254  20.544  0.00  0.00    +0.000 A 
ENDROOT
BRANCH   5   7
ATOM      7  C   UNL     1       2.483   7.531  18.291  0.00  0.00    +0.000 C 
ATOM      8  O   UNL     1       2.849   7.987  17.212  0.00  0.00    +0.000 OA
ATOM      9  N   UNL     1       2.760   6.268  18.770  0.00  0.00    +0.000 N 
ATOM     10  C   UNL     1       3.514   5.392  18.036  0.00  0.00    +0.000 A 
ATOM     11  N   UNL     1       4.200   5.613  16.948  0.00  0.00    +0.000 NA
ATOM     12  C   UNL     1       4.812   4.450  16.520  0.00  0.00    +0.000 A 
ATOM     13  C   UNL     1       4.513   3.335  17.282  0.00  0.00    +0.000 A 
ATOM     14  S   UNL     1       3.550   3.794  18.634  0.00  0.00    +0.000 S 
ATOM     15  H   UNL     1       2.425   5.927  19.654  0.00  0.00    +0.000 HD
BRANCH  12  16
ATOM     16  C   UNL     1       5.681   4.463  15.349  0.00  0.00    +0.000 A 
ATOM     17  C   UNL     1       6.872   5.202  15.316  0.00  0.00    +0.000 A 
ATOM     18  C   UNL     1       7.655   5.235  14.158  0.00  0.00    +0.000 A 
ATOM     19  C   UNL     1       7.259   4.530  13.024  0.00  0.00    +0.000 A 
ATOM     20  C   UNL     1       6.078   3.791  13.043  0.00  0.00    +0.000 A 
ATOM     21  C   UNL     1       5.293   3.762  14.197  0.00  0.00    +0.000 A 
ENDBRANCH  12  16
ENDBRANCH   5   7
BRANCH   1  23
ATOM     22  C   UNL     1      -0.421   9.974  23.194  0.00  0.00    +0.000 C 
ATOM     23  O   UNL     1       0.509   9.054  22.636  0.00  0.00    +0.000 OA
ENDBRANCH   1  23
BRANCH   3  24
ATOM     24  N   UNL     1      -0.550  11.364  18.606  0.00  0.00    +0.000 N 
ATOM     25  H   UNL     1      -0.447  12.316  18.953  0.00  0.00    +0.000 HD
BRANCH  24  26
ATOM     26  S   UNL     1      -2.074  11.061  17.945  0.00  0.00    +0.000 S 
ATOM     27  O   UNL     1      -2.090  11.714  16.652  0.00  0.00    +0.000 OA
ATOM     28  O   UNL     1      -2.384   9.653  18.081  0.00  0.00    +0.000 OA
BRANCH  26  29
ATOM     29  C   UNL     1      -3.180  11.972  19.002  0.00  0.00    +0.000 A 
ATOM     30  C   UNL     1      -4.557  11.919  18.762  0.00  0.00    +0.000 A 
ATOM     31  C   UNL     1      -5.436  12.577  19.625  0.00  0.00    +0.000 A 
ATOM     32  C   UNL     1      -4.948  13.280  20.733  0.00  0.00    +0.000 A 
ATOM     33  C   UNL     1      -5.885  13.965  21.686  0.00  0.00    +0.000 C 
ATOM     34  C   UNL     1      -3.565  13.319  20.968  0.00  0.00    +0.000 A 
ATOM     35  C   UNL     1      -2.680  12.660  20.110  0.00  0.00    +0.000 A 
ENDBRANCH  26  29
ENDBRANCH  24  26
ENDBRANCH   3  24
TORSDOF 6
ENDMDL
MODEL 9
REMARK VINA RESULT:      -8.2      3.901     10.347
REMARK  Name = 
REMARK  8 active torsions:
REMARK  status: ('A' for Active; 'I' for Inactive)
REMARK    1  A    between atoms: C_1  and  O_2
REMARK    2  A    between atoms: O_2  and  C_3
REMARK    3  A    between atoms: C_5  and  N_6
REMARK    4  A    between atoms: N_6  and  S_7
REMARK    5  A    between atoms: S_7  and  C_10
REMARK    6  A    between atoms: C_13  and  C_14
REMARK    7  A    between atoms: C_18  and  C_19
REMARK    8  A    between atoms: C_24  and  C_25
REMARK                            x       y       z     vdW  Elec       q    Type
REMARK                         _______ _______ _______ _____ _____    ______ ____
ROOT
ATOM      1  C   UNL     1       2.208   4.061  19.738  0.00  0.00    +0.000 A 
ATOM      2  C   UNL     1       3.151   3.932  18.713  0.00  0.00    +0.000 A 
ATOM      3  C   UNL     1       3.636   5.061  18.061  0.00  0.00    +0.000 A 
ATOM      4  C   UNL     1       3.171   6.322  18.417  0.00  0.00    +0.000 A 
ATOM      5  C   UNL     1       2.202   6.466  19.425  0.00  0.00    +0.000 A 
ATOM      6  C   UNL     1       1.732   5.326  20.093  0.00  0.00    +0.000 A 
ENDROOT
BRANCH   5   7
ATOM      7  C   UNL     1       1.757   7.853  19.754  0.00  0.00    +0.000 C 
ATOM      8  O   UNL     1       2.118   8.748  18.996  0.00  0.00    +0.000 OA
ATOM      9  N   UNL     1       0.983   8.015  20.885  0.00  0.00    +0.000 N 
ATOM     10  C   UNL     1       0.532   9.255  21.251  0.00  0.00    +0.000 A 
ATOM     11  N   UNL     1       0.579  10.375  20.583  0.00  0.00    +0.000 NA
ATOM     12  C   UNL     1       0.020  11.401  21.322  0.00  0.00    +0.000 A 
ATOM     13  C   UNL     1      -0.389  11.031  22.590  0.00  0.00    +0.000 A 
ATOM     14  S   UNL     1      -0.182   9.334  22.799  0.00  0.00    +0.000 S 
ATOM     15  H   UNL     1       0.724   7.256  21.489  0.00  0.00    +0.000 HD
BRANCH  12  16
ATOM     16  C   UNL     1      -0.090  12.740  20.756  0.00  0.00    +0.000 A 
ATOM     17  C   UNL     1      -0.074  12.966  19.372  0.00  0.00    +0.000 A 
ATOM     18  C   UNL     1      -0.128  14.268  18.866  0.00  0.00    +0.000 A 
ATOM     19  C   UNL     1      -0.201  15.356  19.733  0.00  0.00    +0.000 A 
ATOM     20  C   UNL     1      -0.219  15.146  21.109  0.00  0.00    +0.000 A 
ATOM     21  C   UNL     1      -0.159  13.846  21.617  0.00  0.00    +0.000 A 
ENDBRANCH  12  16
ENDBRANCH   5   7
BRANCH   1  23
ATOM     22  C   UNL     1       1.905   2.800  21.739  0.00  0.00    +0.000 C 
ATOM     23  O   UNL     1       1.848   2.876  20.320  0.00  0.00    +0.000 OA
ENDBRANCH   1  23
BRANCH   3  24
ATOM     24  N   UNL     1       4.610   4.945  17.036  0.00  0.00    +0.000 N 
ATOM     25  H   UNL     1       4.322   4.564  16.136  0.00  0.00    +0.000 HD
BRANCH  24  26
ATOM     26  S   UNL     1       6.208   4.572  17.432  0.00  0.00    +0.000 S 
ATOM     27  O   UNL     1       6.154   3.843  18.682  0.00  0.00    +0.000 OA
ATOM     28  O   UNL     1       6.875   4.022  16.269  0.00  0.00    +0.000 OA
BRANCH  26  29
ATOM     29  C   UNL     1       6.936   6.158  17.784  0.00  0.00    +0.000 A 
ATOM     30  C   UNL     1       7.908   6.259  18.784  0.00  0.00    +0.000 A 
ATOM     31  C   UNL     1       8.530   7.486  19.024  0.00  0.00    +0.000 A 
ATOM     32  C   UNL     1       8.195   8.611  18.260  0.00  0.00    +0.000 A 
ATOM     33  C   UNL     1       8.880   9.929  18.486  0.00  0.00    +0.000 C 
ATOM     34  C   UNL     1       7.224   8.495  17.255  0.00  0.00    +0.000 A 
ATOM     35  C   UNL     1       6.599   7.269  17.009  0.00  0.00    +0.000 A 
ENDBRANCH  26  29
ENDBRANCH  24  26
ENDBRANCH   3  24
TORSDOF 6
ENDMDL
