MODEL 1
REMARK VINA RESULT:      -8.4      0.000      0.000
REMARK  Name = 
REMARK  4 active torsions:
REMARK  status: ('A' for Active; 'I' for Inactive)
REMARK    1  A    between atoms: C_8  and  N_9
REMARK    2  A    between atoms: N_9  and  C_10
REMARK    3  A    between atoms: C_16  and  N_17
REMARK    4  A    between atoms: N_17  and  C_18
REMARK                            x       y       z     vdW  Elec       q    Type
REMARK                         _______ _______ _______ _____ _____    ______ ____
ROOT
ATOM      1  O   UNL     1       7.847   7.628  16.726  0.00  0.00    +0.000 OA
ATOM      2  C   UNL     1       7.263   6.628  16.367  0.00  0.00    +0.000 C 
ATOM      3  N   UNL     1       7.606   5.767  15.370  0.00  0.00    +0.000 N 
ATOM      4  C   UNL     1       6.722   4.740  15.247  0.00  0.00    +0.000 C 
ATOM      5  O   UNL     1       6.754   3.811  14.468  0.00  0.00    +0.000 OA
ATOM      6  C   UNL     1       5.694   4.954  16.266  0.00  0.00    +0.000 A 
ATOM      7  C   UNL     1       4.566   4.221  16.571  0.00  0.00    +0.000 A 
ATOM      8  C   UNL     1       3.756   4.664  17.633  0.00  0.00    +0.000 A 
ATOM      9  C   UNL     1       4.111   5.860  18.352  0.00  0.00    +0.000 A 
ATOM     10  C   UNL     1       5.253   6.593  17.978  0.00  0.00    +0.000 A 
ATOM     11  C   UNL     1       6.027   6.107  16.948  0.00  0.00    +0.000 A 
ATOM     12  H   UNL     1       8.428   5.871  14.796  0.00  0.00    +0.000 HD
ENDROOT
BRANCH   8  13
ATOM     13  N   UNL     1       2.588   3.944  18.007  0.00  0.00    +0.000 N 
ATOM     14  H   UNL     1       2.198   3.434  17.219  0.00  0.00    +0.000 HD
BRANCH  13  15
ATOM     15  C   UNL     1       2.246   3.387  19.261  0.00  0.00    +0.000 A 
ATOM     16  C   UNL     1       3.200   2.788  20.097  0.00  0.00    +0.000 A 
ATOM     17  C   UNL     1       2.857   2.308  21.365  0.00  0.00    +0.000 A 
ATOM     18  C   UNL     1       1.551   2.433  21.827  0.00  0.00    +0.000 A 
ATOM     19  C   UNL     1       0.587   3.023  21.013  0.00  0.00    +0.000 A 
ATOM     20  C   UNL     1       0.933   3.497  19.741  0.00  0.00    +0.000 A 
ENDBRANCH  13  15
ENDBRANCH   8  13
BRANCH   9  21
ATOM     21  N   UNL     1       3.289   6.330  19.410  0.00  0.00    +0.000 N 
ATOM     22  H   UNL     1       3.749   6.255  20.313  0.00  0.00    +0.000 HD
BRANCH  21  23
ATOM     23  C   UNL     1       2.407   7.439  19.403  0.00  0.00    +0.000 A 
ATOM     24  C   UNL     1       1.759   7.787  20.596  0.00  0.00    +0.000 A 
ATOM     25  C   UNL     1       0.885   8.876  20.649  0.00  0.00    +0.000 A 
ATOM     26  C   UNL     1       0.656   9.645  19.511  0.00  0.00    +0.000 A 
ATOM     27  C   UNL     1       1.306   9.327  18.322  0.00  0.00    +0.000 A 
ATOM     28  C   UNL     1       2.178   8.233  18.270  0.00  0.00    +0.000 A 
ENDBRANCH  21  23
ENDBRANCH   9  21
TORSDOF 4
ENDMDL
MODEL 2
REMARK VINA RESULT:      -8.2      2.557      5.955
REMARK  Name = 
REMARK  4 active torsions:
REMARK  status: ('A' for Active; 'I' for Inactive)
REMARK    1  A    between atoms: C_8  and  N_9
REMARK    2  A    between atoms: N_9  and  C_10
REMARK    3  A    between atoms: C_16  and  N_17
REMARK    4  A    between atoms: N_17  and  C_18
REMARK                            x       y       z     vdW  Elec       q    Type
REMARK                         _______ _______ _______ _____ _____    ______ ____
ROOT
ATOM      1  O   UNL     1       3.905   0.878  17.934  0.00  0.00    +0.000 OA
ATOM      2  C   UNL     1       3.127   1.748  18.263  0.00  0.00    +0.000 C 
ATOM      3  N   UNL     1       1.932   1.610  18.901  0.00  0.00    +0.000 N 
ATOM      4  C   UNL     1       1.324   2.806  19.123  0.00  0.00    +0.000 C 
ATOM      5  O   UNL     1       0.264   3.019  19.674  0.00  0.00    +0.000 OA
ATOM      6  C   UNL     1       2.209   3.830  18.568  0.00  0.00    +0.000 A 
ATOM      7  C   UNL     1       2.071   5.202  18.515  0.00  0.00    +0.000 A 
ATOM      8  C   UNL     1       3.109   5.948  17.926  0.00  0.00    +0.000 A 
ATOM      9  C   UNL     1       4.262   5.272  17.392  0.00  0.00    +0.000 A 
ATOM     10  C   UNL     1       4.338   3.867  17.438  0.00  0.00    +0.000 A 
ATOM     11  C   UNL     1       3.309   3.181  18.044  0.00  0.00    +0.000 A 
ATOM     12  H   UNL     1       1.549   0.724  19.189  0.00  0.00    +0.000 HD
ENDROOT
BRANCH   8  13
ATOM     13  N   UNL     1       3.035   7.367  17.854  0.00  0.00    +0.000 N 
ATOM     14  H   UNL     1       3.366   7.711  16.957  0.00  0.00    +0.000 HD
BRANCH  13  15
ATOM     15  C   UNL     1       2.130   8.246  18.493  0.00  0.00    +0.000 A 
ATOM     16  C   UNL     1       1.362   9.177  17.779  0.00  0.00    +0.000 A 
ATOM     17  C   UNL     1       0.419   9.988  18.420  0.00  0.00    +0.000 A 
ATOM     18  C   UNL     1       0.218   9.869  19.792  0.00  0.00    +0.000 A 
ATOM     19  C   UNL     1       0.970   8.953  20.521  0.00  0.00    +0.000 A 
ATOM     20  C   UNL     1       1.918   8.148  19.876  0.00  0.00    +0.000 A 
ENDBRANCH  13  15
ENDBRANCH   8  13
BRANCH   9  21
ATOM     21  N   UNL     1       5.305   6.012  16.775  0.00  0.00    +0.000 N 
ATOM     22  H   UNL     1       4.973   6.544  15.975  0.00  0.00    +0.000 HD
BRANCH  21  23
ATOM     23  C   UNL     1       6.381   6.690  17.400  0.00  0.00    +0.000 A 
ATOM     24  C   UNL     1       7.132   6.007  18.367  0.00  0.00    +0.000 A 
ATOM     25  C   UNL     1       8.209   6.624  19.009  0.00  0.00    +0.000 A 
ATOM     26  C   UNL     1       8.563   7.930  18.683  0.00  0.00    +0.000 A 
ATOM     27  C   UNL     1       7.842   8.618  17.711  0.00  0.00    +0.000 A 
ATOM     28  C   UNL     1       6.761   8.000  17.071  0.00  0.00    +0.000 A 
ENDBRANCH  21  23
ENDBRANCH   9  21
TORSDOF 4
ENDMDL
MODEL 3
REMARK VINA RESULT:      -8.2      2.562      5.394
REMARK  Name = 
REMARK  4 active torsions:
REMARK  status: ('A' for Active; 'I' for Inactive)
REMARK    1  A    between atoms: C_8  and  N_9
REMARK    2  A    between atoms: N_9  and  C_10
REMARK    3  A    between atoms: C_16  and  N_17
REMARK    4  A    between atoms: N_17  and  C_18
REMARK                            x       y       z     vdW  Elec       q    Type
REMARK                         _______ _______ _______ _____ _____    ______ ____
ROOT
ATOM      1  O   UNL     1       0.212   2.937  19.593  0.00  0.00    +0.000 OA
ATOM      2  C   UNL     1       1.301   2.727  19.104  0.00  0.00    +0.000 C 
ATOM      3  N   UNL     1       1.939   1.534  18.954  0.00  0.00    +0.000 N 
ATOM      4  C   UNL     1       3.152   1.669  18.352  0.00  0.00    +0.000 C 
ATOM      5  O   UNL     1       3.951   0.801  18.069  0.00  0.00    +0.000 OA
ATOM      6  C   UNL     1       3.326   3.097  18.087  0.00  0.00    +0.000 A 
ATOM      7  C   UNL     1       4.374   3.780  17.506  0.00  0.00    +0.000 A 
ATOM      8  C   UNL     1       4.255   5.176  17.362  0.00  0.00    +0.000 A 
ATOM      9  C   UNL     1       3.069   5.844  17.830  0.00  0.00    +0.000 A 
ATOM     10  C   UNL     1       2.043   5.106  18.450  0.00  0.00    +0.000 A 
ATOM     11  C   UNL     1       2.194   3.740  18.547  0.00  0.00    +0.000 A 
ATOM     12  H   UNL     1       1.552   0.650  19.243  0.00  0.00    +0.000 HD
ENDROOT
BRANCH   8  13
ATOM     13  N   UNL     1       5.294   5.936  16.757  0.00  0.00    +0.000 N 
ATOM     14  H   UNL     1       4.968   6.410  15.919  0.00  0.00    +0.000 HD
BRANCH  13  15
ATOM     15  C   UNL     1       6.406   6.567  17.363  0.00  0.00    +0.000 A 
ATOM     16  C   UNL     1       6.762   7.892  17.074  0.00  0.00    +0.000 A 
ATOM     17  C   UNL     1       7.820   8.522  17.737  0.00  0.00    +0.000 A 
ATOM     18  C   UNL     1       8.534   7.838  18.716  0.00  0.00    +0.000 A 
ATOM     19  C   UNL     1       8.199   6.521  19.018  0.00  0.00    +0.000 A 
ATOM     20  C   UNL     1       7.142   5.892  18.347  0.00  0.00    +0.000 A 
ENDBRANCH  13  15
ENDBRANCH   8  13
BRANCH   9  21
ATOM     21  N   UNL     1       2.947   7.254  17.712  0.00  0.00    +0.000 N 
ATOM     22  H   UNL     1       2.924   7.555  16.741  0.00  0.00    +0.000 HD
BRANCH  21  23
ATOM     23  C   UNL     1       2.179   8.134  18.513  0.00  0.00    +0.000 A 
ATOM     24  C   UNL     1       1.624   9.273  17.915  0.00  0.00    +0.000 A 
ATOM     25  C   UNL     1       0.851  10.171  18.655  0.00  0.00    +0.000 A 
ATOM     26  C   UNL     1       0.606   9.935  20.005  0.00  0.00    +0.000 A 
ATOM     27  C   UNL     1       1.131   8.799  20.613  0.00  0.00    +0.000 A 
ATOM     28  C   UNL     1       1.910   7.902  19.871  0.00  0.00    +0.000 A 
ENDBRANCH  21  23
ENDBRANCH   9  21
TORSDOF 4
ENDMDL
MODEL 4
REMARK VINA RESULT:      -8.2      2.568      5.928
REMARK  Name = 
REMARK  4 active torsions:
REMARK  status: ('A' for Active; 'I' for Inactive)
REMARK    1  A    between atoms: C_8  and  N_9
REMARK    2  A    between atoms: N_9  and  C_10
REMARK    3  A    between atoms: C_16  and  N_17
REMARK    4  A    between atoms: N_17  and  C_18
REMARK                            x       y       z     vdW  Elec       q    Type
REMARK                         _______ _______ _______ _____ _____    ______ ____
ROOT
ATOM      1  O   UNL     1       4.128   0.905  17.967  0.00  0.00    +0.000 OA
ATOM      2  C   UNL     1       3.220   1.674  18.201  0.00  0.00    +0.000 C 
ATOM      3  N   UNL     1       1.993   1.394  18.719  0.00  0.00    +0.000 N 
ATOM      4  C   UNL     1       1.223   2.507  18.857  0.00  0.00    +0.000 C 
ATOM      5  O   UNL     1       0.096   2.591  19.295  0.00  0.00    +0.000 OA
ATOM      6  C   UNL     1       2.029   3.629  18.375  0.00  0.00    +0.000 A 
ATOM      7  C   UNL     1       1.731   4.973  18.283  0.00  0.00    +0.000 A 
ATOM      8  C   UNL     1       2.725   5.839  17.788  0.00  0.00    +0.000 A 
ATOM      9  C   UNL     1       4.000   5.306  17.384  0.00  0.00    +0.000 A 
ATOM     10  C   UNL     1       4.241   3.922  17.463  0.00  0.00    +0.000 A 
ATOM     11  C   UNL     1       3.247   3.118  17.976  0.00  0.00    +0.000 A 
ATOM     12  H   UNL     1       1.693   0.469  18.983  0.00  0.00    +0.000 HD
ENDROOT
BRANCH   8  13
ATOM     13  N   UNL     1       2.485   7.237  17.683  0.00  0.00    +0.000 N 
ATOM     14  H   UNL     1       2.266   7.505  16.728  0.00  0.00    +0.000 HD
BRANCH  13  15
ATOM     15  C   UNL     1       1.966   8.128  18.651  0.00  0.00    +0.000 A 
ATOM     16  C   UNL     1       1.418   9.371  18.304  0.00  0.00    +0.000 A 
ATOM     17  C   UNL     1       0.843  10.208  19.266  0.00  0.00    +0.000 A 
ATOM     18  C   UNL     1       0.793   9.805  20.597  0.00  0.00    +0.000 A 
ATOM     19  C   UNL     1       1.334   8.576  20.965  0.00  0.00    +0.000 A 
ATOM     20  C   UNL     1       1.914   7.744  19.999  0.00  0.00    +0.000 A 
ENDBRANCH  13  15
ENDBRANCH   8  13
BRANCH   9  21
ATOM     21  N   UNL     1       5.002   6.166  16.862  0.00  0.00    +0.000 N 
ATOM     22  H   UNL     1       4.606   6.920  16.308  0.00  0.00    +0.000 HD
BRANCH  21  23
ATOM     23  C   UNL     1       6.196   6.598  17.491  0.00  0.00    +0.000 A 
ATOM     24  C   UNL     1       6.718   7.852  17.148  0.00  0.00    +0.000 A 
ATOM     25  C   UNL     1       7.888   8.332  17.742  0.00  0.00    +0.000 A 
ATOM     26  C   UNL     1       8.547   7.570  18.702  0.00  0.00    +0.000 A 
ATOM     27  C   UNL     1       8.034   6.330  19.071  0.00  0.00    +0.000 A 
ATOM     28  C   UNL     1       6.864   5.849  18.471  0.00  0.00    +0.000 A 
ENDBRANCH  21  23
ENDBRANCH   9  21
TORSDOF 4
ENDMDL
MODEL 5
REMARK VINA RESULT:      -8.1      0.197      4.605
REMARK  Name = 
REMARK  4 active torsions:
REMARK  status: ('A' for Active; 'I' for Inactive)
REMARK    1  A    between atoms: C_8  and  N_9
REMARK    2  A    between atoms: N_9  and  C_10
REMARK    3  A    between atoms: C_16  and  N_17
REMARK    4  A    between atoms: N_17  and  C_18
REMARK                            x       y       z     vdW  Elec       q    Type
REMARK                         _______ _______ _______ _____ _____    ______ ____
ROOT
ATOM      1  O   UNL     1       6.699   3.640  14.306  0.00  0.00    +0.000 OA
ATOM      2  C   UNL     1       6.707   4.554  15.104  0.00  0.00    +0.000 C 
ATOM      3  N   UNL     1       7.616   5.560  15.220  0.00  0.00    +0.000 N 
ATOM      4  C   UNL     1       7.306   6.423  16.225  0.00  0.00    +0.000 C 
ATOM      5  O   UNL     1       7.906   7.418  16.573  0.00  0.00    +0.000 OA
ATOM      6  C   UNL     1       6.070   5.927  16.830  0.00  0.00    +0.000 A 
ATOM      7  C   UNL     1       5.329   6.416  17.886  0.00  0.00    +0.000 A 
ATOM      8  C   UNL     1       4.153   5.729  18.243  0.00  0.00    +0.000 A 
ATOM      9  C   UNL     1       3.767   4.547  17.517  0.00  0.00    +0.000 A 
ATOM     10  C   UNL     1       4.577   4.068  16.470  0.00  0.00    +0.000 A 
ATOM     11  C   UNL     1       5.706   4.787  16.143  0.00  0.00    +0.000 A 
ATOM     12  H   UNL     1       8.421   5.662  14.622  0.00  0.00    +0.000 HD
ENDROOT
BRANCH   8  13
ATOM     13  N   UNL     1       3.337   6.190  19.313  0.00  0.00    +0.000 N 
ATOM     14  H   UNL     1       3.712   5.907  20.214  0.00  0.00    +0.000 HD
BRANCH  13  15
ATOM     15  C   UNL     1       2.523   7.345  19.380  0.00  0.00    +0.000 A 
ATOM     16  C   UNL     1       2.293   8.163  18.265  0.00  0.00    +0.000 A 
ATOM     17  C   UNL     1       1.427   9.259  18.332  0.00  0.00    +0.000 A 
ATOM     18  C   UNL     1       0.762   9.548  19.520  0.00  0.00    +0.000 A 
ATOM     19  C   UNL     1       0.977   8.751  20.641  0.00  0.00    +0.000 A 
ATOM     20  C   UNL     1       1.850   7.658  20.570  0.00  0.00    +0.000 A 
ENDBRANCH  13  15
ENDBRANCH   8  13
BRANCH   9  21
ATOM     21  N   UNL     1       2.595   3.833  17.882  0.00  0.00    +0.000 N 
ATOM     22  H   UNL     1       2.331   3.149  17.178  0.00  0.00    +0.000 HD
BRANCH  21  23
ATOM     23  C   UNL     1       2.215   3.381  19.169  0.00  0.00    +0.000 A 
ATOM     24  C   UNL     1       0.891   3.580  19.585  0.00  0.00    +0.000 A 
ATOM     25  C   UNL     1       0.458   3.148  20.841  0.00  0.00    +0.000 A 
ATOM     26  C   UNL     1       1.339   2.494  21.697  0.00  0.00    +0.000 A 
ATOM     27  C   UNL     1       2.653   2.269  21.295  0.00  0.00    +0.000 A 
ATOM     28  C   UNL     1       3.086   2.707  20.038  0.00  0.00    +0.000 A 
ENDBRANCH  21  23
ENDBRANCH   9  21
TORSDOF 4
ENDMDL
MODEL 6
REMARK VINA RESULT:      -8.1      0.235      4.660
REMARK  Name = 
REMARK  4 active torsions:
REMARK  status: ('A' for Active; 'I' for Inactive)
REMARK    1  A    between atoms: C_8  and  N_9
REMARK    2  A    between atoms: N_9  and  C_10
REMARK    3  A    between atoms: C_16  and  N_17
REMARK    4  A    between atoms: N_17  and  C_18
REMARK                            x       y       z     vdW  Elec       q    Type
REMARK                         _______ _______ _______ _____ _____    ______ ____
ROOT
ATOM      1  O   UNL     1       6.969   4.164  14.568  0.00  0.00    +0.000 OA
ATOM      2  C   UNL     1       6.864   5.063  15.375  0.00  0.00    +0.000 C 
ATOM      3  N   UNL     1       7.686   6.132  15.554  0.00  0.00    +0.000 N 
ATOM      4  C   UNL     1       7.258   6.953  16.550  0.00  0.00    +0.000 C 
ATOM      5  O   UNL     1       7.760   7.985  16.942  0.00  0.00    +0.000 OA
ATOM      6  C   UNL     1       6.032   6.356  17.079  0.00  0.00    +0.000 A 
ATOM      7  C   UNL     1       5.199   6.771  18.099  0.00  0.00    +0.000 A 
ATOM      8  C   UNL     1       4.061   5.992  18.381  0.00  0.00    +0.000 A 
ATOM      9  C   UNL     1       3.806   4.796  17.621  0.00  0.00    +0.000 A 
ATOM     10  C   UNL     1       4.707   4.396  16.615  0.00  0.00    +0.000 A 
ATOM     11  C   UNL     1       5.793   5.203  16.360  0.00  0.00    +0.000 A 
ATOM     12  H   UNL     1       8.512   6.304  15.003  0.00  0.00    +0.000 HD
ENDROOT
BRANCH   8  13
ATOM     13  N   UNL     1       3.156   6.373  19.410  0.00  0.00    +0.000 N 
ATOM     14  H   UNL     1       3.488   6.080  20.324  0.00  0.00    +0.000 HD
BRANCH  13  15
ATOM     15  C   UNL     1       2.277   7.480  19.459  0.00  0.00    +0.000 A 
ATOM     16  C   UNL     1       1.601   7.846  20.633  0.00  0.00    +0.000 A 
ATOM     17  C   UNL     1       0.793   8.987  20.681  0.00  0.00    +0.000 A 
ATOM     18  C   UNL     1       0.659   9.793  19.555  0.00  0.00    +0.000 A 
ATOM     19  C   UNL     1       1.318   9.448  18.379  0.00  0.00    +0.000 A 
ATOM     20  C   UNL     1       2.121   8.301  18.332  0.00  0.00    +0.000 A 
ENDBRANCH  13  15
ENDBRANCH   8  13
BRANCH   9  21
ATOM     21  N   UNL     1       2.674   3.990  17.913  0.00  0.00    +0.000 N 
ATOM     22  H   UNL     1       2.488   3.314  17.176  0.00  0.00    +0.000 HD
BRANCH  21  23
ATOM     23  C   UNL     1       2.275   3.467  19.167  0.00  0.00    +0.000 A 
ATOM     24  C   UNL     1       3.242   2.855  19.976  0.00  0.00    +0.000 A 
ATOM     25  C   UNL     1       2.907   2.329  21.227  0.00  0.00    +0.000 A 
ATOM     26  C   UNL     1       1.600   2.421  21.696  0.00  0.00    +0.000 A 
ATOM     27  C   UNL     1       0.629   3.043  20.916  0.00  0.00    +0.000 A 
ATOM     28  C   UNL     1       0.966   3.565  19.661  0.00  0.00    +0.000 A 
ENDBRANCH  21  23
ENDBRANCH   9  21
TORSDOF 4
ENDMDL
MODEL 7
REMARK VINA RESULT:      -8.1      0.310      1.009
REMARK  Name = 
REMARK  4 active torsions:
REMARK  status: ('A' for Active; 'I' for Inactive)
REMARK    1  A    between atoms: C_8  and  N_9
REMARK    2  A    between atoms: N_9  and  C_10
REMARK    3  A    between atoms: C_16  and  N_17
REMARK    4  A    between atoms: N_17  and  C_18
REMARK                            x       y       z     vdW  Elec       q    Type
REMARK                         _______ _______ _______ _____ _____    ______ ____
ROOT
ATOM      1  O   UNL     1       7.911   7.264  16.337  0.00  0.00    +0.000 OA
ATOM      2  C   UNL     1       7.260   6.285  16.039  0.00  0.00    +0.000 C 
ATOM      3  N   UNL     1       7.521   5.365  15.070  0.00  0.00    +0.000 N 
ATOM      4  C   UNL     1       6.577   4.387  15.019  0.00  0.00    +0.000 C 
ATOM      5  O   UNL     1       6.530   3.426  14.281  0.00  0.00    +0.000 OA
ATOM      6  C   UNL     1       5.597   4.703  16.059  0.00  0.00    +0.000 A 
ATOM      7  C   UNL     1       4.440   4.049  16.430  0.00  0.00    +0.000 A 
ATOM      8  C   UNL     1       3.692   4.583  17.496  0.00  0.00    +0.000 A 
ATOM      9  C   UNL     1       4.138   5.784  18.152  0.00  0.00    +0.000 A 
ATOM     10  C   UNL     1       5.306   6.434  17.711  0.00  0.00    +0.000 A 
ATOM     11  C   UNL     1       6.017   5.862  16.680  0.00  0.00    +0.000 A 
ATOM     12  H   UNL     1       8.328   5.397  14.467  0.00  0.00    +0.000 HD
ENDROOT
BRANCH   8  13
ATOM     13  N   UNL     1       2.497   3.947  17.936  0.00  0.00    +0.000 N 
ATOM     14  H   UNL     1       2.068   3.407  17.190  0.00  0.00    +0.000 HD
BRANCH  13  15
ATOM     15  C   UNL     1       2.155   3.491  19.230  0.00  0.00    +0.000 A 
ATOM     16  C   UNL     1       0.830   3.473  19.689  0.00  0.00    +0.000 A 
ATOM     17  C   UNL     1       0.502   2.950  20.945  0.00  0.00    +0.000 A 
ATOM     18  C   UNL     1       1.498   2.420  21.760  0.00  0.00    +0.000 A 
ATOM     19  C   UNL     1       2.821   2.430  21.325  0.00  0.00    +0.000 A 
ATOM     20  C   UNL     1       3.145   2.960  20.070  0.00  0.00    +0.000 A 
ENDBRANCH  13  15
ENDBRANCH   8  13
BRANCH   9  21
ATOM     21  N   UNL     1       3.379   6.345  19.213  0.00  0.00    +0.000 N 
ATOM     22  H   UNL     1       3.888   6.334  20.092  0.00  0.00    +0.000 HD
BRANCH  21  23
ATOM     23  C   UNL     1       2.507   7.460  19.167  0.00  0.00    +0.000 A 
ATOM     24  C   UNL     1       1.837   7.836  20.340  0.00  0.00    +0.000 A 
ATOM     25  C   UNL     1       0.971   8.932  20.355  0.00  0.00    +0.000 A 
ATOM     26  C   UNL     1       0.773   9.682  19.199  0.00  0.00    +0.000 A 
ATOM     27  C   UNL     1       1.444   9.338  18.030  0.00  0.00    +0.000 A 
ATOM     28  C   UNL     1       2.308   8.236  18.015  0.00  0.00    +0.000 A 
ENDBRANCH  21  23
ENDBRANCH   9  21
TORSDOF 4
ENDMDL
MODEL 8
REMARK VINA RESULT:      -7.9      3.138      6.040
REMARK  Name = 
REMARK  4 active torsions:
REMARK  status: ('A' for Active; 'I' for Inactive)
REMARK    1  A    between atoms: C_8  and  N_9
REMARK    2  A    between atoms: N_9  and  C_10
REMARK    3  A    between atoms: C_16  and  N_17
REMARK    4  A    between atoms: N_17  and  C_18
REMARK                            x       y       z     vdW  Elec       q    Type
REMARK                         _______ _______ _______ _____ _____    ______ ____
ROOT
ATOM      1  O   UNL     1       0.430  11.342  18.284  0.00  0.00    +0.000 OA
ATOM      2  C   UNL     1       0.629  10.661  19.268  0.00  0.00    +0.000 C 
ATOM      3  N   UNL     1       0.303  10.936  20.560  0.00  0.00    +0.000 N 
ATOM      4  C   UNL     1       0.670   9.938  21.409  0.00  0.00    +0.000 C 
ATOM      5  O   UNL     1       0.510   9.877  22.610  0.00  0.00    +0.000 OA
ATOM      6  C   UNL     1       1.304   8.908  20.587  0.00  0.00    +0.000 A 
ATOM      7  C   UNL     1       1.862   7.696  20.940  0.00  0.00    +0.000 A 
ATOM      8  C   UNL     1       2.392   6.889  19.915  0.00  0.00    +0.000 A 
ATOM      9  C   UNL     1       2.352   7.347  18.551  0.00  0.00    +0.000 A 
ATOM     10  C   UNL     1       1.805   8.608  18.248  0.00  0.00    +0.000 A 
ATOM     11  C   UNL     1       1.277   9.351  19.280  0.00  0.00    +0.000 A 
ATOM     12  H   UNL     1      -0.168  11.777  20.854  0.00  0.00    +0.000 HD
ENDROOT
BRANCH   8  13
ATOM     13  N   UNL     1       2.968   5.623  20.212  0.00  0.00    +0.000 N 
ATOM     14  H   UNL     1       3.489   5.647  21.084  0.00  0.00    +0.000 HD
BRANCH  13  15
ATOM     15  C   UNL     1       2.506   4.331  19.868  0.00  0.00    +0.000 A 
ATOM     16  C   UNL     1       1.141   4.017  19.807  0.00  0.00    +0.000 A 
ATOM     17  C   UNL     1       0.701   2.755  19.395  0.00  0.00    +0.000 A 
ATOM     18  C   UNL     1       1.626   1.785  19.020  0.00  0.00    +0.000 A 
ATOM     19  C   UNL     1       2.987   2.073  19.074  0.00  0.00    +0.000 A 
ATOM     20  C   UNL     1       3.423   3.337  19.494  0.00  0.00    +0.000 A 
ENDBRANCH  13  15
ENDBRANCH   8  13
BRANCH   9  21
ATOM     21  N   UNL     1       2.905   6.552  17.512  0.00  0.00    +0.000 N 
ATOM     22  H   UNL     1       2.393   6.654  16.641  0.00  0.00    +0.000 HD
BRANCH  21  23
ATOM     23  C   UNL     1       4.272   6.291  17.247  0.00  0.00    +0.000 A 
ATOM     24  C   UNL     1       5.216   7.278  17.562  0.00  0.00    +0.000 A 
ATOM     25  C   UNL     1       6.578   7.071  17.330  0.00  0.00    +0.000 A 
ATOM     26  C   UNL     1       7.021   5.865  16.793  0.00  0.00    +0.000 A 
ATOM     27  C   UNL     1       6.101   4.865  16.493  0.00  0.00    +0.000 A 
ATOM     28  C   UNL     1       4.736   5.075  16.722  0.00  0.00    +0.000 A 
ENDBRANCH  21  23
ENDBRANCH   9  21
TORSDOF 4
ENDMDL
MODEL 9
REMARK VINA RESULT:      -7.9      1.452      4.768
REMARK  Name = 
REMARK  4 active torsions:
REMARK  status: ('A' for Active; 'I' for Inactive)
REMARK    1  A    between atoms: C_8  and  N_9
REMARK    2  A    between atoms: N_9  and  C_10
REMARK    3  A    between atoms: C_16  and  N_17
REMARK    4  A    between atoms: N_17  and  C_18
REMARK                            x       y       z     vdW  Elec       q    Type
REMARK                         _______ _______ _______ _____ _____    ______ ____
ROOT
ATOM      1  O   UNL     1       7.803   4.068  17.793  0.00  0.00    +0.000 OA
ATOM      2  C   UNL     1       7.415   5.211  17.682  0.00  0.00    +0.000 C 
ATOM      3  N   UNL     1       8.157   6.336  17.492  0.00  0.00    +0.000 N 
ATOM      4  C   UNL     1       7.388   7.454  17.402  0.00  0.00    +0.000 C 
ATOM      5  O   UNL     1       7.745   8.600  17.223  0.00  0.00    +0.000 OA
ATOM      6  C   UNL     1       6.001   7.015  17.553  0.00  0.00    +0.000 A 
ATOM      7  C   UNL     1       4.826   7.738  17.551  0.00  0.00    +0.000 A 
ATOM      8  C   UNL     1       3.616   7.034  17.703  0.00  0.00    +0.000 A 
ATOM      9  C   UNL     1       3.637   5.604  17.868  0.00  0.00    +0.000 A 
ATOM     10  C   UNL     1       4.865   4.917  17.899  0.00  0.00    +0.000 A 
ATOM     11  C   UNL     1       6.021   5.645  17.724  0.00  0.00    +0.000 A 
ATOM     12  H   UNL     1       9.162   6.340  17.413  0.00  0.00    +0.000 HD
ENDROOT
BRANCH   8  13
ATOM     13  N   UNL     1       2.369   7.719  17.695  0.00  0.00    +0.000 N 
ATOM     14  H   UNL     1       1.707   7.276  17.065  0.00  0.00    +0.000 HD
BRANCH  13  15
ATOM     15  C   UNL     1       1.753   8.461  18.729  0.00  0.00    +0.000 A 
ATOM     16  C   UNL     1       0.988   9.608  18.472  0.00  0.00    +0.000 A 
ATOM     17  C   UNL     1       0.325  10.286  19.500  0.00  0.00    +0.000 A 
ATOM     18  C   UNL     1       0.405   9.817  20.808  0.00  0.00    +0.000 A 
ATOM     19  C   UNL     1       1.161   8.681  21.087  0.00  0.00    +0.000 A 
ATOM     20  C   UNL     1       1.828   8.009  20.055  0.00  0.00    +0.000 A 
ENDBRANCH  13  15
ENDBRANCH   8  13
BRANCH   9  21
ATOM     21  N   UNL     1       2.425   4.885  18.045  0.00  0.00    +0.000 N 
ATOM     22  H   UNL     1       2.100   4.466  17.178  0.00  0.00    +0.000 HD
BRANCH  21  23
ATOM     23  C   UNL     1       2.037   4.087  19.149  0.00  0.00    +0.000 A 
ATOM     24  C   UNL     1       2.377   4.518  20.439  0.00  0.00    +0.000 A 
ATOM     25  C   UNL     1       2.014   3.775  21.565  0.00  0.00    +0.000 A 
ATOM     26  C   UNL     1       1.290   2.595  21.420  0.00  0.00    +0.000 A 
ATOM     27  C   UNL     1       0.926   2.160  20.149  0.00  0.00    +0.000 A 
ATOM     28  C   UNL     1       1.294   2.904  19.021  0.00  0.00    +0.000 A 
ENDBRANCH  21  23
ENDBRANCH   9  21
TORSDOF 4
ENDMDL
