MODEL 1
REMARK VINA RESULT:      -7.9      0.000      0.000
REMARK  Name = 
REMARK  4 active torsions:
REMARK  status: ('A' for Active; 'I' for Inactive)
REMARK    1  A    between atoms: C_2  and  O_3
REMARK    2  A    between atoms: C_2  and  C_4
REMARK    3  A    between atoms: C_7  and  C_8
REMARK    4  A    between atoms: C_11  and  C_12
REMARK                            x       y       z     vdW  Elec       q    Type
REMARK                         _______ _______ _______ _____ _____    ______ ____
ROOT
ATOM      1  C   UNL     1       7.118   5.969  16.969  0.00  0.00    +0.000 A 
ATOM      2  C   UNL     1       7.516   5.536  18.221  0.00  0.00    +0.000 A 
ATOM      3  C   UNL     1       8.091   6.628  18.902  0.00  0.00    +0.000 A 
ATOM      4  C   UNL     1       8.036   7.722  18.064  0.00  0.00    +0.000 A 
ATOM      5  N   UNL     1       7.439   7.310  16.893  0.00  0.00    +0.000 N 
ATOM      6  H   UNL     1       7.265   7.911  16.097  0.00  0.00    +0.000 HD
ENDROOT
BRANCH   4   7
ATOM      7  C   UNL     1       8.491   9.056  18.311  0.00  0.00    +0.000 A 
ATOM      8  C   UNL     1       8.260  10.176  17.528  0.00  0.00    +0.000 A 
ATOM      9  C   UNL     1       8.913  11.271  18.138  0.00  0.00    +0.000 A 
ATOM     10  C   UNL     1       9.059  12.637  17.841  0.00  0.00    +0.000 A 
ATOM     11  C   UNL     1       9.820  13.426  18.710  0.00  0.00    +0.000 A 
ATOM     12 CL   UNL     1      10.014  15.103  18.366  0.00  0.00    +0.000 Cl
ATOM     13  C   UNL     1      10.424  12.880  19.846  0.00  0.00    +0.000 A 
ATOM     14  C   UNL     1      10.281  11.521  20.158  0.00  0.00    +0.000 A 
ATOM     15  C   UNL     1       9.517  10.756  19.276  0.00  0.00    +0.000 A 
ATOM     16  O   UNL     1       9.257   9.421  19.390  0.00  0.00    +0.000 OA
ENDBRANCH   4   7
BRANCH   1  20
ATOM     17  C   UNL     1       5.853   3.992  13.848  0.00  0.00    +0.000 A 
ATOM     18  C   UNL     1       4.938   3.806  14.864  0.00  0.00    +0.000 A 
ATOM     19  C   UNL     1       5.305   4.492  16.054  0.00  0.00    +0.000 A 
ATOM     20  C   UNL     1       6.488   5.196  15.928  0.00  0.00    +0.000 A 
ATOM     21  S   UNL     1       7.133   5.019  14.351  0.00  0.00    +0.000 S 
BRANCH  17  23
ATOM     22  O   UNL     1       4.777   3.416  11.807  0.00  0.00    +0.000 OA
ATOM     23  C   UNL     1       5.776   3.418  12.515  0.00  0.00    +0.000 C 
BRANCH  23  24
ATOM     24  O   UNL     1       6.939   2.851  12.106  0.00  0.00    +0.000 OA
ATOM     25  H   UNL     1       6.953   2.729  11.138  0.00  0.00    +0.000 HD
ENDBRANCH  23  24
ENDBRANCH  17  23
ENDBRANCH   1  20
TORSDOF 4
ENDMDL
MODEL 2
REMARK VINA RESULT:      -7.7      6.890      7.476
REMARK  Name = 
REMARK  4 active torsions:
REMARK  status: ('A' for Active; 'I' for Inactive)
REMARK    1  A    between atoms: C_2  and  O_3
REMARK    2  A    between atoms: C_2  and  C_4
REMARK    3  A    between atoms: C_7  and  C_8
REMARK    4  A    between atoms: C_11  and  C_12
REMARK                            x       y       z     vdW  Elec       q    Type
REMARK                         _______ _______ _______ _____ _____    ______ ____
ROOT
ATOM      1  C   UNL     1       3.567   5.669  19.318  0.00  0.00    +0.000 A 
ATOM      2  C   UNL     1       2.794   4.821  20.092  0.00  0.00    +0.000 A 
ATOM      3  C   UNL     1       1.818   5.593  20.753  0.00  0.00    +0.000 A 
ATOM      4  C   UNL     1       1.997   6.908  20.375  0.00  0.00    +0.000 A 
ATOM      5  N   UNL     1       3.060   6.942  19.500  0.00  0.00    +0.000 N 
ATOM      6  H   UNL     1       3.412   7.781  19.059  0.00  0.00    +0.000 HD
ENDROOT
BRANCH   4   7
ATOM      7  C   UNL     1       1.249   8.059  20.779  0.00  0.00    +0.000 A 
ATOM      8  C   UNL     1       0.981   9.189  20.022  0.00  0.00    +0.000 A 
ATOM      9  C   UNL     1       0.231  10.079  20.825  0.00  0.00    +0.000 A 
ATOM     10  C   UNL     1      -0.326  11.356  20.645  0.00  0.00    +0.000 A 
ATOM     11  C   UNL     1      -1.011  11.937  21.718  0.00  0.00    +0.000 A 
ATOM     12 CL   UNL     1      -1.701  13.503  21.522  0.00  0.00    +0.000 Cl
ATOM     13  C   UNL     1      -1.144  11.272  22.940  0.00  0.00    +0.000 A 
ATOM     14  C   UNL     1      -0.599   9.994  23.130  0.00  0.00    +0.000 A 
ATOM     15  C   UNL     1       0.078   9.438  22.046  0.00  0.00    +0.000 A 
ATOM     16  O   UNL     1       0.684   8.214  22.020  0.00  0.00    +0.000 OA
ENDBRANCH   4   7
BRANCH   1  20
ATOM     17  C   UNL     1       6.263   4.837  16.619  0.00  0.00    +0.000 A 
ATOM     18  C   UNL     1       6.861   4.733  17.859  0.00  0.00    +0.000 A 
ATOM     19  C   UNL     1       5.958   5.016  18.919  0.00  0.00    +0.000 A 
ATOM     20  C   UNL     1       4.684   5.323  18.477  0.00  0.00    +0.000 A 
ATOM     21  S   UNL     1       4.603   5.253  16.768  0.00  0.00    +0.000 S 
BRANCH  17  23
ATOM     22  O   UNL     1       7.770   5.354  14.854  0.00  0.00    +0.000 OA
ATOM     23  C   UNL     1       6.913   4.625  15.338  0.00  0.00    +0.000 C 
BRANCH  23  24
ATOM     24  O   UNL     1       6.471   3.520  14.686  0.00  0.00    +0.000 OA
ATOM     25  H   UNL     1       6.110   3.745  13.808  0.00  0.00    +0.000 HD
ENDBRANCH  23  24
ENDBRANCH  17  23
ENDBRANCH   1  20
TORSDOF 4
ENDMDL
MODEL 3
REMARK VINA RESULT:      -7.7      7.015      7.668
REMARK  Name = 
REMARK  4 active torsions:
REMARK  status: ('A' for Active; 'I' for Inactive)
REMARK    1  A    between atoms: C_2  and  O_3
REMARK    2  A    between atoms: C_2  and  C_4
REMARK    3  A    between atoms: C_7  and  C_8
REMARK    4  A    between atoms: C_11  and  C_12
REMARK                            x       y       z     vdW  Elec       q    Type
REMARK                         _______ _______ _______ _____ _____    ______ ____
ROOT
ATOM      1  C   UNL     1       3.477   5.743  19.379  0.00  0.00    +0.000 A 
ATOM      2  C   UNL     1       2.687   4.917  20.161  0.00  0.00    +0.000 A 
ATOM      3  C   UNL     1       1.714   5.712  20.798  0.00  0.00    +0.000 A 
ATOM      4  C   UNL     1       1.911   7.018  20.399  0.00  0.00    +0.000 A 
ATOM      5  N   UNL     1       2.983   7.024  19.534  0.00  0.00    +0.000 N 
ATOM      6  H   UNL     1       3.349   7.852  19.082  0.00  0.00    +0.000 HD
ENDROOT
BRANCH   4   7
ATOM      7  C   UNL     1       1.172   8.185  20.775  0.00  0.00    +0.000 A 
ATOM      8  C   UNL     1       0.677   8.491  22.032  0.00  0.00    +0.000 A 
ATOM      9  C   UNL     1      -0.004   9.727  21.939  0.00  0.00    +0.000 A 
ATOM     10  C   UNL     1      -0.708  10.548  22.836  0.00  0.00    +0.000 A 
ATOM     11  C   UNL     1      -1.273  11.731  22.347  0.00  0.00    +0.000 A 
ATOM     12 CL   UNL     1      -2.142  12.753  23.427  0.00  0.00    +0.000 Cl
ATOM     13  C   UNL     1      -1.146  12.095  21.003  0.00  0.00    +0.000 A 
ATOM     14  C   UNL     1      -0.441  11.288  20.099  0.00  0.00    +0.000 A 
ATOM     15  C   UNL     1       0.113  10.115  20.612  0.00  0.00    +0.000 A 
ATOM     16  O   UNL     1       0.831   9.192  19.907  0.00  0.00    +0.000 OA
ENDBRANCH   4   7
BRANCH   1  20
ATOM     17  C   UNL     1       6.188   4.831  16.722  0.00  0.00    +0.000 A 
ATOM     18  C   UNL     1       6.774   4.747  17.969  0.00  0.00    +0.000 A 
ATOM     19  C   UNL     1       5.865   5.059  19.016  0.00  0.00    +0.000 A 
ATOM     20  C   UNL     1       4.598   5.369  18.556  0.00  0.00    +0.000 A 
ATOM     21  S   UNL     1       4.532   5.266  16.848  0.00  0.00    +0.000 S 
BRANCH  17  23
ATOM     22  O   UNL     1       7.725   5.291  14.967  0.00  0.00    +0.000 OA
ATOM     23  C   UNL     1       6.848   4.587  15.451  0.00  0.00    +0.000 C 
BRANCH  23  24
ATOM     24  O   UNL     1       6.390   3.482  14.811  0.00  0.00    +0.000 OA
ATOM     25  H   UNL     1       6.334   3.627  13.848  0.00  0.00    +0.000 HD
ENDBRANCH  23  24
ENDBRANCH  17  23
ENDBRANCH   1  20
TORSDOF 4
ENDMDL
MODEL 4
REMARK VINA RESULT:      -7.7      7.539      8.156
REMARK  Name = 
REMARK  4 active torsions:
REMARK  status: ('A' for Active; 'I' for Inactive)
REMARK    1  A    between atoms: C_2  and  O_3
REMARK    2  A    between atoms: C_2  and  C_4
REMARK    3  A    between atoms: C_7  and  C_8
REMARK    4  A    between atoms: C_11  and  C_12
REMARK                            x       y       z     vdW  Elec       q    Type
REMARK                         _______ _______ _______ _____ _____    ______ ____
ROOT
ATOM      1  C   UNL     1       3.072   6.250  19.355  0.00  0.00    +0.000 A 
ATOM      2  C   UNL     1       2.403   5.398  20.216  0.00  0.00    +0.000 A 
ATOM      3  C   UNL     1       1.438   6.149  20.917  0.00  0.00    +0.000 A 
ATOM      4  C   UNL     1       1.520   7.454  20.477  0.00  0.00    +0.000 A 
ATOM      5  N   UNL     1       2.514   7.503  19.525  0.00  0.00    +0.000 N 
ATOM      6  H   UNL     1       2.789   8.339  19.027  0.00  0.00    +0.000 HD
ENDROOT
BRANCH   4   7
ATOM      7  C   UNL     1       0.744   8.583  20.890  0.00  0.00    +0.000 A 
ATOM      8  C   UNL     1       0.318   8.880  22.175  0.00  0.00    +0.000 A 
ATOM      9  C   UNL     1      -0.436  10.074  22.115  0.00  0.00    +0.000 A 
ATOM     10  C   UNL     1      -1.123  10.868  23.049  0.00  0.00    +0.000 A 
ATOM     11  C   UNL     1      -1.786  12.010  22.587  0.00  0.00    +0.000 A 
ATOM     12 CL   UNL     1      -2.637  12.997  23.714  0.00  0.00    +0.000 Cl
ATOM     13  C   UNL     1      -1.772  12.361  21.235  0.00  0.00    +0.000 A 
ATOM     14  C   UNL     1      -1.085  11.582  20.293  0.00  0.00    +0.000 A 
ATOM     15  C   UNL     1      -0.432  10.449  20.779  0.00  0.00    +0.000 A 
ATOM     16  O   UNL     1       0.287   9.557  20.036  0.00  0.00    +0.000 OA
ENDBRANCH   4   7
BRANCH   1  20
ATOM     17  C   UNL     1       6.220   5.141  17.329  0.00  0.00    +0.000 A 
ATOM     18  C   UNL     1       5.324   5.703  16.442  0.00  0.00    +0.000 A 
ATOM     19  C   UNL     1       4.136   6.147  17.083  0.00  0.00    +0.000 A 
ATOM     20  C   UNL     1       4.143   5.924  18.448  0.00  0.00    +0.000 A 
ATOM     21  S   UNL     1       5.609   5.183  18.933  0.00  0.00    +0.000 S 
BRANCH  17  23
ATOM     22  O   UNL     1       8.308   4.101  17.794  0.00  0.00    +0.000 OA
ATOM     23  C   UNL     1       7.518   4.581  16.991  0.00  0.00    +0.000 C 
BRANCH  23  24
ATOM     24  O   UNL     1       7.804   4.647  15.666  0.00  0.00    +0.000 OA
ATOM     25  H   UNL     1       7.875   5.572  15.363  0.00  0.00    +0.000 HD
ENDBRANCH  23  24
ENDBRANCH  17  23
ENDBRANCH   1  20
TORSDOF 4
ENDMDL
MODEL 5
REMARK VINA RESULT:      -7.6      8.067      8.564
REMARK  Name = 
REMARK  4 active torsions:
REMARK  status: ('A' for Active; 'I' for Inactive)
REMARK    1  A    between atoms: C_2  and  O_3
REMARK    2  A    between atoms: C_2  and  C_4
REMARK    3  A    between atoms: C_7  and  C_8
REMARK    4  A    between atoms: C_11  and  C_12
REMARK                            x       y       z     vdW  Elec       q    Type
REMARK                         _______ _______ _______ _____ _____    ______ ____
ROOT
ATOM      1  C   UNL     1       2.830   7.084  18.785  0.00  0.00    +0.000 A 
ATOM      2  C   UNL     1       2.874   7.964  17.718  0.00  0.00    +0.000 A 
ATOM      3  C   UNL     1       2.038   9.060  18.016  0.00  0.00    +0.000 A 
ATOM      4  C   UNL     1       1.493   8.844  19.265  0.00  0.00    +0.000 A 
ATOM      5  N   UNL     1       1.985   7.642  19.724  0.00  0.00    +0.000 N 
ATOM      6  H   UNL     1       1.754   7.235  20.621  0.00  0.00    +0.000 HD
ENDROOT
BRANCH   4   7
ATOM      7  C   UNL     1       0.588   9.677  19.997  0.00  0.00    +0.000 A 
ATOM      8  C   UNL     1      -0.218  10.683  19.489  0.00  0.00    +0.000 A 
ATOM      9  C   UNL     1      -0.928  11.255  20.570  0.00  0.00    +0.000 A 
ATOM     10  C   UNL     1      -1.870  12.289  20.709  0.00  0.00    +0.000 A 
ATOM     11  C   UNL     1      -2.348  12.580  21.991  0.00  0.00    +0.000 A 
ATOM     12 CL   UNL     1      -3.501  13.844  22.187  0.00  0.00    +0.000 Cl
ATOM     13  C   UNL     1      -1.907  11.868  23.110  0.00  0.00    +0.000 A 
ATOM     14  C   UNL     1      -0.973  10.830  22.984  0.00  0.00    +0.000 A 
ATOM     15  C   UNL     1      -0.512  10.559  21.696  0.00  0.00    +0.000 A 
ATOM     16  O   UNL     1       0.396   9.599  21.354  0.00  0.00    +0.000 OA
ENDBRANCH   4   7
BRANCH   1  20
ATOM     17  C   UNL     1       4.205   3.446  19.131  0.00  0.00    +0.000 A 
ATOM     18  C   UNL     1       5.287   4.301  19.056  0.00  0.00    +0.000 A 
ATOM     19  C   UNL     1       4.893   5.660  18.930  0.00  0.00    +0.000 A 
ATOM     20  C   UNL     1       3.520   5.826  18.919  0.00  0.00    +0.000 A 
ATOM     21  S   UNL     1       2.726   4.317  19.072  0.00  0.00    +0.000 S 
BRANCH  17  23
ATOM     22  O   UNL     1       3.592   1.210  18.603  0.00  0.00    +0.000 OA
ATOM     23  C   UNL     1       4.268   2.000  19.251  0.00  0.00    +0.000 C 
BRANCH  23  24
ATOM     24  O   UNL     1       5.159   1.575  20.182  0.00  0.00    +0.000 OA
ATOM     25  H   UNL     1       6.077   1.743  19.898  0.00  0.00    +0.000 HD
ENDBRANCH  23  24
ENDBRANCH  17  23
ENDBRANCH   1  20
TORSDOF 4
ENDMDL
MODEL 6
REMARK VINA RESULT:      -7.5      7.468      7.973
REMARK  Name = 
REMARK  4 active torsions:
REMARK  status: ('A' for Active; 'I' for Inactive)
REMARK    1  A    between atoms: C_2  and  O_3
REMARK    2  A    between atoms: C_2  and  C_4
REMARK    3  A    between atoms: C_7  and  C_8
REMARK    4  A    between atoms: C_11  and  C_12
REMARK                            x       y       z     vdW  Elec       q    Type
REMARK                         _______ _______ _______ _____ _____    ______ ____
ROOT
ATOM      1  C   UNL     1       3.140   6.405  19.190  0.00  0.00    +0.000 A 
ATOM      2  C   UNL     1       2.527   5.529  20.068  0.00  0.00    +0.000 A 
ATOM      3  C   UNL     1       1.549   6.242  20.791  0.00  0.00    +0.000 A 
ATOM      4  C   UNL     1       1.567   7.548  20.346  0.00  0.00    +0.000 A 
ATOM      5  N   UNL     1       2.536   7.635  19.371  0.00  0.00    +0.000 N 
ATOM      6  H   UNL     1       2.765   8.480  18.865  0.00  0.00    +0.000 HD
ENDROOT
BRANCH   4   7
ATOM      7  C   UNL     1       0.756   8.646  20.775  0.00  0.00    +0.000 A 
ATOM      8  C   UNL     1       0.308   9.706  20.004  0.00  0.00    +0.000 A 
ATOM      9  C   UNL     1      -0.441  10.564  20.841  0.00  0.00    +0.000 A 
ATOM     10  C   UNL     1      -1.133  11.775  20.666  0.00  0.00    +0.000 A 
ATOM     11  C   UNL     1      -1.762  12.344  21.778  0.00  0.00    +0.000 A 
ATOM     12 CL   UNL     1      -2.614  13.830  21.588  0.00  0.00    +0.000 Cl
ATOM     13  C   UNL     1      -1.710  11.734  23.034  0.00  0.00    +0.000 A 
ATOM     14  C   UNL     1      -1.030  10.522  23.221  0.00  0.00    +0.000 A 
ATOM     15  C   UNL     1      -0.412   9.975  22.097  0.00  0.00    +0.000 A 
ATOM     16  O   UNL     1       0.302   8.811  22.060  0.00  0.00    +0.000 OA
ENDBRANCH   4   7
BRANCH   1  20
ATOM     17  C   UNL     1       6.208   5.293  17.046  0.00  0.00    +0.000 A 
ATOM     18  C   UNL     1       5.441   6.143  16.276  0.00  0.00    +0.000 A 
ATOM     19  C   UNL     1       4.292   6.612  16.969  0.00  0.00    +0.000 A 
ATOM     20  C   UNL     1       4.202   6.121  18.258  0.00  0.00    +0.000 A 
ATOM     21  S   UNL     1       5.529   5.097  18.611  0.00  0.00    +0.000 S 
BRANCH  17  23
ATOM     22  O   UNL     1       7.838   4.566  15.474  0.00  0.00    +0.000 OA
ATOM     23  C   UNL     1       7.434   4.635  16.628  0.00  0.00    +0.000 C 
BRANCH  23  24
ATOM     24  O   UNL     1       8.119   4.070  17.655  0.00  0.00    +0.000 OA
ATOM     25  H   UNL     1       8.617   4.739  18.161  0.00  0.00    +0.000 HD
ENDBRANCH  23  24
ENDBRANCH  17  23
ENDBRANCH   1  20
TORSDOF 4
ENDMDL
MODEL 7
REMARK VINA RESULT:      -7.5      8.158      8.764
REMARK  Name = 
REMARK  4 active torsions:
REMARK  status: ('A' for Active; 'I' for Inactive)
REMARK    1  A    between atoms: C_2  and  O_3
REMARK    2  A    between atoms: C_2  and  C_4
REMARK    3  A    between atoms: C_7  and  C_8
REMARK    4  A    between atoms: C_11  and  C_12
REMARK                            x       y       z     vdW  Elec       q    Type
REMARK                         _______ _______ _______ _____ _____    ______ ____
ROOT
ATOM      1  C   UNL     1       2.844   7.105  18.770  0.00  0.00    +0.000 A 
ATOM      2  C   UNL     1       2.810   7.918  17.651  0.00  0.00    +0.000 A 
ATOM      3  C   UNL     1       1.958   9.007  17.923  0.00  0.00    +0.000 A 
ATOM      4  C   UNL     1       1.480   8.855  19.208  0.00  0.00    +0.000 A 
ATOM      5  N   UNL     1       2.029   7.698  19.715  0.00  0.00    +0.000 N 
ATOM      6  H   UNL     1       1.853   7.341  20.645  0.00  0.00    +0.000 HD
ENDROOT
BRANCH   4   7
ATOM      7  C   UNL     1       0.587   9.708  19.932  0.00  0.00    +0.000 A 
ATOM      8  C   UNL     1       0.366   9.718  21.300  0.00  0.00    +0.000 A 
ATOM      9  C   UNL     1      -0.609  10.704  21.573  0.00  0.00    +0.000 A 
ATOM     10  C   UNL     1      -1.248  11.181  22.730  0.00  0.00    +0.000 A 
ATOM     11  C   UNL     1      -2.203  12.194  22.588  0.00  0.00    +0.000 A 
ATOM     12 CL   UNL     1      -3.002  12.794  23.992  0.00  0.00    +0.000 Cl
ATOM     13  C   UNL     1      -2.521  12.723  21.335  0.00  0.00    +0.000 A 
ATOM     14  C   UNL     1      -1.886  12.261  20.173  0.00  0.00    +0.000 A 
ATOM     15  C   UNL     1      -0.938  11.252  20.341  0.00  0.00    +0.000 A 
ATOM     16  O   UNL     1      -0.211  10.660  19.348  0.00  0.00    +0.000 OA
ENDBRANCH   4   7
BRANCH   1  20
ATOM     17  C   UNL     1       4.369   3.577  19.460  0.00  0.00    +0.000 A 
ATOM     18  C   UNL     1       5.325   4.330  18.808  0.00  0.00    +0.000 A 
ATOM     19  C   UNL     1       4.869   5.643  18.511  0.00  0.00    +0.000 A 
ATOM     20  C   UNL     1       3.577   5.877  18.946  0.00  0.00    +0.000 A 
ATOM     21  S   UNL     1       2.938   4.490  19.722  0.00  0.00    +0.000 S 
BRANCH  17  23
ATOM     22  O   UNL     1       4.916   1.842  20.991  0.00  0.00    +0.000 OA
ATOM     23  C   UNL     1       4.517   2.197  19.889  0.00  0.00    +0.000 C 
BRANCH  23  24
ATOM     24  O   UNL     1       4.177   1.297  18.933  0.00  0.00    +0.000 OA
ATOM     25  H   UNL     1       3.954   0.431  19.323  0.00  0.00    +0.000 HD
ENDBRANCH  23  24
ENDBRANCH  17  23
ENDBRANCH   1  20
TORSDOF 4
ENDMDL
MODEL 8
REMARK VINA RESULT:      -7.5      6.793      7.361
REMARK  Name = 
REMARK  4 active torsions:
REMARK  status: ('A' for Active; 'I' for Inactive)
REMARK    1  A    between atoms: C_2  and  O_3
REMARK    2  A    between atoms: C_2  and  C_4
REMARK    3  A    between atoms: C_7  and  C_8
REMARK    4  A    between atoms: C_11  and  C_12
REMARK                            x       y       z     vdW  Elec       q    Type
REMARK                         _______ _______ _______ _____ _____    ______ ____
ROOT
ATOM      1  C   UNL     1       3.011   5.546  18.952  0.00  0.00    +0.000 A 
ATOM      2  C   UNL     1       2.491   4.863  20.038  0.00  0.00    +0.000 A 
ATOM      3  C   UNL     1       1.760   5.777  20.824  0.00  0.00    +0.000 A 
ATOM      4  C   UNL     1       1.833   7.011  20.211  0.00  0.00    +0.000 A 
ATOM      5  N   UNL     1       2.593   6.857  19.072  0.00  0.00    +0.000 N 
ATOM      6  H   UNL     1       2.809   7.603  18.423  0.00  0.00    +0.000 HD
ENDROOT
BRANCH   4   7
ATOM      7  C   UNL     1       1.248   8.248  20.628  0.00  0.00    +0.000 A 
ATOM      8  C   UNL     1       0.621   8.511  21.836  0.00  0.00    +0.000 A 
ATOM      9  C   UNL     1       0.177   9.853  21.809  0.00  0.00    +0.000 A 
ATOM     10  C   UNL     1      -0.513  10.693  22.700  0.00  0.00    +0.000 A 
ATOM     11  C   UNL     1      -0.791  12.002  22.293  0.00  0.00    +0.000 A 
ATOM     12 CL   UNL     1      -1.637  13.050  23.368  0.00  0.00    +0.000 Cl
ATOM     13  C   UNL     1      -0.400  12.472  21.036  0.00  0.00    +0.000 A 
ATOM     14  C   UNL     1       0.294  11.646  20.141  0.00  0.00    +0.000 A 
ATOM     15  C   UNL     1       0.560  10.346  20.570  0.00  0.00    +0.000 A 
ATOM     16  O   UNL     1       1.216   9.383  19.857  0.00  0.00    +0.000 OA
ENDBRANCH   4   7
BRANCH   1  20
ATOM     17  C   UNL     1       5.496   4.594  16.096  0.00  0.00    +0.000 A 
ATOM     18  C   UNL     1       4.694   3.497  16.340  0.00  0.00    +0.000 A 
ATOM     19  C   UNL     1       3.745   3.741  17.369  0.00  0.00    +0.000 A 
ATOM     20  C   UNL     1       3.829   5.019  17.890  0.00  0.00    +0.000 A 
ATOM     21  S   UNL     1       5.063   5.912  17.107  0.00  0.00    +0.000 S 
BRANCH  17  23
ATOM     22  O   UNL     1       7.458   5.507  15.110  0.00  0.00    +0.000 OA
ATOM     23  C   UNL     1       6.569   4.665  15.118  0.00  0.00    +0.000 C 
BRANCH  23  24
ATOM     24  O   UNL     1       6.499   3.696  14.171  0.00  0.00    +0.000 OA
ATOM     25  H   UNL     1       6.592   2.808  14.563  0.00  0.00    +0.000 HD
ENDBRANCH  23  24
ENDBRANCH  17  23
ENDBRANCH   1  20
TORSDOF 4
ENDMDL
MODEL 9
REMARK VINA RESULT:      -7.5      8.092      8.540
REMARK  Name = 
REMARK  4 active torsions:
REMARK  status: ('A' for Active; 'I' for Inactive)
REMARK    1  A    between atoms: C_2  and  O_3
REMARK    2  A    between atoms: C_2  and  C_4
REMARK    3  A    between atoms: C_7  and  C_8
REMARK    4  A    between atoms: C_11  and  C_12
REMARK                            x       y       z     vdW  Elec       q    Type
REMARK                         _______ _______ _______ _____ _____    ______ ____
ROOT
ATOM      1  C   UNL     1       2.220   6.730  19.679  0.00  0.00    +0.000 A 
ATOM      2  C   UNL     1       2.360   7.423  18.490  0.00  0.00    +0.000 A 
ATOM      3  C   UNL     1       1.871   8.731  18.683  0.00  0.00    +0.000 A 
ATOM      4  C   UNL     1       1.440   8.830  19.990  0.00  0.00    +0.000 A 
ATOM      5  N   UNL     1       1.661   7.608  20.587  0.00  0.00    +0.000 N 
ATOM      6  H   UNL     1       1.441   7.395  21.551  0.00  0.00    +0.000 HD
ENDROOT
BRANCH   4   7
ATOM      7  C   UNL     1       0.868   9.961  20.655  0.00  0.00    +0.000 A 
ATOM      8  C   UNL     1      -0.074   9.944  21.671  0.00  0.00    +0.000 A 
ATOM      9  C   UNL     1      -0.366  11.285  22.011  0.00  0.00    +0.000 A 
ATOM     10  C   UNL     1      -1.218  11.917  22.933  0.00  0.00    +0.000 A 
ATOM     11  C   UNL     1      -1.239  13.316  22.963  0.00  0.00    +0.000 A 
ATOM     12 CL   UNL     1      -2.277  14.113  24.083  0.00  0.00    +0.000 Cl
ATOM     13  C   UNL     1      -0.438  14.073  22.104  0.00  0.00    +0.000 A 
ATOM     14  C   UNL     1       0.421  13.455  21.185  0.00  0.00    +0.000 A 
ATOM     15  C   UNL     1       0.424  12.060  21.174  0.00  0.00    +0.000 A 
ATOM     16  O   UNL     1       1.178  11.265  20.360  0.00  0.00    +0.000 OA
ENDBRANCH   4   7
BRANCH   1  20
ATOM     17  C   UNL     1       3.614   3.104  20.070  0.00  0.00    +0.000 A 
ATOM     18  C   UNL     1       2.536   3.235  20.921  0.00  0.00    +0.000 A 
ATOM     19  C   UNL     1       1.948   4.527  20.854  0.00  0.00    +0.000 A 
ATOM     20  C   UNL     1       2.580   5.361  19.949  0.00  0.00    +0.000 A 
ATOM     21  S   UNL     1       3.880   4.550  19.184  0.00  0.00    +0.000 S 
BRANCH  17  23
ATOM     22  O   UNL     1       5.247   1.507  20.734  0.00  0.00    +0.000 OA
ATOM     23  C   UNL     1       4.437   1.916  19.912  0.00  0.00    +0.000 C 
BRANCH  23  24
ATOM     24  O   UNL     1       4.239   1.278  18.731  0.00  0.00    +0.000 OA
ATOM     25  H   UNL     1       3.641   1.784  18.149  0.00  0.00    +0.000 HD
ENDBRANCH  23  24
ENDBRANCH  17  23
ENDBRANCH   1  20
TORSDOF 4
ENDMDL
