MODEL 1
REMARK VINA RESULT:      -7.2      0.000      0.000
REMARK  Name = 
REMARK  3 active torsions:
REMARK  status: ('A' for Active; 'I' for Inactive)
REMARK    1  A    between atoms: C_2  and  C_3
REMARK    2  A    between atoms: C_15  and  O_16
REMARK    3  A    between atoms: O_16  and  C_17
REMARK                            x       y       z     vdW  Elec       q    Type
REMARK                         _______ _______ _______ _____ _____    ______ ____
ROOT
ATOM      1  O   UNL     1       4.785   2.906  17.192  0.00  0.00    +0.000 OA
ATOM      2  C   UNL     1       4.124   3.930  17.402  0.00  0.00    +0.000 C 
ATOM      3  N   UNL     1       4.420   5.086  16.697  0.00  0.00    +0.000 N 
ATOM      4  C   UNL     1       4.315   6.370  17.350  0.00  0.00    +0.000 C 
ATOM      5  C   UNL     1       5.474   6.406  18.346  0.00  0.00    +0.000 C 
ATOM      6  C   UNL     1       6.780   6.429  17.533  0.00  0.00    +0.000 C 
ATOM      7  C   UNL     1       6.890   5.183  16.640  0.00  0.00    +0.000 C 
ATOM      8  C   UNL     1       5.599   5.022  15.810  0.00  0.00    +0.000 C 
ATOM      9  C   UNL     1       7.971   6.676  18.462  0.00  0.00    +0.000 C 
ATOM     10  C   UNL     1       8.365   8.119  18.155  0.00  0.00    +0.000 C 
ATOM     11  C   UNL     1       7.136   8.674  17.461  0.00  0.00    +0.000 C 
ATOM     12  O   UNL     1       6.709   7.579  16.665  0.00  0.00    +0.000 OA
ENDROOT
BRANCH   2  13
ATOM     13  C   UNL     1       3.136   3.889  18.518  0.00  0.00    +0.000 C 
ATOM     14  C   UNL     1       3.547   3.571  19.757  0.00  0.00    +0.000 C 
ATOM     15  C   UNL     1       2.513   3.851  20.794  0.00  0.00    +0.000 C 
ATOM     16  C   UNL     1       1.514   4.706  20.031  0.00  0.00    +0.000 C 
ATOM     17  C   UNL     1       1.718   4.355  18.565  0.00  0.00    +0.000 C 
ENDBRANCH   2  13
BRANCH  10  18
ATOM     18  O   UNL     1       8.685   8.821  19.343  0.00  0.00    +0.000 OA
BRANCH  18  19
ATOM     19  C   UNL     1       9.215  10.065  19.150  0.00  0.00    +0.000 A 
ATOM     20  C   UNL     1       9.570  10.623  17.924  0.00  0.00    +0.000 A 
ATOM     21  C   UNL     1      10.124  11.894  17.874  0.00  0.00    +0.000 A 
ATOM     22  C   UNL     1      10.306  12.572  19.065  0.00  0.00    +0.000 A 
ATOM     23  N   UNL     1       9.955  12.078  20.271  0.00  0.00    +0.000 NA
ATOM     24  C   UNL     1       9.410  10.840  20.284  0.00  0.00    +0.000 A 
ENDBRANCH  18  19
ENDBRANCH  10  18
TORSDOF 3
ENDMDL
MODEL 2
REMARK VINA RESULT:      -7.0      6.026      8.263
REMARK  Name = 
REMARK  3 active torsions:
REMARK  status: ('A' for Active; 'I' for Inactive)
REMARK    1  A    between atoms: C_2  and  C_3
REMARK    2  A    between atoms: C_15  and  O_16
REMARK    3  A    between atoms: O_16  and  C_17
REMARK                            x       y       z     vdW  Elec       q    Type
REMARK                         _______ _______ _______ _____ _____    ______ ____
ROOT
ATOM      1  O   UNL     1      -0.641  13.113  17.815  0.00  0.00    +0.000 OA
ATOM      2  C   UNL     1      -1.268  12.220  18.397  0.00  0.00    +0.000 C 
ATOM      3  N   UNL     1      -0.680  11.566  19.469  0.00  0.00    +0.000 N 
ATOM      4  C   UNL     1      -0.917  10.155  19.662  0.00  0.00    +0.000 C 
ATOM      5  C   UNL     1      -0.156   9.465  18.530  0.00  0.00    +0.000 C 
ATOM      6  C   UNL     1       1.345   9.700  18.770  0.00  0.00    +0.000 C 
ATOM      7  C   UNL     1       1.668  11.202  18.785  0.00  0.00    +0.000 C 
ATOM      8  C   UNL     1       0.721  11.929  19.763  0.00  0.00    +0.000 C 
ATOM      9  C   UNL     1       2.170   8.862  17.791  0.00  0.00    +0.000 C 
ATOM     10  C   UNL     1       2.734   7.747  18.669  0.00  0.00    +0.000 C 
ATOM     11  C   UNL     1       1.845   7.788  19.897  0.00  0.00    +0.000 C 
ATOM     12  O   UNL     1       1.641   9.181  20.084  0.00  0.00    +0.000 OA
ENDROOT
BRANCH   2  13
ATOM     13  C   UNL     1      -2.572  11.805  17.807  0.00  0.00    +0.000 C 
ATOM     14  C   UNL     1      -2.600  11.247  16.585  0.00  0.00    +0.000 C 
ATOM     15  C   UNL     1      -3.921  10.635  16.264  0.00  0.00    +0.000 C 
ATOM     16  C   UNL     1      -4.606  10.614  17.621  0.00  0.00    +0.000 C 
ATOM     17  C   UNL     1      -3.924  11.703  18.435  0.00  0.00    +0.000 C 
ENDBRANCH   2  13
BRANCH  10  18
ATOM     18  O   UNL     1       2.682   6.499  18.000  0.00  0.00    +0.000 OA
BRANCH  18  19
ATOM     19  C   UNL     1       3.892   5.892  17.824  0.00  0.00    +0.000 A 
ATOM     20  C   UNL     1       4.718   6.020  16.709  0.00  0.00    +0.000 A 
ATOM     21  C   UNL     1       5.917   5.323  16.649  0.00  0.00    +0.000 A 
ATOM     22  C   UNL     1       6.253   4.513  17.718  0.00  0.00    +0.000 A 
ATOM     23  N   UNL     1       5.493   4.377  18.825  0.00  0.00    +0.000 NA
ATOM     24  C   UNL     1       4.335   5.077  18.855  0.00  0.00    +0.000 A 
ENDBRANCH  18  19
ENDBRANCH  10  18
TORSDOF 3
ENDMDL
MODEL 3
REMARK VINA RESULT:      -7.0      6.106      8.679
REMARK  Name = 
REMARK  3 active torsions:
REMARK  status: ('A' for Active; 'I' for Inactive)
REMARK    1  A    between atoms: C_2  and  C_3
REMARK    2  A    between atoms: C_15  and  O_16
REMARK    3  A    between atoms: O_16  and  C_17
REMARK                            x       y       z     vdW  Elec       q    Type
REMARK                         _______ _______ _______ _____ _____    ______ ____
ROOT
ATOM      1  O   UNL     1      -0.655  13.172  17.882  0.00  0.00    +0.000 OA
ATOM      2  C   UNL     1      -1.269  12.307  18.516  0.00  0.00    +0.000 C 
ATOM      3  N   UNL     1      -0.631  11.642  19.552  0.00  0.00    +0.000 N 
ATOM      4  C   UNL     1      -0.901  10.241  19.776  0.00  0.00    +0.000 C 
ATOM      5  C   UNL     1      -0.244   9.516  18.602  0.00  0.00    +0.000 C 
ATOM      6  C   UNL     1       1.277   9.701  18.736  0.00  0.00    +0.000 C 
ATOM      7  C   UNL     1       1.650  11.192  18.712  0.00  0.00    +0.000 C 
ATOM      8  C   UNL     1       0.798  11.959  19.745  0.00  0.00    +0.000 C 
ATOM      9  C   UNL     1       2.003   8.827  17.712  0.00  0.00    +0.000 C 
ATOM     10  C   UNL     1       2.589   7.701  18.561  0.00  0.00    +0.000 C 
ATOM     11  C   UNL     1       1.789   7.784  19.847  0.00  0.00    +0.000 C 
ATOM     12  O   UNL     1       1.645   9.184  20.031  0.00  0.00    +0.000 OA
ENDROOT
BRANCH   2  13
ATOM     13  C   UNL     1      -2.624  11.931  18.022  0.00  0.00    +0.000 C 
ATOM     14  C   UNL     1      -2.756  11.372  16.807  0.00  0.00    +0.000 C 
ATOM     15  C   UNL     1      -4.115  10.801  16.583  0.00  0.00    +0.000 C 
ATOM     16  C   UNL     1      -4.703  10.804  17.985  0.00  0.00    +0.000 C 
ATOM     17  C   UNL     1      -3.931  11.873  18.744  0.00  0.00    +0.000 C 
ENDBRANCH   2  13
BRANCH  10  18
ATOM     18  O   UNL     1       2.449   6.450  17.911  0.00  0.00    +0.000 OA
BRANCH  18  19
ATOM     19  C   UNL     1       3.238   5.453  18.408  0.00  0.00    +0.000 A 
ATOM     20  C   UNL     1       4.612   5.529  18.628  0.00  0.00    +0.000 A 
ATOM     21  C   UNL     1       5.298   4.426  19.118  0.00  0.00    +0.000 A 
ATOM     22  C   UNL     1       4.580   3.273  19.373  0.00  0.00    +0.000 A 
ATOM     23  N   UNL     1       3.246   3.164  19.194  0.00  0.00    +0.000 NA
ATOM     24  C   UNL     1       2.606   4.260  18.725  0.00  0.00    +0.000 A 
ENDBRANCH  18  19
ENDBRANCH  10  18
TORSDOF 3
ENDMDL
MODEL 4
REMARK VINA RESULT:      -6.9      6.117      8.481
REMARK  Name = 
REMARK  3 active torsions:
REMARK  status: ('A' for Active; 'I' for Inactive)
REMARK    1  A    between atoms: C_2  and  C_3
REMARK    2  A    between atoms: C_15  and  O_16
REMARK    3  A    between atoms: O_16  and  C_17
REMARK                            x       y       z     vdW  Elec       q    Type
REMARK                         _______ _______ _______ _____ _____    ______ ____
ROOT
ATOM      1  O   UNL     1      -0.805  12.994  17.906  0.00  0.00    +0.000 OA
ATOM      2  C   UNL     1      -1.357  12.134  18.601  0.00  0.00    +0.000 C 
ATOM      3  N   UNL     1      -0.644  11.525  19.622  0.00  0.00    +0.000 N 
ATOM      4  C   UNL     1      -0.859  10.125  19.908  0.00  0.00    +0.000 C 
ATOM      5  C   UNL     1      -0.245   9.378  18.724  0.00  0.00    +0.000 C 
ATOM      6  C   UNL     1       1.275   9.612  18.767  0.00  0.00    +0.000 C 
ATOM      7  C   UNL     1       1.601  11.111  18.672  0.00  0.00    +0.000 C 
ATOM      8  C   UNL     1       0.783  11.889  19.725  0.00  0.00    +0.000 C 
ATOM      9  C   UNL     1       1.971   8.724  17.734  0.00  0.00    +0.000 C 
ATOM     10  C   UNL     1       2.636   7.646  18.587  0.00  0.00    +0.000 C 
ATOM     11  C   UNL     1       1.906   7.750  19.911  0.00  0.00    +0.000 C 
ATOM     12  O   UNL     1       1.729   9.151  20.056  0.00  0.00    +0.000 OA
ENDROOT
BRANCH   2  13
ATOM     13  C   UNL     1      -2.725  11.702  18.195  0.00  0.00    +0.000 C 
ATOM     14  C   UNL     1      -3.785  12.079  18.930  0.00  0.00    +0.000 C 
ATOM     15  C   UNL     1      -5.082  11.813  18.244  0.00  0.00    +0.000 C 
ATOM     16  C   UNL     1      -4.640  11.513  16.821  0.00  0.00    +0.000 C 
ATOM     17  C   UNL     1      -3.195  11.050  16.936  0.00  0.00    +0.000 C 
ENDBRANCH   2  13
BRANCH  10  18
ATOM     18  O   UNL     1       2.500   6.369  17.987  0.00  0.00    +0.000 OA
BRANCH  18  19
ATOM     19  C   UNL     1       3.653   5.849  17.475  0.00  0.00    +0.000 A 
ATOM     20  C   UNL     1       4.696   6.575  16.903  0.00  0.00    +0.000 A 
ATOM     21  C   UNL     1       5.806   5.914  16.397  0.00  0.00    +0.000 A 
ATOM     22  C   UNL     1       5.837   4.534  16.479  0.00  0.00    +0.000 A 
ATOM     23  N   UNL     1       4.859   3.794  17.044  0.00  0.00    +0.000 NA
ATOM     24  C   UNL     1       3.795   4.470  17.536  0.00  0.00    +0.000 A 
ENDBRANCH  18  19
ENDBRANCH  10  18
TORSDOF 3
ENDMDL
MODEL 5
REMARK VINA RESULT:      -6.9      5.914      8.603
REMARK  Name = 
REMARK  3 active torsions:
REMARK  status: ('A' for Active; 'I' for Inactive)
REMARK    1  A    between atoms: C_2  and  C_3
REMARK    2  A    between atoms: C_15  and  O_16
REMARK    3  A    between atoms: O_16  and  C_17
REMARK                            x       y       z     vdW  Elec       q    Type
REMARK                         _______ _______ _______ _____ _____    ______ ____
ROOT
ATOM      1  O   UNL     1      -0.416  13.041  17.924  0.00  0.00    +0.000 OA
ATOM      2  C   UNL     1      -1.062  12.165  18.511  0.00  0.00    +0.000 C 
ATOM      3  N   UNL     1      -0.463  11.454  19.540  0.00  0.00    +0.000 N 
ATOM      4  C   UNL     1      -0.762  10.052  19.709  0.00  0.00    +0.000 C 
ATOM      5  C   UNL     1      -0.087   9.355  18.528  0.00  0.00    +0.000 C 
ATOM      6  C   UNL     1       1.433   9.509  18.708  0.00  0.00    +0.000 C 
ATOM      7  C   UNL     1       1.832  10.993  18.745  0.00  0.00    +0.000 C 
ATOM      8  C   UNL     1       0.966  11.739  19.781  0.00  0.00    +0.000 C 
ATOM      9  C   UNL     1       2.172   8.658  17.674  0.00  0.00    +0.000 C 
ATOM     10  C   UNL     1       2.716   7.493  18.499  0.00  0.00    +0.000 C 
ATOM     11  C   UNL     1       1.884   7.546  19.765  0.00  0.00    +0.000 C 
ATOM     12  O   UNL     1       1.758   8.942  19.994  0.00  0.00    +0.000 OA
ENDROOT
BRANCH   2  13
ATOM     13  C   UNL     1      -2.409  11.830  17.969  0.00  0.00    +0.000 C 
ATOM     14  C   UNL     1      -2.517  11.303  16.737  0.00  0.00    +0.000 C 
ATOM     15  C   UNL     1      -3.880  10.767  16.460  0.00  0.00    +0.000 C 
ATOM     16  C   UNL     1      -4.509  10.749  17.844  0.00  0.00    +0.000 C 
ATOM     17  C   UNL     1      -3.737  11.783  18.651  0.00  0.00    +0.000 C 
ENDBRANCH   2  13
BRANCH  10  18
ATOM     18  O   UNL     1       2.573   6.268  17.802  0.00  0.00    +0.000 OA
BRANCH  18  19
ATOM     19  C   UNL     1       3.146   5.189  18.414  0.00  0.00    +0.000 A 
ATOM     20  C   UNL     1       2.473   4.066  18.890  0.00  0.00    +0.000 A 
ATOM     21  C   UNL     1       3.179   3.048  19.517  0.00  0.00    +0.000 A 
ATOM     22  C   UNL     1       4.548   3.190  19.647  0.00  0.00    +0.000 A 
ATOM     23  N   UNL     1       5.241   4.251  19.181  0.00  0.00    +0.000 NA
ATOM     24  C   UNL     1       4.524   5.221  18.567  0.00  0.00    +0.000 A 
ENDBRANCH  18  19
ENDBRANCH  10  18
TORSDOF 3
ENDMDL
MODEL 6
REMARK VINA RESULT:      -6.8      6.111      8.358
REMARK  Name = 
REMARK  3 active torsions:
REMARK  status: ('A' for Active; 'I' for Inactive)
REMARK    1  A    between atoms: C_2  and  C_3
REMARK    2  A    between atoms: C_15  and  O_16
REMARK    3  A    between atoms: O_16  and  C_17
REMARK                            x       y       z     vdW  Elec       q    Type
REMARK                         _______ _______ _______ _____ _____    ______ ____
ROOT
ATOM      1  O   UNL     1      -0.792  13.008  17.903  0.00  0.00    +0.000 OA
ATOM      2  C   UNL     1      -1.344  12.124  18.568  0.00  0.00    +0.000 C 
ATOM      3  N   UNL     1      -0.641  11.502  19.587  0.00  0.00    +0.000 N 
ATOM      4  C   UNL     1      -0.840  10.094  19.837  0.00  0.00    +0.000 C 
ATOM      5  C   UNL     1      -0.193   9.383  18.648  0.00  0.00    +0.000 C 
ATOM      6  C   UNL     1       1.322   9.637  18.725  0.00  0.00    +0.000 C 
ATOM      7  C   UNL     1       1.627  11.142  18.671  0.00  0.00    +0.000 C 
ATOM      8  C   UNL     1       0.779  11.884  19.725  0.00  0.00    +0.000 C 
ATOM      9  C   UNL     1       2.050   8.783  17.686  0.00  0.00    +0.000 C 
ATOM     10  C   UNL     1       2.715   7.695  18.526  0.00  0.00    +0.000 C 
ATOM     11  C   UNL     1       1.958   7.758  19.839  0.00  0.00    +0.000 C 
ATOM     12  O   UNL     1       1.758   9.153  20.013  0.00  0.00    +0.000 OA
ENDROOT
BRANCH   2  13
ATOM     13  C   UNL     1      -2.697  11.683  18.127  0.00  0.00    +0.000 C 
ATOM     14  C   UNL     1      -3.773  11.998  18.867  0.00  0.00    +0.000 C 
ATOM     15  C   UNL     1      -5.057  11.738  18.155  0.00  0.00    +0.000 C 
ATOM     16  C   UNL     1      -4.594  11.519  16.724  0.00  0.00    +0.000 C 
ATOM     17  C   UNL     1      -3.140  11.083  16.832  0.00  0.00    +0.000 C 
ENDBRANCH   2  13
BRANCH  10  18
ATOM     18  O   UNL     1       2.608   6.430  17.895  0.00  0.00    +0.000 OA
BRANCH  18  19
ATOM     19  C   UNL     1       3.779   5.937  17.396  0.00  0.00    +0.000 A 
ATOM     20  C   UNL     1       4.085   4.591  17.202  0.00  0.00    +0.000 A 
ATOM     21  C   UNL     1       5.329   4.226  16.708  0.00  0.00    +0.000 A 
ATOM     22  C   UNL     1       6.236   5.229  16.421  0.00  0.00    +0.000 A 
ATOM     23  N   UNL     1       5.973   6.545  16.573  0.00  0.00    +0.000 NA
ATOM     24  C   UNL     1       4.748   6.867  17.049  0.00  0.00    +0.000 A 
ENDBRANCH  18  19
ENDBRANCH  10  18
TORSDOF 3
ENDMDL
MODEL 7
REMARK VINA RESULT:      -6.8      0.792      1.345
REMARK  Name = 
REMARK  3 active torsions:
REMARK  status: ('A' for Active; 'I' for Inactive)
REMARK    1  A    between atoms: C_2  and  C_3
REMARK    2  A    between atoms: C_15  and  O_16
REMARK    3  A    between atoms: O_16  and  C_17
REMARK                            x       y       z     vdW  Elec       q    Type
REMARK                         _______ _______ _______ _____ _____    ______ ____
ROOT
ATOM      1  O   UNL     1       5.047   3.130  17.033  0.00  0.00    +0.000 OA
ATOM      2  C   UNL     1       4.356   4.142  17.193  0.00  0.00    +0.000 C 
ATOM      3  N   UNL     1       4.686   5.305  16.513  0.00  0.00    +0.000 N 
ATOM      4  C   UNL     1       4.511   6.585  17.158  0.00  0.00    +0.000 C 
ATOM      5  C   UNL     1       5.591   6.638  18.238  0.00  0.00    +0.000 C 
ATOM      6  C   UNL     1       6.954   6.683  17.526  0.00  0.00    +0.000 C 
ATOM      7  C   UNL     1       7.151   5.442  16.642  0.00  0.00    +0.000 C 
ATOM      8  C   UNL     1       5.929   5.262  15.717  0.00  0.00    +0.000 C 
ATOM      9  C   UNL     1       8.067   6.948  18.542  0.00  0.00    +0.000 C 
ATOM     10  C   UNL     1       8.460   8.398  18.266  0.00  0.00    +0.000 C 
ATOM     11  C   UNL     1       7.278   8.934  17.483  0.00  0.00    +0.000 C 
ATOM     12  O   UNL     1       6.930   7.834  16.656  0.00  0.00    +0.000 OA
ENDROOT
BRANCH   2  13
ATOM     13  C   UNL     1       3.288   4.083  18.231  0.00  0.00    +0.000 C 
ATOM     14  C   UNL     1       2.011   3.895  17.860  0.00  0.00    +0.000 C 
ATOM     15  C   UNL     1       1.119   3.577  19.012  0.00  0.00    +0.000 C 
ATOM     16  C   UNL     1       2.116   3.272  20.118  0.00  0.00    +0.000 C 
ATOM     17  C   UNL     1       3.395   3.993  19.718  0.00  0.00    +0.000 C 
ENDBRANCH   2  13
BRANCH  10  18
ATOM     18  O   UNL     1       8.678   9.103  19.476  0.00  0.00    +0.000 OA
BRANCH  18  19
ATOM     19  C   UNL     1       9.398  10.255  19.347  0.00  0.00    +0.000 A 
ATOM     20  C   UNL     1       9.872  11.046  20.392  0.00  0.00    +0.000 A 
ATOM     21  C   UNL     1      10.574  12.212  20.117  0.00  0.00    +0.000 A 
ATOM     22  C   UNL     1      10.780  12.551  18.793  0.00  0.00    +0.000 A 
ATOM     23  N   UNL     1      10.358  11.802  17.752  0.00  0.00    +0.000 NA
ATOM     24  C   UNL     1       9.685  10.667  18.054  0.00  0.00    +0.000 A 
ENDBRANCH  18  19
ENDBRANCH  10  18
TORSDOF 3
ENDMDL
MODEL 8
REMARK VINA RESULT:      -6.6      1.112      1.289
REMARK  Name = 
REMARK  3 active torsions:
REMARK  status: ('A' for Active; 'I' for Inactive)
REMARK    1  A    between atoms: C_2  and  C_3
REMARK    2  A    between atoms: C_15  and  O_16
REMARK    3  A    between atoms: O_16  and  C_17
REMARK                            x       y       z     vdW  Elec       q    Type
REMARK                         _______ _______ _______ _____ _____    ______ ____
ROOT
ATOM      1  O   UNL     1       5.478   3.069  19.061  0.00  0.00    +0.000 OA
ATOM      2  C   UNL     1       4.834   3.897  18.407  0.00  0.00    +0.000 C 
ATOM      3  N   UNL     1       5.444   4.548  17.346  0.00  0.00    +0.000 N 
ATOM      4  C   UNL     1       5.132   5.933  17.082  0.00  0.00    +0.000 C 
ATOM      5  C   UNL     1       5.776   6.713  18.228  0.00  0.00    +0.000 C 
ATOM      6  C   UNL     1       7.301   6.567  18.087  0.00  0.00    +0.000 C 
ATOM      7  C   UNL     1       7.718   5.089  18.152  0.00  0.00    +0.000 C 
ATOM      8  C   UNL     1       6.881   4.267  17.150  0.00  0.00    +0.000 C 
ATOM      9  C   UNL     1       8.010   7.492  19.078  0.00  0.00    +0.000 C 
ATOM     10  C   UNL     1       8.556   8.609  18.190  0.00  0.00    +0.000 C 
ATOM     11  C   UNL     1       7.749   8.464  16.915  0.00  0.00    +0.000 C 
ATOM     12  O   UNL     1       7.644   7.055  16.773  0.00  0.00    +0.000 OA
ENDROOT
BRANCH   2  13
ATOM     13  C   UNL     1       3.472   4.249  18.901  0.00  0.00    +0.000 C 
ATOM     14  C   UNL     1       2.414   3.523  18.503  0.00  0.00    +0.000 C 
ATOM     15  C   UNL     1       1.186   3.816  19.297  0.00  0.00    +0.000 C 
ATOM     16  C   UNL     1       1.742   4.604  20.473  0.00  0.00    +0.000 C 
ATOM     17  C   UNL     1       3.054   5.195  19.979  0.00  0.00    +0.000 C 
ENDBRANCH   2  13
BRANCH  10  18
ATOM     18  O   UNL     1       8.385   9.874  18.804  0.00  0.00    +0.000 OA
BRANCH  18  19
ATOM     19  C   UNL     1       9.522  10.623  18.902  0.00  0.00    +0.000 A 
ATOM     20  C   UNL     1      10.333  11.024  17.842  0.00  0.00    +0.000 A 
ATOM     21  C   UNL     1      11.479  11.766  18.087  0.00  0.00    +0.000 A 
ATOM     22  C   UNL     1      11.780  12.087  19.398  0.00  0.00    +0.000 A 
ATOM     23  N   UNL     1      11.011  11.738  20.452  0.00  0.00    +0.000 NA
ATOM     24  C   UNL     1       9.895  11.022  20.177  0.00  0.00    +0.000 A 
ENDBRANCH  18  19
ENDBRANCH  10  18
TORSDOF 3
ENDMDL
MODEL 9
REMARK VINA RESULT:      -6.6      3.516      7.608
REMARK  Name = 
REMARK  3 active torsions:
REMARK  status: ('A' for Active; 'I' for Inactive)
REMARK    1  A    between atoms: C_2  and  C_3
REMARK    2  A    between atoms: C_15  and  O_16
REMARK    3  A    between atoms: O_16  and  C_17
REMARK                            x       y       z     vdW  Elec       q    Type
REMARK                         _______ _______ _______ _____ _____    ______ ____
ROOT
ATOM      1  O   UNL     1       7.975   4.499  16.105  0.00  0.00    +0.000 OA
ATOM      2  C   UNL     1       7.165   5.167  15.453  0.00  0.00    +0.000 C 
ATOM      3  N   UNL     1       6.683   6.355  15.980  0.00  0.00    +0.000 N 
ATOM      4  C   UNL     1       5.310   6.737  15.746  0.00  0.00    +0.000 C 
ATOM      5  C   UNL     1       4.478   5.764  16.580  0.00  0.00    +0.000 C 
ATOM      6  C   UNL     1       4.772   6.055  18.061  0.00  0.00    +0.000 C 
ATOM      7  C   UNL     1       6.267   5.870  18.368  0.00  0.00    +0.000 C 
ATOM      8  C   UNL     1       7.110   6.675  17.357  0.00  0.00    +0.000 C 
ATOM      9  C   UNL     1       3.817   5.258  18.952  0.00  0.00    +0.000 C 
ATOM     10  C   UNL     1       2.851   6.320  19.473  0.00  0.00    +0.000 C 
ATOM     11  C   UNL     1       3.053   7.475  18.511  0.00  0.00    +0.000 C 
ATOM     12  O   UNL     1       4.454   7.445  18.282  0.00  0.00    +0.000 OA
ENDROOT
BRANCH   2  13
ATOM     13  C   UNL     1       6.644   4.569  14.191  0.00  0.00    +0.000 C 
ATOM     14  C   UNL     1       7.310   4.763  13.040  0.00  0.00    +0.000 C 
ATOM     15  C   UNL     1       6.828   3.877  11.942  0.00  0.00    +0.000 C 
ATOM     16  C   UNL     1       5.977   2.866  12.692  0.00  0.00    +0.000 C 
ATOM     17  C   UNL     1       5.559   3.565  13.977  0.00  0.00    +0.000 C 
ENDBRANCH   2  13
BRANCH  10  18
ATOM     18  O   UNL     1       1.519   5.838  19.473  0.00  0.00    +0.000 OA
BRANCH  18  19
ATOM     19  C   UNL     1       1.400   4.479  19.535  0.00  0.00    +0.000 A 
ATOM     20  C   UNL     1       1.375   3.711  20.697  0.00  0.00    +0.000 A 
ATOM     21  C   UNL     1       1.275   2.329  20.614  0.00  0.00    +0.000 A 
ATOM     22  C   UNL     1       1.202   1.756  19.358  0.00  0.00    +0.000 A 
ATOM     23  N   UNL     1       1.200   2.464  18.209  0.00  0.00    +0.000 NA
ATOM     24  C   UNL     1       1.290   3.809  18.325  0.00  0.00    +0.000 A 
ENDBRANCH  18  19
ENDBRANCH  10  18
TORSDOF 3
ENDMDL
