MODEL 1
REMARK VINA RESULT:      -7.6      0.000      0.000
REMARK  Name = 
REMARK  3 active torsions:
REMARK  status: ('A' for Active; 'I' for Inactive)
REMARK    1  A    between atoms: C_2  and  C_4
REMARK    2  A    between atoms: C_8  and  C_9
REMARK    3  A    between atoms: C_15  and  N_16
REMARK                            x       y       z     vdW  Elec       q    Type
REMARK                         _______ _______ _______ _____ _____    ______ ____
ROOT
ATOM      1  C   UNL     1       2.277   8.612  18.106  0.00  0.00    +0.000 C 
ATOM      2  O   UNL     1       2.564   9.228  17.079  0.00  0.00    +0.000 OA
ATOM      3  N   UNL     1       2.879   7.396  18.443  0.00  0.00    +0.000 N 
ATOM      4  C   UNL     1       4.069   6.982  17.700  0.00  0.00    +0.000 C 
ATOM      5  C   UNL     1       3.904   5.573  17.136  0.00  0.00    +0.000 C 
ATOM      6  C   UNL     1       3.562   4.573  18.239  0.00  0.00    +0.000 C 
ATOM      7  C   UNL     1       2.327   5.029  19.026  0.00  0.00    +0.000 C 
ATOM      8  C   UNL     1       2.463   6.479  19.514  0.00  0.00    +0.000 C 
ENDROOT
BRANCH   1  13
ATOM      9  C   UNL     1       0.300   9.731  21.154  0.00  0.00    +0.000 A 
ATOM     10  C   UNL     1      -0.817  10.314  20.546  0.00  0.00    +0.000 A 
ATOM     11  C   UNL     1      -0.898  10.369  19.153  0.00  0.00    +0.000 A 
ATOM     12  C   UNL     1       0.113   9.806  18.372  0.00  0.00    +0.000 A 
ATOM     13  C   UNL     1       1.229   9.211  18.978  0.00  0.00    +0.000 A 
ATOM     14  C   UNL     1       1.350   9.245  20.369  0.00  0.00    +0.000 A 
BRANCH   9  16
ATOM     15  N   UNL     1      -0.748   9.318  23.312  0.00  0.00    +0.000 N 
ATOM     16  C   UNL     1       0.408   9.571  22.627  0.00  0.00    +0.000 C 
ATOM     17  O   UNL     1       1.492   9.582  23.193  0.00  0.00    +0.000 OA
ATOM     18  H   UNL     1      -0.638   9.058  24.284  0.00  0.00    +0.000 HD
ATOM     19  H   UNL     1      -1.597   9.026  22.850  0.00  0.00    +0.000 HD
ENDBRANCH   9  16
ENDBRANCH   1  13
BRANCH   7  20
ATOM     20  N   UNL     1       2.013   4.135  20.132  0.00  0.00    +0.000 N 
ATOM     21  C   UNL     1       1.154   3.071  20.113  0.00  0.00    +0.000 A 
ATOM     22  C   UNL     1       1.216   2.541  21.381  0.00  0.00    +0.000 A 
ATOM     23  N   UNL     1       2.098   3.243  22.158  0.00  0.00    +0.000 NA
ATOM     24  C   UNL     1       2.565   4.194  21.380  0.00  0.00    +0.000 A 
ENDBRANCH   7  20
TORSDOF 3
ENDMDL
MODEL 2
REMARK VINA RESULT:      -7.3      3.006      6.746
REMARK  Name = 
REMARK  3 active torsions:
REMARK  status: ('A' for Active; 'I' for Inactive)
REMARK    1  A    between atoms: C_2  and  C_4
REMARK    2  A    between atoms: C_8  and  C_9
REMARK    3  A    between atoms: C_15  and  N_16
REMARK                            x       y       z     vdW  Elec       q    Type
REMARK                         _______ _______ _______ _____ _____    ______ ____
ROOT
ATOM      1  C   UNL     1       4.299   3.344  18.459  0.00  0.00    +0.000 C 
ATOM      2  O   UNL     1       4.263   2.124  18.297  0.00  0.00    +0.000 OA
ATOM      3  N   UNL     1       3.521   3.995  19.420  0.00  0.00    +0.000 N 
ATOM      4  C   UNL     1       2.852   3.184  20.437  0.00  0.00    +0.000 C 
ATOM      5  C   UNL     1       1.359   3.495  20.496  0.00  0.00    +0.000 C 
ATOM      6  C   UNL     1       1.114   4.986  20.727  0.00  0.00    +0.000 C 
ATOM      7  C   UNL     1       1.839   5.828  19.669  0.00  0.00    +0.000 C 
ATOM      8  C   UNL     1       3.322   5.446  19.552  0.00  0.00    +0.000 C 
ENDROOT
BRANCH   1  13
ATOM      9  C   UNL     1       6.857   5.841  17.162  0.00  0.00    +0.000 A 
ATOM     10  C   UNL     1       6.834   5.555  15.792  0.00  0.00    +0.000 A 
ATOM     11  C   UNL     1       6.016   4.532  15.311  0.00  0.00    +0.000 A 
ATOM     12  C   UNL     1       5.192   3.825  16.189  0.00  0.00    +0.000 A 
ATOM     13  C   UNL     1       5.204   4.114  17.562  0.00  0.00    +0.000 A 
ATOM     14  C   UNL     1       6.095   5.074  18.049  0.00  0.00    +0.000 A 
BRANCH   9  16
ATOM     15  N   UNL     1       8.248   6.762  18.934  0.00  0.00    +0.000 N 
ATOM     16  C   UNL     1       7.644   6.967  17.725  0.00  0.00    +0.000 C 
ATOM     17  O   UNL     1       7.814   8.004  17.098  0.00  0.00    +0.000 OA
ATOM     18  H   UNL     1       8.904   7.475  19.228  0.00  0.00    +0.000 HD
ATOM     19  H   UNL     1       8.360   5.840  19.332  0.00  0.00    +0.000 HD
ENDBRANCH   9  16
ENDBRANCH   1  13
BRANCH   7  20
ATOM     20  N   UNL     1       1.687   7.258  19.899  0.00  0.00    +0.000 N 
ATOM     21  C   UNL     1       1.895   8.264  18.995  0.00  0.00    +0.000 A 
ATOM     22  C   UNL     1       1.605   9.422  19.678  0.00  0.00    +0.000 A 
ATOM     23  N   UNL     1       1.211   9.143  20.960  0.00  0.00    +0.000 NA
ATOM     24  C   UNL     1       1.268   7.835  21.064  0.00  0.00    +0.000 A 
ENDBRANCH   7  20
TORSDOF 3
ENDMDL
MODEL 3
REMARK VINA RESULT:      -7.3      3.335      7.314
REMARK  Name = 
REMARK  3 active torsions:
REMARK  status: ('A' for Active; 'I' for Inactive)
REMARK    1  A    between atoms: C_2  and  C_4
REMARK    2  A    between atoms: C_8  and  C_9
REMARK    3  A    between atoms: C_15  and  N_16
REMARK                            x       y       z     vdW  Elec       q    Type
REMARK                         _______ _______ _______ _____ _____    ______ ____
ROOT
ATOM      1  C   UNL     1       4.569   3.615  19.013  0.00  0.00    +0.000 C 
ATOM      2  O   UNL     1       4.598   2.392  18.867  0.00  0.00    +0.000 OA
ATOM      3  N   UNL     1       3.613   4.252  19.810  0.00  0.00    +0.000 N 
ATOM      4  C   UNL     1       2.797   3.431  20.704  0.00  0.00    +0.000 C 
ATOM      5  C   UNL     1       1.309   3.697  20.492  0.00  0.00    +0.000 C 
ATOM      6  C   UNL     1       0.985   5.182  20.651  0.00  0.00    +0.000 C 
ATOM      7  C   UNL     1       1.862   6.034  19.726  0.00  0.00    +0.000 C 
ATOM      8  C   UNL     1       3.353   5.697  19.880  0.00  0.00    +0.000 C 
ENDROOT
BRANCH   1  13
ATOM      9  C   UNL     1       6.780   5.013  16.254  0.00  0.00    +0.000 A 
ATOM     10  C   UNL     1       7.595   5.885  16.984  0.00  0.00    +0.000 A 
ATOM     11  C   UNL     1       7.394   6.035  18.358  0.00  0.00    +0.000 A 
ATOM     12  C   UNL     1       6.410   5.285  19.005  0.00  0.00    +0.000 A 
ATOM     13  C   UNL     1       5.597   4.403  18.279  0.00  0.00    +0.000 A 
ATOM     14  C   UNL     1       5.739   4.329  16.891  0.00  0.00    +0.000 A 
BRANCH   9  16
ATOM     15  N   UNL     1       6.314   3.699  14.259  0.00  0.00    +0.000 N 
ATOM     16  C   UNL     1       6.994   4.750  14.808  0.00  0.00    +0.000 C 
ATOM     17  O   UNL     1       7.685   5.489  14.120  0.00  0.00    +0.000 OA
ATOM     18  H   UNL     1       6.347   3.629  13.249  0.00  0.00    +0.000 HD
ATOM     19  H   UNL     1       5.535   3.257  14.726  0.00  0.00    +0.000 HD
ENDBRANCH   9  16
ENDBRANCH   1  13
BRANCH   7  20
ATOM     20  N   UNL     1       1.631   7.461  19.901  0.00  0.00    +0.000 N 
ATOM     21  C   UNL     1       1.741   8.437  18.949  0.00  0.00    +0.000 A 
ATOM     22  C   UNL     1       1.406   9.604  19.594  0.00  0.00    +0.000 A 
ATOM     23  N   UNL     1       1.080   9.359  20.901  0.00  0.00    +0.000 NA
ATOM     24  C   UNL     1       1.221   8.062  21.058  0.00  0.00    +0.000 A 
ENDBRANCH   7  20
TORSDOF 3
ENDMDL
MODEL 4
REMARK VINA RESULT:      -7.1      1.963      2.445
REMARK  Name = 
REMARK  3 active torsions:
REMARK  status: ('A' for Active; 'I' for Inactive)
REMARK    1  A    between atoms: C_2  and  C_4
REMARK    2  A    between atoms: C_8  and  C_9
REMARK    3  A    between atoms: C_15  and  N_16
REMARK                            x       y       z     vdW  Elec       q    Type
REMARK                         _______ _______ _______ _____ _____    ______ ____
ROOT
ATOM      1  C   UNL     1       2.243   8.690  18.089  0.00  0.00    +0.000 C 
ATOM      2  O   UNL     1       2.547   9.313  17.071  0.00  0.00    +0.000 OA
ATOM      3  N   UNL     1       2.854   7.482  18.437  0.00  0.00    +0.000 N 
ATOM      4  C   UNL     1       4.068   7.086  17.722  0.00  0.00    +0.000 C 
ATOM      5  C   UNL     1       3.935   5.677  17.150  0.00  0.00    +0.000 C 
ATOM      6  C   UNL     1       3.581   4.668  18.242  0.00  0.00    +0.000 C 
ATOM      7  C   UNL     1       2.322   5.105  19.001  0.00  0.00    +0.000 C 
ATOM      8  C   UNL     1       2.426   6.556  19.496  0.00  0.00    +0.000 C 
ENDROOT
BRANCH   1  13
ATOM      9  C   UNL     1      -0.796  10.657  19.250  0.00  0.00    +0.000 A 
ATOM     10  C   UNL     1      -0.788  10.373  20.620  0.00  0.00    +0.000 A 
ATOM     11  C   UNL     1       0.183   9.518  21.145  0.00  0.00    +0.000 A 
ATOM     12  C   UNL     1       1.166   8.983  20.311  0.00  0.00    +0.000 A 
ATOM     13  C   UNL     1       1.168   9.272  18.938  0.00  0.00    +0.000 A 
ATOM     14  C   UNL     1       0.138  10.051  18.404  0.00  0.00    +0.000 A 
BRANCH   9  16
ATOM     15  N   UNL     1      -1.286  12.402  17.626  0.00  0.00    +0.000 N 
ATOM     16  C   UNL     1      -1.752  11.619  18.645  0.00  0.00    +0.000 C 
ATOM     17  O   UNL     1      -2.926  11.654  18.986  0.00  0.00    +0.000 OA
ATOM     18  H   UNL     1      -1.984  12.937  17.123  0.00  0.00    +0.000 HD
ATOM     19  H   UNL     1      -0.422  12.202  17.142  0.00  0.00    +0.000 HD
ENDBRANCH   9  16
ENDBRANCH   1  13
BRANCH   7  20
ATOM     20  N   UNL     1       1.994   4.204  20.097  0.00  0.00    +0.000 N 
ATOM     21  C   UNL     1       1.102   3.168  20.074  0.00  0.00    +0.000 A 
ATOM     22  C   UNL     1       1.164   2.615  21.331  0.00  0.00    +0.000 A 
ATOM     23  N   UNL     1       2.079   3.276  22.106  0.00  0.00    +0.000 NA
ATOM     24  C   UNL     1       2.566   4.224  21.338  0.00  0.00    +0.000 A 
ENDBRANCH   7  20
TORSDOF 3
ENDMDL
MODEL 5
REMARK VINA RESULT:      -7.0      2.972      6.773
REMARK  Name = 
REMARK  3 active torsions:
REMARK  status: ('A' for Active; 'I' for Inactive)
REMARK    1  A    between atoms: C_2  and  C_4
REMARK    2  A    between atoms: C_8  and  C_9
REMARK    3  A    between atoms: C_15  and  N_16
REMARK                            x       y       z     vdW  Elec       q    Type
REMARK                         _______ _______ _______ _____ _____    ______ ____
ROOT
ATOM      1  C   UNL     1       1.318   9.059  21.110  0.00  0.00    +0.000 C 
ATOM      2  O   UNL     1       1.696   9.115  22.281  0.00  0.00    +0.000 OA
ATOM      3  N   UNL     1       0.605  10.097  20.502  0.00  0.00    +0.000 N 
ATOM      4  C   UNL     1       0.541  11.388  21.187  0.00  0.00    +0.000 C 
ATOM      5  C   UNL     1      -0.903  11.857  21.342  0.00  0.00    +0.000 C 
ATOM      6  C   UNL     1      -1.616  11.909  19.991  0.00  0.00    +0.000 C 
ATOM      7  C   UNL     1      -1.522  10.557  19.273  0.00  0.00    +0.000 C 
ATOM      8  C   UNL     1      -0.075  10.048  19.200  0.00  0.00    +0.000 C 
ENDROOT
BRANCH   1  13
ATOM      9  C   UNL     1       1.726   5.400  20.162  0.00  0.00    +0.000 A 
ATOM     10  C   UNL     1       2.327   5.518  18.903  0.00  0.00    +0.000 A 
ATOM     11  C   UNL     1       2.559   6.784  18.362  0.00  0.00    +0.000 A 
ATOM     12  C   UNL     1       2.232   7.927  19.094  0.00  0.00    +0.000 A 
ATOM     13  C   UNL     1       1.639   7.814  20.360  0.00  0.00    +0.000 A 
ATOM     14  C   UNL     1       1.321   6.546  20.854  0.00  0.00    +0.000 A 
BRANCH   9  16
ATOM     15  N   UNL     1       0.576   3.260  20.292  0.00  0.00    +0.000 N 
ATOM     16  C   UNL     1       1.525   4.087  20.825  0.00  0.00    +0.000 C 
ATOM     17  O   UNL     1       2.233   3.725  21.755  0.00  0.00    +0.000 OA
ATOM     18  H   UNL     1       0.559   2.314  20.654  0.00  0.00    +0.000 HD
ATOM     19  H   UNL     1       0.184   3.408  19.373  0.00  0.00    +0.000 HD
ENDBRANCH   9  16
ENDBRANCH   1  13
BRANCH   7  20
ATOM     20  N   UNL     1      -2.129  10.589  17.949  0.00  0.00    +0.000 N 
ATOM     21  C   UNL     1      -1.822   9.789  16.883  0.00  0.00    +0.000 A 
ATOM     22  C   UNL     1      -2.674  10.189  15.880  0.00  0.00    +0.000 A 
ATOM     23  N   UNL     1      -3.496  11.194  16.315  0.00  0.00    +0.000 NA
ATOM     24  C   UNL     1      -3.149  11.412  17.563  0.00  0.00    +0.000 A 
ENDBRANCH   7  20
TORSDOF 3
ENDMDL
MODEL 6
REMARK VINA RESULT:      -7.0      3.199      5.698
REMARK  Name = 
REMARK  3 active torsions:
REMARK  status: ('A' for Active; 'I' for Inactive)
REMARK    1  A    between atoms: C_2  and  C_4
REMARK    2  A    between atoms: C_8  and  C_9
REMARK    3  A    between atoms: C_15  and  N_16
REMARK                            x       y       z     vdW  Elec       q    Type
REMARK                         _______ _______ _______ _____ _____    ______ ____
ROOT
ATOM      1  C   UNL     1       3.331   3.826  17.395  0.00  0.00    +0.000 C 
ATOM      2  O   UNL     1       2.888   2.758  16.969  0.00  0.00    +0.000 OA
ATOM      3  N   UNL     1       4.382   4.503  16.771  0.00  0.00    +0.000 N 
ATOM      4  C   UNL     1       4.785   4.075  15.431  0.00  0.00    +0.000 C 
ATOM      5  C   UNL     1       6.283   3.793  15.370  0.00  0.00    +0.000 C 
ATOM      6  C   UNL     1       7.093   5.004  15.833  0.00  0.00    +0.000 C 
ATOM      7  C   UNL     1       6.646   5.458  17.228  0.00  0.00    +0.000 C 
ATOM      8  C   UNL     1       5.125   5.653  17.306  0.00  0.00    +0.000 C 
ENDROOT
BRANCH   1  13
ATOM      9  C   UNL     1       1.923   6.200  20.010  0.00  0.00    +0.000 A 
ATOM     10  C   UNL     1       1.576   5.301  21.025  0.00  0.00    +0.000 A 
ATOM     11  C   UNL     1       1.770   3.931  20.834  0.00  0.00    +0.000 A 
ATOM     12  C   UNL     1       2.348   3.467  19.650  0.00  0.00    +0.000 A 
ATOM     13  C   UNL     1       2.706   4.365  18.634  0.00  0.00    +0.000 A 
ATOM     14  C   UNL     1       2.420   5.723  18.793  0.00  0.00    +0.000 A 
BRANCH   9  16
ATOM     15  N   UNL     1       1.698   8.141  21.461  0.00  0.00    +0.000 N 
ATOM     16  C   UNL     1       1.814   7.671  20.182  0.00  0.00    +0.000 C 
ATOM     17  O   UNL     1       1.907   8.435  19.231  0.00  0.00    +0.000 OA
ATOM     18  H   UNL     1       1.782   9.143  21.574  0.00  0.00    +0.000 HD
ATOM     19  H   UNL     1       1.901   7.568  22.268  0.00  0.00    +0.000 HD
ENDBRANCH   9  16
ENDBRANCH   1  13
BRANCH   7  20
ATOM     20  N   UNL     1       7.347   6.655  17.672  0.00  0.00    +0.000 N 
ATOM     21  C   UNL     1       7.286   7.901  17.111  0.00  0.00    +0.000 A 
ATOM     22  C   UNL     1       8.100   8.685  17.895  0.00  0.00    +0.000 A 
ATOM     23  N   UNL     1       8.634   7.954  18.922  0.00  0.00    +0.000 NA
ATOM     24  C   UNL     1       8.163   6.737  18.765  0.00  0.00    +0.000 A 
ENDBRANCH   7  20
TORSDOF 3
ENDMDL
MODEL 7
REMARK VINA RESULT:      -6.8      3.338      7.634
REMARK  Name = 
REMARK  3 active torsions:
REMARK  status: ('A' for Active; 'I' for Inactive)
REMARK    1  A    between atoms: C_2  and  C_4
REMARK    2  A    between atoms: C_8  and  C_9
REMARK    3  A    between atoms: C_15  and  N_16
REMARK                            x       y       z     vdW  Elec       q    Type
REMARK                         _______ _______ _______ _____ _____    ______ ____
ROOT
ATOM      1  C   UNL     1       4.417   3.633  18.879  0.00  0.00    +0.000 C 
ATOM      2  O   UNL     1       4.340   2.423  19.100  0.00  0.00    +0.000 OA
ATOM      3  N   UNL     1       3.637   4.570  19.562  0.00  0.00    +0.000 N 
ATOM      4  C   UNL     1       2.910   4.132  20.753  0.00  0.00    +0.000 C 
ATOM      5  C   UNL     1       1.429   4.487  20.657  0.00  0.00    +0.000 C 
ATOM      6  C   UNL     1       1.234   5.982  20.406  0.00  0.00    +0.000 C 
ATOM      7  C   UNL     1       2.019   6.435  19.169  0.00  0.00    +0.000 C 
ATOM      8  C   UNL     1       3.489   5.995  19.231  0.00  0.00    +0.000 C 
ENDROOT
BRANCH   1  13
ATOM      9  C   UNL     1       6.041   4.285  15.504  0.00  0.00    +0.000 A 
ATOM     10  C   UNL     1       7.260   4.847  15.901  0.00  0.00    +0.000 A 
ATOM     11  C   UNL     1       7.524   5.041  17.258  0.00  0.00    +0.000 A 
ATOM     12  C   UNL     1       6.593   4.635  18.216  0.00  0.00    +0.000 A 
ATOM     13  C   UNL     1       5.374   4.062  17.823  0.00  0.00    +0.000 A 
ATOM     14  C   UNL     1       5.076   3.959  16.462  0.00  0.00    +0.000 A 
BRANCH   9  16
ATOM     15  N   UNL     1       6.682   3.298  13.373  0.00  0.00    +0.000 N 
ATOM     16  C   UNL     1       5.733   3.981  14.083  0.00  0.00    +0.000 C 
ATOM     17  O   UNL     1       4.648   4.255  13.591  0.00  0.00    +0.000 OA
ATOM     18  H   UNL     1       6.396   2.963  12.461  0.00  0.00    +0.000 HD
ATOM     19  H   UNL     1       7.450   2.818  13.820  0.00  0.00    +0.000 HD
ENDBRANCH   9  16
ENDBRANCH   1  13
BRANCH   7  20
ATOM     20  N   UNL     1       1.915   7.869  18.939  0.00  0.00    +0.000 N 
ATOM     21  C   UNL     1       2.337   8.560  17.837  0.00  0.00    +0.000 A 
ATOM     22  C   UNL     1       2.001   9.870  18.087  0.00  0.00    +0.000 A 
ATOM     23  N   UNL     1       1.373   9.987  19.298  0.00  0.00    +0.000 NA
ATOM     24  C   UNL     1       1.332   8.768  19.787  0.00  0.00    +0.000 A 
ENDBRANCH   7  20
TORSDOF 3
ENDMDL
MODEL 8
REMARK VINA RESULT:      -6.8      2.605      4.375
REMARK  Name = 
REMARK  3 active torsions:
REMARK  status: ('A' for Active; 'I' for Inactive)
REMARK    1  A    between atoms: C_2  and  C_4
REMARK    2  A    between atoms: C_8  and  C_9
REMARK    3  A    between atoms: C_15  and  N_16
REMARK                            x       y       z     vdW  Elec       q    Type
REMARK                         _______ _______ _______ _____ _____    ______ ____
ROOT
ATOM      1  C   UNL     1       2.037   5.720  20.064  0.00  0.00    +0.000 C 
ATOM      2  O   UNL     1       1.442   5.511  21.122  0.00  0.00    +0.000 OA
ATOM      3  N   UNL     1       2.769   4.726  19.408  0.00  0.00    +0.000 N 
ATOM      4  C   UNL     1       2.601   3.339  19.844  0.00  0.00    +0.000 C 
ATOM      5  C   UNL     1       3.948   2.694  20.157  0.00  0.00    +0.000 C 
ATOM      6  C   UNL     1       4.898   2.789  18.963  0.00  0.00    +0.000 C 
ATOM      7  C   UNL     1       5.048   4.244  18.501  0.00  0.00    +0.000 C 
ATOM      8  C   UNL     1       3.685   4.915  18.274  0.00  0.00    +0.000 C 
ENDROOT
BRANCH   1  13
ATOM      9  C   UNL     1       1.363   9.442  19.685  0.00  0.00    +0.000 A 
ATOM     10  C   UNL     1       1.809   9.660  18.376  0.00  0.00    +0.000 A 
ATOM     11  C   UNL     1       2.356   8.603  17.646  0.00  0.00    +0.000 A 
ATOM     12  C   UNL     1       2.418   7.326  18.206  0.00  0.00    +0.000 A 
ATOM     13  C   UNL     1       1.963   7.101  19.513  0.00  0.00    +0.000 A 
ATOM     14  C   UNL     1       1.506   8.181  20.272  0.00  0.00    +0.000 A 
BRANCH   9  16
ATOM     15  N   UNL     1      -0.439  11.053  19.966  0.00  0.00    +0.000 N 
ATOM     16  C   UNL     1       0.700  10.504  20.484  0.00  0.00    +0.000 C 
ATOM     17  O   UNL     1       1.108  10.818  21.594  0.00  0.00    +0.000 OA
ATOM     18  H   UNL     1      -0.962  11.658  20.588  0.00  0.00    +0.000 HD
ATOM     19  H   UNL     1      -0.948  10.625  19.205  0.00  0.00    +0.000 HD
ENDBRANCH   9  16
ENDBRANCH   1  13
BRANCH   7  20
ATOM     20  N   UNL     1       5.890   4.366  17.319  0.00  0.00    +0.000 N 
ATOM     21  C   UNL     1       5.491   4.300  16.012  0.00  0.00    +0.000 A 
ATOM     22  C   UNL     1       6.638   4.492  15.279  0.00  0.00    +0.000 A 
ATOM     23  N   UNL     1       7.713   4.689  16.103  0.00  0.00    +0.000 NA
ATOM     24  C   UNL     1       7.234   4.612  17.324  0.00  0.00    +0.000 A 
ENDBRANCH   7  20
TORSDOF 3
ENDMDL
MODEL 9
REMARK VINA RESULT:      -6.7      5.989      9.025
REMARK  Name = 
REMARK  3 active torsions:
REMARK  status: ('A' for Active; 'I' for Inactive)
REMARK    1  A    between atoms: C_2  and  C_4
REMARK    2  A    between atoms: C_8  and  C_9
REMARK    3  A    between atoms: C_15  and  N_16
REMARK                            x       y       z     vdW  Elec       q    Type
REMARK                         _______ _______ _______ _____ _____    ______ ____
ROOT
ATOM      1  C   UNL     1       6.662   4.780  14.421  0.00  0.00    +0.000 C 
ATOM      2  O   UNL     1       7.785   5.221  14.174  0.00  0.00    +0.000 OA
ATOM      3  N   UNL     1       6.047   4.952  15.665  0.00  0.00    +0.000 N 
ATOM      4  C   UNL     1       6.634   5.909  16.603  0.00  0.00    +0.000 C 
ATOM      5  C   UNL     1       6.888   5.263  17.962  0.00  0.00    +0.000 C 
ATOM      6  C   UNL     1       5.610   4.645  18.527  0.00  0.00    +0.000 C 
ATOM      7  C   UNL     1       4.991   3.661  17.527  0.00  0.00    +0.000 C 
ATOM      8  C   UNL     1       4.822   4.291  16.136  0.00  0.00    +0.000 C 
ENDROOT
BRANCH   1  13
ATOM      9  C   UNL     1       5.902   2.235  11.701  0.00  0.00    +0.000 A 
ATOM     10  C   UNL     1       4.659   2.694  11.249  0.00  0.00    +0.000 A 
ATOM     11  C   UNL     1       4.066   3.802  11.857  0.00  0.00    +0.000 A 
ATOM     12  C   UNL     1       4.733   4.474  12.884  0.00  0.00    +0.000 A 
ATOM     13  C   UNL     1       5.983   4.024  13.333  0.00  0.00    +0.000 A 
ATOM     14  C   UNL     1       6.525   2.859  12.786  0.00  0.00    +0.000 A 
BRANCH   9  16
ATOM     15  N   UNL     1       6.231  -0.155  11.379  0.00  0.00    +0.000 N 
ATOM     16  C   UNL     1       6.619   1.113  11.044  0.00  0.00    +0.000 C 
ATOM     17  O   UNL     1       7.464   1.311  10.182  0.00  0.00    +0.000 OA
ATOM     18  H   UNL     1       6.616  -0.900  10.813  0.00  0.00    +0.000 HD
ATOM     19  H   UNL     1       5.364  -0.344  11.862  0.00  0.00    +0.000 HD
ENDBRANCH   9  16
ENDBRANCH   1  13
BRANCH   7  20
ATOM     20  N   UNL     1       3.732   3.105  18.002  0.00  0.00    +0.000 N 
ATOM     21  C   UNL     1       3.533   2.366  19.136  0.00  0.00    +0.000 A 
ATOM     22  C   UNL     1       2.185   2.097  19.154  0.00  0.00    +0.000 A 
ATOM     23  N   UNL     1       1.562   2.666  18.076  0.00  0.00    +0.000 NA
ATOM     24  C   UNL     1       2.516   3.268  17.402  0.00  0.00    +0.000 A 
ENDBRANCH   7  20
TORSDOF 3
ENDMDL
