MODEL 1
REMARK VINA RESULT:      -6.8      0.000      0.000
REMARK  Name = 
REMARK  6 active torsions:
REMARK  status: ('A' for Active; 'I' for Inactive)
REMARK    1  A    between atoms: C_1  and  O_2
REMARK    2  A    between atoms: O_2  and  C_3
REMARK    3  A    between atoms: C_7  and  C_8
REMARK    4  A    between atoms: C_8  and  N_9
REMARK    5  A    between atoms: C_11  and  O_12
REMARK    6  A    between atoms: O_12  and  C_13
REMARK                            x       y       z     vdW  Elec       q    Type
REMARK                         _______ _______ _______ _____ _____    ______ ____
ROOT
ATOM      1  C   UNL     1       5.881   5.586  16.279  0.00  0.00    +0.000 C 
ENDROOT
BRANCH   1   6
ATOM      2  C   UNL     1       2.721   3.826  17.484  0.00  0.00    +0.000 A 
ATOM      3  C   UNL     1       2.021   4.892  18.052  0.00  0.00    +0.000 A 
ATOM      4  C   UNL     1       2.583   6.167  18.096  0.00  0.00    +0.000 A 
ATOM      5  C   UNL     1       3.846   6.392  17.549  0.00  0.00    +0.000 A 
ATOM      6  C   UNL     1       4.553   5.340  16.950  0.00  0.00    +0.000 A 
ATOM      7  C   UNL     1       3.992   4.051  16.951  0.00  0.00    +0.000 A 
BRANCH   2   9
ATOM      8  C   UNL     1       1.257   2.349  18.634  0.00  0.00    +0.000 C 
ATOM      9  O   UNL     1       2.057   2.630  17.492  0.00  0.00    +0.000 OA
ENDBRANCH   2   9
ENDBRANCH   1   6
BRANCH   1  10
ATOM     10  N   UNL     1       6.867   6.175  17.149  0.00  0.00    +0.000 N 
ATOM     11  N   UNL     1       7.180   7.509  17.130  0.00  0.00    +0.000 NA
ATOM     12  C   UNL     1       7.979   7.602  18.144  0.00  0.00    +0.000 A 
ATOM     13  O   UNL     1       8.230   6.473  18.843  0.00  0.00    +0.000 OA
ATOM     14  C   UNL     1       7.484   5.535  18.197  0.00  0.00    +0.000 A 
ATOM     15  O   UNL     1       7.385   4.367  18.535  0.00  0.00    +0.000 OA
BRANCH  12  16
ATOM     16  O   UNL     1       8.601   8.691  18.631  0.00  0.00    +0.000 OA
ATOM     17  C   UNL     1       8.366   9.896  17.899  0.00  0.00    +0.000 C 
ENDBRANCH  12  16
ENDBRANCH   1  10
TORSDOF 4
ENDMDL
MODEL 2
REMARK VINA RESULT:      -6.7      2.382      3.274
REMARK  Name = 
REMARK  6 active torsions:
REMARK  status: ('A' for Active; 'I' for Inactive)
REMARK    1  A    between atoms: C_1  and  O_2
REMARK    2  A    between atoms: O_2  and  C_3
REMARK    3  A    between atoms: C_7  and  C_8
REMARK    4  A    between atoms: C_8  and  N_9
REMARK    5  A    between atoms: C_11  and  O_12
REMARK    6  A    between atoms: O_12  and  C_13
REMARK                            x       y       z     vdW  Elec       q    Type
REMARK                         _______ _______ _______ _____ _____    ______ ____
ROOT
ATOM      1  C   UNL     1       5.057   5.908  18.056  0.00  0.00    +0.000 C 
ENDROOT
BRANCH   1   6
ATOM      2  C   UNL     1       2.078   4.121  19.626  0.00  0.00    +0.000 A 
ATOM      3  C   UNL     1       1.750   3.212  18.619  0.00  0.00    +0.000 A 
ATOM      4  C   UNL     1       2.451   3.204  17.413  0.00  0.00    +0.000 A 
ATOM      5  C   UNL     1       3.505   4.096  17.214  0.00  0.00    +0.000 A 
ATOM      6  C   UNL     1       3.867   4.999  18.224  0.00  0.00    +0.000 A 
ATOM      7  C   UNL     1       3.124   5.024  19.417  0.00  0.00    +0.000 A 
BRANCH   2   9
ATOM      8  C   UNL     1       1.570   2.893  21.596  0.00  0.00    +0.000 C 
ATOM      9  O   UNL     1       1.324   4.019  20.763  0.00  0.00    +0.000 OA
ENDBRANCH   2   9
ENDBRANCH   1   6
BRANCH   1  10
ATOM     10  N   UNL     1       6.017   5.431  17.093  0.00  0.00    +0.000 N 
ATOM     11  N   UNL     1       5.961   5.747  15.761  0.00  0.00    +0.000 NA
ATOM     12  C   UNL     1       7.067   5.234  15.326  0.00  0.00    +0.000 A 
ATOM     13  O   UNL     1       7.861   4.614  16.228  0.00  0.00    +0.000 OA
ATOM     14  C   UNL     1       7.177   4.757  17.396  0.00  0.00    +0.000 A 
ATOM     15  O   UNL     1       7.567   4.374  18.485  0.00  0.00    +0.000 OA
BRANCH  12  16
ATOM     16  O   UNL     1       7.569   5.244  14.077  0.00  0.00    +0.000 OA
ATOM     17  C   UNL     1       6.935   4.343  13.168  0.00  0.00    +0.000 C 
ENDBRANCH  12  16
ENDBRANCH   1  10
TORSDOF 4
ENDMDL
MODEL 3
REMARK VINA RESULT:      -6.6      2.697      3.857
REMARK  Name = 
REMARK  6 active torsions:
REMARK  status: ('A' for Active; 'I' for Inactive)
REMARK    1  A    between atoms: C_1  and  O_2
REMARK    2  A    between atoms: O_2  and  C_3
REMARK    3  A    between atoms: C_7  and  C_8
REMARK    4  A    between atoms: C_8  and  N_9
REMARK    5  A    between atoms: C_11  and  O_12
REMARK    6  A    between atoms: O_12  and  C_13
REMARK                            x       y       z     vdW  Elec       q    Type
REMARK                         _______ _______ _______ _____ _____    ______ ____
ROOT
ATOM      1  C   UNL     1       5.956   4.500  17.981  0.00  0.00    +0.000 C 
ENDROOT
BRANCH   1   6
ATOM      2  C   UNL     1       2.616   3.301  19.376  0.00  0.00    +0.000 A 
ATOM      3  C   UNL     1       1.742   4.234  18.815  0.00  0.00    +0.000 A 
ATOM      4  C   UNL     1       2.227   5.280  18.031  0.00  0.00    +0.000 A 
ATOM      5  C   UNL     1       3.595   5.389  17.782  0.00  0.00    +0.000 A 
ATOM      6  C   UNL     1       4.486   4.445  18.313  0.00  0.00    +0.000 A 
ATOM      7  C   UNL     1       3.987   3.421  19.136  0.00  0.00    +0.000 A 
BRANCH   2   9
ATOM      8  C   UNL     1       1.516   2.691  21.391  0.00  0.00    +0.000 C 
ATOM      9  O   UNL     1       2.016   2.318  20.113  0.00  0.00    +0.000 OA
ENDBRANCH   2   9
ENDBRANCH   1   6
BRANCH   1  10
ATOM     10  N   UNL     1       6.228   4.516  16.566  0.00  0.00    +0.000 N 
ATOM     11  N   UNL     1       5.664   3.629  15.687  0.00  0.00    +0.000 NA
ATOM     12  C   UNL     1       6.070   4.099  14.551  0.00  0.00    +0.000 A 
ATOM     13  O   UNL     1       6.840   5.209  14.576  0.00  0.00    +0.000 OA
ATOM     14  C   UNL     1       6.932   5.494  15.904  0.00  0.00    +0.000 A 
ATOM     15  O   UNL     1       7.510   6.459  16.374  0.00  0.00    +0.000 OA
BRANCH  12  16
ATOM     16  O   UNL     1       5.815   3.643  13.310  0.00  0.00    +0.000 OA
ATOM     17  C   UNL     1       6.873   3.837  12.369  0.00  0.00    +0.000 C 
ENDBRANCH  12  16
ENDBRANCH   1  10
TORSDOF 4
ENDMDL
MODEL 4
REMARK VINA RESULT:      -6.5      2.503      6.244
REMARK  Name = 
REMARK  6 active torsions:
REMARK  status: ('A' for Active; 'I' for Inactive)
REMARK    1  A    between atoms: C_1  and  O_2
REMARK    2  A    between atoms: O_2  and  C_3
REMARK    3  A    between atoms: C_7  and  C_8
REMARK    4  A    between atoms: C_8  and  N_9
REMARK    5  A    between atoms: C_11  and  O_12
REMARK    6  A    between atoms: O_12  and  C_13
REMARK                            x       y       z     vdW  Elec       q    Type
REMARK                         _______ _______ _______ _____ _____    ______ ____
ROOT
ATOM      1  C   UNL     1       3.104   6.003  17.713  0.00  0.00    +0.000 C 
ENDROOT
BRANCH   1   6
ATOM      2  C   UNL     1       6.765   6.308  16.692  0.00  0.00    +0.000 A 
ATOM      3  C   UNL     1       6.937   5.130  15.962  0.00  0.00    +0.000 A 
ATOM      4  C   UNL     1       5.896   4.212  15.838  0.00  0.00    +0.000 A 
ATOM      5  C   UNL     1       4.660   4.476  16.430  0.00  0.00    +0.000 A 
ATOM      6  C   UNL     1       4.459   5.666  17.144  0.00  0.00    +0.000 A 
ATOM      7  C   UNL     1       5.531   6.562  17.295  0.00  0.00    +0.000 A 
BRANCH   2   9
ATOM      8  C   UNL     1       7.799   8.235  17.622  0.00  0.00    +0.000 C 
ATOM      9  O   UNL     1       7.857   7.130  16.727  0.00  0.00    +0.000 OA
ENDBRANCH   2   9
ENDBRANCH   1   6
BRANCH   1  10
ATOM     10  N   UNL     1       2.627   5.042  18.676  0.00  0.00    +0.000 N 
ATOM     11  N   UNL     1       3.017   5.043  19.989  0.00  0.00    +0.000 NA
ATOM     12  C   UNL     1       2.249   4.127  20.487  0.00  0.00    +0.000 A 
ATOM     13  O   UNL     1       1.383   3.518  19.647  0.00  0.00    +0.000 OA
ATOM     14  C   UNL     1       1.620   4.133  18.456  0.00  0.00    +0.000 A 
ATOM     15  O   UNL     1       1.012   3.912  17.422  0.00  0.00    +0.000 OA
BRANCH  12  16
ATOM     16  O   UNL     1       2.170   3.692  21.758  0.00  0.00    +0.000 OA
ATOM     17  C   UNL     1       1.433   2.481  21.935  0.00  0.00    +0.000 C 
ENDBRANCH  12  16
ENDBRANCH   1  10
TORSDOF 4
ENDMDL
MODEL 5
REMARK VINA RESULT:      -6.5      1.847      2.106
REMARK  Name = 
REMARK  6 active torsions:
REMARK  status: ('A' for Active; 'I' for Inactive)
REMARK    1  A    between atoms: C_1  and  O_2
REMARK    2  A    between atoms: O_2  and  C_3
REMARK    3  A    between atoms: C_7  and  C_8
REMARK    4  A    between atoms: C_8  and  N_9
REMARK    5  A    between atoms: C_11  and  O_12
REMARK    6  A    between atoms: O_12  and  C_13
REMARK                            x       y       z     vdW  Elec       q    Type
REMARK                         _______ _______ _______ _____ _____    ______ ____
ROOT
ATOM      1  C   UNL     1       5.387   3.862  17.019  0.00  0.00    +0.000 C 
ENDROOT
BRANCH   1   6
ATOM      2  C   UNL     1       2.484   3.129  19.381  0.00  0.00    +0.000 A 
ATOM      3  C   UNL     1       1.610   4.169  19.061  0.00  0.00    +0.000 A 
ATOM      4  C   UNL     1       1.971   5.137  18.124  0.00  0.00    +0.000 A 
ATOM      5  C   UNL     1       3.206   5.059  17.482  0.00  0.00    +0.000 A 
ATOM      6  C   UNL     1       4.087   4.006  17.769  0.00  0.00    +0.000 A 
ATOM      7  C   UNL     1       3.727   3.062  18.746  0.00  0.00    +0.000 A 
BRANCH   2   9
ATOM      8  C   UNL     1       1.500   2.782  21.516  0.00  0.00    +0.000 C 
ATOM      9  O   UNL     1       2.009   2.238  20.304  0.00  0.00    +0.000 OA
ENDBRANCH   2   9
ENDBRANCH   1   6
BRANCH   1  10
ATOM     10  N   UNL     1       6.212   5.043  17.060  0.00  0.00    +0.000 N 
ATOM     11  N   UNL     1       6.644   5.612  18.230  0.00  0.00    +0.000 NA
ATOM     12  C   UNL     1       7.445   6.529  17.790  0.00  0.00    +0.000 A 
ATOM     13  O   UNL     1       7.598   6.630  16.451  0.00  0.00    +0.000 OA
ATOM     14  C   UNL     1       6.798   5.639  15.970  0.00  0.00    +0.000 A 
ATOM     15  O   UNL     1       6.676   5.349  14.792  0.00  0.00    +0.000 OA
BRANCH  12  16
ATOM     16  O   UNL     1       8.183   7.411  18.489  0.00  0.00    +0.000 OA
ATOM     17  C   UNL     1       8.160   8.748  17.985  0.00  0.00    +0.000 C 
ENDBRANCH  12  16
ENDBRANCH   1  10
TORSDOF 4
ENDMDL
MODEL 6
REMARK VINA RESULT:      -6.4      1.930      3.066
REMARK  Name = 
REMARK  6 active torsions:
REMARK  status: ('A' for Active; 'I' for Inactive)
REMARK    1  A    between atoms: C_1  and  O_2
REMARK    2  A    between atoms: O_2  and  C_3
REMARK    3  A    between atoms: C_7  and  C_8
REMARK    4  A    between atoms: C_8  and  N_9
REMARK    5  A    between atoms: C_11  and  O_12
REMARK    6  A    between atoms: O_12  and  C_13
REMARK                            x       y       z     vdW  Elec       q    Type
REMARK                         _______ _______ _______ _____ _____    ______ ____
ROOT
ATOM      1  C   UNL     1       6.043   5.213  18.927  0.00  0.00    +0.000 C 
ENDROOT
BRANCH   1   6
ATOM      2  C   UNL     1       2.677   3.421  18.939  0.00  0.00    +0.000 A 
ATOM      3  C   UNL     1       1.821   4.458  18.564  0.00  0.00    +0.000 A 
ATOM      4  C   UNL     1       2.314   5.746  18.357  0.00  0.00    +0.000 A 
ATOM      5  C   UNL     1       3.677   6.003  18.502  0.00  0.00    +0.000 A 
ATOM      6  C   UNL     1       4.557   4.968  18.851  0.00  0.00    +0.000 A 
ATOM      7  C   UNL     1       4.040   3.685  19.098  0.00  0.00    +0.000 A 
BRANCH   2   9
ATOM      8  C   UNL     1       0.662   2.163  18.941  0.00  0.00    +0.000 C 
ATOM      9  O   UNL     1       2.074   2.204  19.100  0.00  0.00    +0.000 OA
ENDBRANCH   2   9
ENDBRANCH   1   6
BRANCH   1  10
ATOM     10  N   UNL     1       6.668   5.375  17.638  0.00  0.00    +0.000 N 
ATOM     11  N   UNL     1       6.428   4.538  16.580  0.00  0.00    +0.000 NA
ATOM     12  C   UNL     1       7.070   5.135  15.628  0.00  0.00    +0.000 A 
ATOM     13  O   UNL     1       7.710   6.285  15.935  0.00  0.00    +0.000 OA
ATOM     14  C   UNL     1       7.432   6.452  17.257  0.00  0.00    +0.000 A 
ATOM     15  O   UNL     1       7.786   7.406  17.930  0.00  0.00    +0.000 OA
BRANCH  12  16
ATOM     16  O   UNL     1       7.183   4.780  14.335  0.00  0.00    +0.000 OA
ATOM     17  C   UNL     1       6.130   3.948  13.845  0.00  0.00    +0.000 C 
ENDBRANCH  12  16
ENDBRANCH   1  10
TORSDOF 4
ENDMDL
MODEL 7
REMARK VINA RESULT:      -6.4      2.184      2.988
REMARK  Name = 
REMARK  6 active torsions:
REMARK  status: ('A' for Active; 'I' for Inactive)
REMARK    1  A    between atoms: C_1  and  O_2
REMARK    2  A    between atoms: O_2  and  C_3
REMARK    3  A    between atoms: C_7  and  C_8
REMARK    4  A    between atoms: C_8  and  N_9
REMARK    5  A    between atoms: C_11  and  O_12
REMARK    6  A    between atoms: O_12  and  C_13
REMARK                            x       y       z     vdW  Elec       q    Type
REMARK                         _______ _______ _______ _____ _____    ______ ____
ROOT
ATOM      1  C   UNL     1       5.220   6.015  18.075  0.00  0.00    +0.000 C 
ENDROOT
BRANCH   1   6
ATOM      2  C   UNL     1       2.705   3.177  18.471  0.00  0.00    +0.000 A 
ATOM      3  C   UNL     1       1.506   3.845  18.214  0.00  0.00    +0.000 A 
ATOM      4  C   UNL     1       1.497   5.217  17.963  0.00  0.00    +0.000 A 
ATOM      5  C   UNL     1       2.695   5.931  17.947  0.00  0.00    +0.000 A 
ATOM      6  C   UNL     1       3.912   5.273  18.175  0.00  0.00    +0.000 A 
ATOM      7  C   UNL     1       3.902   3.899  18.468  0.00  0.00    +0.000 A 
BRANCH   2   9
ATOM      8  C   UNL     1       3.775   1.062  18.625  0.00  0.00    +0.000 C 
ATOM      9  O   UNL     1       2.582   1.833  18.689  0.00  0.00    +0.000 OA
ENDBRANCH   2   9
ENDBRANCH   1   6
BRANCH   1  10
ATOM     10  N   UNL     1       6.116   5.476  17.083  0.00  0.00    +0.000 N 
ATOM     11  N   UNL     1       6.006   5.754  15.746  0.00  0.00    +0.000 NA
ATOM     12  C   UNL     1       7.072   5.190  15.276  0.00  0.00    +0.000 A 
ATOM     13  O   UNL     1       7.886   4.568  16.157  0.00  0.00    +0.000 OA
ATOM     14  C   UNL     1       7.265   4.770  17.351  0.00  0.00    +0.000 A 
ATOM     15  O   UNL     1       7.694   4.406  18.433  0.00  0.00    +0.000 OA
BRANCH  12  16
ATOM     16  O   UNL     1       7.512   5.145  14.005  0.00  0.00    +0.000 OA
ATOM     17  C   UNL     1       6.794   4.254  13.150  0.00  0.00    +0.000 C 
ENDBRANCH  12  16
ENDBRANCH   1  10
TORSDOF 4
ENDMDL
MODEL 8
REMARK VINA RESULT:      -6.4      1.430      2.152
REMARK  Name = 
REMARK  6 active torsions:
REMARK  status: ('A' for Active; 'I' for Inactive)
REMARK    1  A    between atoms: C_1  and  O_2
REMARK    2  A    between atoms: O_2  and  C_3
REMARK    3  A    between atoms: C_7  and  C_8
REMARK    4  A    between atoms: C_8  and  N_9
REMARK    5  A    between atoms: C_11  and  O_12
REMARK    6  A    between atoms: O_12  and  C_13
REMARK                            x       y       z     vdW  Elec       q    Type
REMARK                         _______ _______ _______ _____ _____    ______ ____
ROOT
ATOM      1  C   UNL     1       6.383   5.039  16.615  0.00  0.00    +0.000 C 
ENDROOT
BRANCH   1   6
ATOM      2  C   UNL     1       2.982   6.130  17.952  0.00  0.00    +0.000 A 
ATOM      3  C   UNL     1       2.295   4.915  17.957  0.00  0.00    +0.000 A 
ATOM      4  C   UNL     1       2.903   3.752  17.484  0.00  0.00    +0.000 A 
ATOM      5  C   UNL     1       4.218   3.793  17.019  0.00  0.00    +0.000 A 
ATOM      6  C   UNL     1       4.934   4.998  17.032  0.00  0.00    +0.000 A 
ATOM      7  C   UNL     1       4.294   6.170  17.472  0.00  0.00    +0.000 A 
BRANCH   2   9
ATOM      8  C   UNL     1       2.165   7.273  19.867  0.00  0.00    +0.000 C 
ATOM      9  O   UNL     1       2.281   7.192  18.452  0.00  0.00    +0.000 OA
ENDBRANCH   2   9
ENDBRANCH   1   6
BRANCH   1  10
ATOM     10  N   UNL     1       7.136   6.093  17.246  0.00  0.00    +0.000 N 
ATOM     11  N   UNL     1       7.165   7.378  16.772  0.00  0.00    +0.000 NA
ATOM     12  C   UNL     1       7.826   7.983  17.706  0.00  0.00    +0.000 A 
ATOM     13  O   UNL     1       8.238   7.240  18.758  0.00  0.00    +0.000 OA
ATOM     14  C   UNL     1       7.769   5.997  18.463  0.00  0.00    +0.000 A 
ATOM     15  O   UNL     1       7.883   5.018  19.181  0.00  0.00    +0.000 OA
BRANCH  12  16
ATOM     16  O   UNL     1       8.158   9.284  17.798  0.00  0.00    +0.000 OA
ATOM     17  C   UNL     1       8.975   9.619  18.921  0.00  0.00    +0.000 C 
ENDBRANCH  12  16
ENDBRANCH   1  10
TORSDOF 4
ENDMDL
MODEL 9
REMARK VINA RESULT:      -6.4      2.054      3.177
REMARK  Name = 
REMARK  6 active torsions:
REMARK  status: ('A' for Active; 'I' for Inactive)
REMARK    1  A    between atoms: C_1  and  O_2
REMARK    2  A    between atoms: O_2  and  C_3
REMARK    3  A    between atoms: C_7  and  C_8
REMARK    4  A    between atoms: C_8  and  N_9
REMARK    5  A    between atoms: C_11  and  O_12
REMARK    6  A    between atoms: O_12  and  C_13
REMARK                            x       y       z     vdW  Elec       q    Type
REMARK                         _______ _______ _______ _____ _____    ______ ____
ROOT
ATOM      1  C   UNL     1       5.344   6.482  17.563  0.00  0.00    +0.000 C 
ENDROOT
BRANCH   1   6
ATOM      2  C   UNL     1       2.468   4.044  18.128  0.00  0.00    +0.000 A 
ATOM      3  C   UNL     1       1.815   4.646  19.205  0.00  0.00    +0.000 A 
ATOM      4  C   UNL     1       2.325   5.807  19.786  0.00  0.00    +0.000 A 
ATOM      5  C   UNL     1       3.485   6.390  19.277  0.00  0.00    +0.000 A 
ATOM      6  C   UNL     1       4.140   5.816  18.177  0.00  0.00    +0.000 A 
ATOM      7  C   UNL     1       3.638   4.622  17.630  0.00  0.00    +0.000 A 
BRANCH   2   9
ATOM      8  C   UNL     1       1.083   2.162  18.560  0.00  0.00    +0.000 C 
ATOM      9  O   UNL     1       1.862   2.919  17.641  0.00  0.00    +0.000 OA
ENDBRANCH   2   9
ENDBRANCH   1   6
BRANCH   1  10
ATOM     10  N   UNL     1       6.057   5.643  16.633  0.00  0.00    +0.000 N 
ATOM     11  N   UNL     1       5.892   5.724  15.275  0.00  0.00    +0.000 NA
ATOM     12  C   UNL     1       6.809   4.913  14.855  0.00  0.00    +0.000 A 
ATOM     13  O   UNL     1       7.574   4.303  15.787  0.00  0.00    +0.000 OA
ATOM     14  C   UNL     1       7.090   4.796  16.959  0.00  0.00    +0.000 A 
ATOM     15  O   UNL     1       7.534   4.535  18.064  0.00  0.00    +0.000 OA
BRANCH  12  16
ATOM     16  O   UNL     1       7.136   4.592  13.589  0.00  0.00    +0.000 OA
ATOM     17  C   UNL     1       6.220   3.711  12.936  0.00  0.00    +0.000 C 
ENDBRANCH  12  16
ENDBRANCH   1  10
TORSDOF 4
ENDMDL
