MODEL 1
REMARK VINA RESULT:      -9.6      0.000      0.000
REMARK  Name = 
REMARK  7 active torsions:
REMARK  status: ('A' for Active; 'I' for Inactive)
REMARK    1  A    between atoms: C_1  and  C_2
REMARK    2  A    between atoms: C_9  and  O_10
REMARK    3  A    between atoms: O_10  and  C_11
REMARK    4  A    between atoms: C_11  and  C_12
REMARK    5  A    between atoms: C_13  and  C_14
REMARK    6  A    between atoms: C_14  and  N_15
REMARK    7  A    between atoms: C_18  and  C_19
REMARK                            x       y       z     vdW  Elec       q    Type
REMARK                         _______ _______ _______ _____ _____    ______ ____
ROOT
ATOM      1  C   UNL     1       7.714   7.286  17.959  0.00  0.00    +0.000 C 
ENDROOT
BRANCH   1   2
ATOM      2  N   UNL     1       6.708   6.649  17.091  0.00  0.00    +0.000 NA
ATOM      3  C   UNL     1       7.038   5.253  16.782  0.00  0.00    +0.000 C 
ATOM      4  C   UNL     1       5.915   4.477  16.106  0.00  0.00    +0.000 C 
ATOM      5  C   UNL     1       4.550   4.650  16.785  0.00  0.00    +0.000 C 
ATOM      6  C   UNL     1       4.262   6.162  16.824  0.00  0.00    +0.000 C 
ATOM      7  C   UNL     1       5.348   6.942  17.557  0.00  0.00    +0.000 C 
BRANCH   5   8
ATOM      8  C   UNL     1       4.363   3.946  18.121  0.00  0.00    +0.000 A 
ATOM      9  N   UNL     1       5.442   3.432  18.735  0.00  0.00    +0.000 NA
ATOM     10  O   UNL     1       5.005   2.886  19.925  0.00  0.00    +0.000 OA
ATOM     11  C   UNL     1       3.670   3.080  20.050  0.00  0.00    +0.000 A 
ATOM     12  C   UNL     1       2.892   2.665  21.131  0.00  0.00    +0.000 A 
ATOM     13  C   UNL     1       1.537   2.977  21.053  0.00  0.00    +0.000 A 
ATOM     14  F   UNL     1       0.727   2.611  22.054  0.00  0.00    +0.000 F 
ATOM     15  C   UNL     1       1.004   3.664  19.967  0.00  0.00    +0.000 A 
ATOM     16  C   UNL     1       1.823   4.070  18.899  0.00  0.00    +0.000 A 
ATOM     17  C   UNL     1       3.197   3.762  18.938  0.00  0.00    +0.000 A 
ENDBRANCH   5   8
ENDBRANCH   1   2
BRANCH   1  19
ATOM     18  C   UNL     1       8.603   9.632  18.356  0.00  0.00    +0.000 C 
ATOM     19  C   UNL     1       8.235   8.638  17.531  0.00  0.00    +0.000 C 
BRANCH  18  20
ATOM     20  C   UNL     1       9.169  10.944  17.994  0.00  0.00    +0.000 C 
BRANCH  20  21
ATOM     21  O   UNL     1       9.251  11.717  19.188  0.00  0.00    +0.000 OA
BRANCH  21  30
ATOM     22  C   UNL     1      10.815  17.825  17.380  0.00  0.00    +0.000 C 
ATOM     23  C   UNL     1       9.675  17.249  18.164  0.00  0.00    +0.000 A 
ATOM     24  C   UNL     1       8.710  18.031  18.660  0.00  0.00    +0.000 A 
ATOM     25  C   UNL     1       7.571  17.524  19.446  0.00  0.00    +0.000 A 
ATOM     26  O   UNL     1       6.717  18.283  19.873  0.00  0.00    +0.000 OA
ATOM     27  O   UNL     1       7.530  16.164  19.672  0.00  0.00    +0.000 OA
ATOM     28  C   UNL     1       8.533  15.324  19.156  0.00  0.00    +0.000 A 
ATOM     29  C   UNL     1       8.379  13.977  19.444  0.00  0.00    +0.000 A 
ATOM     30  C   UNL     1       9.313  13.064  18.968  0.00  0.00    +0.000 A 
ATOM     31  C   UNL     1      10.393  13.513  18.209  0.00  0.00    +0.000 A 
ATOM     32  C   UNL     1      10.535  14.879  17.931  0.00  0.00    +0.000 A 
ATOM     33  C   UNL     1       9.601  15.807  18.403  0.00  0.00    +0.000 A 
ENDBRANCH  21  30
ENDBRANCH  20  21
ENDBRANCH  18  20
ENDBRANCH   1  19
TORSDOF 6
ENDMDL
MODEL 2
REMARK VINA RESULT:      -9.6      1.490      1.705
REMARK  Name = 
REMARK  7 active torsions:
REMARK  status: ('A' for Active; 'I' for Inactive)
REMARK    1  A    between atoms: C_1  and  C_2
REMARK    2  A    between atoms: C_9  and  O_10
REMARK    3  A    between atoms: O_10  and  C_11
REMARK    4  A    between atoms: C_11  and  C_12
REMARK    5  A    between atoms: C_13  and  C_14
REMARK    6  A    between atoms: C_14  and  N_15
REMARK    7  A    between atoms: C_18  and  C_19
REMARK                            x       y       z     vdW  Elec       q    Type
REMARK                         _______ _______ _______ _____ _____    ______ ____
ROOT
ATOM      1  C   UNL     1       8.089   6.877  18.290  0.00  0.00    +0.000 C 
ENDROOT
BRANCH   1   2
ATOM      2  N   UNL     1       7.205   6.264  17.284  0.00  0.00    +0.000 NA
ATOM      3  C   UNL     1       6.862   4.875  17.611  0.00  0.00    +0.000 C 
ATOM      4  C   UNL     1       5.756   4.281  16.748  0.00  0.00    +0.000 C 
ATOM      5  C   UNL     1       4.533   5.196  16.596  0.00  0.00    +0.000 C 
ATOM      6  C   UNL     1       5.048   6.534  16.032  0.00  0.00    +0.000 C 
ATOM      7  C   UNL     1       6.110   7.171  16.922  0.00  0.00    +0.000 C 
BRANCH   5   8
ATOM      8  C   UNL     1       3.637   5.340  17.816  0.00  0.00    +0.000 A 
ATOM      9  N   UNL     1       3.223   6.570  18.170  0.00  0.00    +0.000 NA
ATOM     10  O   UNL     1       2.410   6.416  19.274  0.00  0.00    +0.000 OA
ATOM     11  C   UNL     1       2.307   5.102  19.585  0.00  0.00    +0.000 A 
ATOM     12  C   UNL     1       1.560   4.578  20.640  0.00  0.00    +0.000 A 
ATOM     13  C   UNL     1       1.594   3.191  20.771  0.00  0.00    +0.000 A 
ATOM     14  F   UNL     1       0.899   2.615  21.760  0.00  0.00    +0.000 F 
ATOM     15  C   UNL     1       2.321   2.390  19.897  0.00  0.00    +0.000 A 
ATOM     16  C   UNL     1       3.058   2.957  18.844  0.00  0.00    +0.000 A 
ATOM     17  C   UNL     1       3.058   4.357  18.686  0.00  0.00    +0.000 A 
ENDBRANCH   5   8
ENDBRANCH   1   2
BRANCH   1  19
ATOM     18  C   UNL     1       8.957   9.134  19.070  0.00  0.00    +0.000 C 
ATOM     19  C   UNL     1       8.067   8.384  18.399  0.00  0.00    +0.000 C 
BRANCH  18  20
ATOM     20  C   UNL     1       9.013  10.603  19.161  0.00  0.00    +0.000 C 
BRANCH  20  21
ATOM     21  O   UNL     1       9.153  11.107  17.835  0.00  0.00    +0.000 OA
BRANCH  21  30
ATOM     22  C   UNL     1      12.333  16.813  17.240  0.00  0.00    +0.000 C 
ATOM     23  C   UNL     1      10.912  16.461  17.560  0.00  0.00    +0.000 A 
ATOM     24  C   UNL     1      10.001  17.410  17.801  0.00  0.00    +0.000 A 
ATOM     25  C   UNL     1       8.592  17.125  18.130  0.00  0.00    +0.000 A 
ATOM     26  O   UNL     1       7.802  18.030  18.338  0.00  0.00    +0.000 OA
ATOM     27  O   UNL     1       8.227  15.795  18.193  0.00  0.00    +0.000 OA
ATOM     28  C   UNL     1       9.169  14.783  17.940  0.00  0.00    +0.000 A 
ATOM     29  C   UNL     1       8.682  13.489  18.027  0.00  0.00    +0.000 A 
ATOM     30  C   UNL     1       9.533  12.418  17.783  0.00  0.00    +0.000 A 
ATOM     31  C   UNL     1      10.868  12.658  17.455  0.00  0.00    +0.000 A 
ATOM     32  C   UNL     1      11.344  13.973  17.375  0.00  0.00    +0.000 A 
ATOM     33  C   UNL     1      10.497  15.058  17.617  0.00  0.00    +0.000 A 
ENDBRANCH  21  30
ENDBRANCH  20  21
ENDBRANCH  18  20
ENDBRANCH   1  19
TORSDOF 6
ENDMDL
MODEL 3
REMARK VINA RESULT:      -9.3      3.178      4.129
REMARK  Name = 
REMARK  7 active torsions:
REMARK  status: ('A' for Active; 'I' for Inactive)
REMARK    1  A    between atoms: C_1  and  C_2
REMARK    2  A    between atoms: C_9  and  O_10
REMARK    3  A    between atoms: O_10  and  C_11
REMARK    4  A    between atoms: C_11  and  C_12
REMARK    5  A    between atoms: C_13  and  C_14
REMARK    6  A    between atoms: C_14  and  N_15
REMARK    7  A    between atoms: C_18  and  C_19
REMARK                            x       y       z     vdW  Elec       q    Type
REMARK                         _______ _______ _______ _____ _____    ______ ____
ROOT
ATOM      1  C   UNL     1       7.481   8.652  17.467  0.00  0.00    +0.000 C 
ENDROOT
BRANCH   1   2
ATOM      2  N   UNL     1       7.698   7.198  17.385  0.00  0.00    +0.000 NA
ATOM      3  C   UNL     1       7.894   6.586  18.705  0.00  0.00    +0.000 C 
ATOM      4  C   UNL     1       7.868   5.062  18.700  0.00  0.00    +0.000 C 
ATOM      5  C   UNL     1       6.690   4.468  17.916  0.00  0.00    +0.000 C 
ATOM      6  C   UNL     1       6.770   5.046  16.490  0.00  0.00    +0.000 C 
ATOM      7  C   UNL     1       6.731   6.570  16.477  0.00  0.00    +0.000 C 
BRANCH   5   8
ATOM      8  C   UNL     1       5.317   4.586  18.558  0.00  0.00    +0.000 A 
ATOM      9  N   UNL     1       5.084   5.611  19.397  0.00  0.00    +0.000 NA
ATOM     10  O   UNL     1       3.772   5.501  19.809  0.00  0.00    +0.000 OA
ATOM     11  C   UNL     1       3.196   4.430  19.213  0.00  0.00    +0.000 A 
ATOM     12  C   UNL     1       1.874   4.020  19.393  0.00  0.00    +0.000 A 
ATOM     13  C   UNL     1       1.492   2.890  18.673  0.00  0.00    +0.000 A 
ATOM     14  F   UNL     1       0.237   2.438  18.793  0.00  0.00    +0.000 F 
ATOM     15  C   UNL     1       2.374   2.226  17.828  0.00  0.00    +0.000 A 
ATOM     16  C   UNL     1       3.696   2.673  17.671  0.00  0.00    +0.000 A 
ATOM     17  C   UNL     1       4.124   3.806  18.391  0.00  0.00    +0.000 A 
ENDBRANCH   5   8
ENDBRANCH   1   2
BRANCH   1  19
ATOM     18  C   UNL     1       8.963  10.680  17.853  0.00  0.00    +0.000 C 
ATOM     19  C   UNL     1       8.520   9.462  18.208  0.00  0.00    +0.000 C 
BRANCH  18  20
ATOM     20  C   UNL     1       9.928  11.534  18.568  0.00  0.00    +0.000 C 
BRANCH  20  21
ATOM     21  O   UNL     1      10.187  10.921  19.828  0.00  0.00    +0.000 OA
BRANCH  21  30
ATOM     22  C   UNL     1       8.464  15.306  24.391  0.00  0.00    +0.000 C 
ATOM     23  C   UNL     1       8.079  13.879  24.144  0.00  0.00    +0.000 A 
ATOM     24  C   UNL     1       7.218  13.244  24.949  0.00  0.00    +0.000 A 
ATOM     25  C   UNL     1       6.809  11.840  24.762  0.00  0.00    +0.000 A 
ATOM     26  O   UNL     1       6.018  11.312  25.525  0.00  0.00    +0.000 OA
ATOM     27  O   UNL     1       7.369  11.167  23.695  0.00  0.00    +0.000 OA
ATOM     28  C   UNL     1       8.273  11.818  22.837  0.00  0.00    +0.000 A 
ATOM     29  C   UNL     1       8.762  11.041  21.798  0.00  0.00    +0.000 A 
ATOM     30  C   UNL     1       9.653  11.596  20.888  0.00  0.00    +0.000 A 
ATOM     31  C   UNL     1      10.046  12.926  21.031  0.00  0.00    +0.000 A 
ATOM     32  C   UNL     1       9.545  13.696  22.088  0.00  0.00    +0.000 A 
ATOM     33  C   UNL     1       8.647  13.149  23.010  0.00  0.00    +0.000 A 
ENDBRANCH  21  30
ENDBRANCH  20  21
ENDBRANCH  18  20
ENDBRANCH   1  19
TORSDOF 6
ENDMDL
MODEL 4
REMARK VINA RESULT:      -9.3      6.320      9.012
REMARK  Name = 
REMARK  7 active torsions:
REMARK  status: ('A' for Active; 'I' for Inactive)
REMARK    1  A    between atoms: C_1  and  C_2
REMARK    2  A    between atoms: C_9  and  O_10
REMARK    3  A    between atoms: O_10  and  C_11
REMARK    4  A    between atoms: C_11  and  C_12
REMARK    5  A    between atoms: C_13  and  C_14
REMARK    6  A    between atoms: C_14  and  N_15
REMARK    7  A    between atoms: C_18  and  C_19
REMARK                            x       y       z     vdW  Elec       q    Type
REMARK                         _______ _______ _______ _____ _____    ______ ____
ROOT
ATOM      1  C   UNL     1       1.669   5.075  20.655  0.00  0.00    +0.000 C 
ENDROOT
BRANCH   1   2
ATOM      2  N   UNL     1       2.133   3.924  19.861  0.00  0.00    +0.000 NA
ATOM      3  C   UNL     1       1.760   4.034  18.446  0.00  0.00    +0.000 C 
ATOM      4  C   UNL     1       2.427   3.008  17.539  0.00  0.00    +0.000 C 
ATOM      5  C   UNL     1       3.939   2.874  17.768  0.00  0.00    +0.000 C 
ATOM      6  C   UNL     1       4.134   2.538  19.258  0.00  0.00    +0.000 C 
ATOM      7  C   UNL     1       3.527   3.592  20.177  0.00  0.00    +0.000 C 
BRANCH   5   8
ATOM      8  C   UNL     1       4.806   4.021  17.270  0.00  0.00    +0.000 A 
ATOM      9  N   UNL     1       4.613   4.477  16.020  0.00  0.00    +0.000 NA
ATOM     10  O   UNL     1       5.495   5.523  15.836  0.00  0.00    +0.000 OA
ATOM     11  C   UNL     1       6.209   5.721  16.969  0.00  0.00    +0.000 A 
ATOM     12  C   UNL     1       7.189   6.699  17.146  0.00  0.00    +0.000 A 
ATOM     13  C   UNL     1       7.794   6.725  18.400  0.00  0.00    +0.000 A 
ATOM     14  F   UNL     1       8.742   7.638  18.645  0.00  0.00    +0.000 F 
ATOM     15  C   UNL     1       7.433   5.836  19.407  0.00  0.00    +0.000 A 
ATOM     16  C   UNL     1       6.438   4.867  19.191  0.00  0.00    +0.000 A 
ATOM     17  C   UNL     1       5.811   4.802  17.931  0.00  0.00    +0.000 A 
ENDBRANCH   5   8
ENDBRANCH   1   2
BRANCH   1  19
ATOM     18  C   UNL     1       2.351   7.148  19.354  0.00  0.00    +0.000 C 
ATOM     19  C   UNL     1       1.412   6.365  19.912  0.00  0.00    +0.000 C 
BRANCH  18  20
ATOM     20  C   UNL     1       2.151   8.381  18.572  0.00  0.00    +0.000 C 
BRANCH  20  21
ATOM     21  O   UNL     1       1.690   9.386  19.472  0.00  0.00    +0.000 OA
BRANCH  21  30
ATOM     22  C   UNL     1      -4.163  12.343  19.355  0.00  0.00    +0.000 C 
ATOM     23  C   UNL     1      -3.400  11.541  18.345  0.00  0.00    +0.000 A 
ATOM     24  C   UNL     1      -3.905  11.297  17.130  0.00  0.00    +0.000 A 
ATOM     25  C   UNL     1      -3.207  10.508  16.100  0.00  0.00    +0.000 A 
ATOM     26  O   UNL     1      -3.712  10.318  15.006  0.00  0.00    +0.000 OA
ATOM     27  O   UNL     1      -1.970   9.998  16.440  0.00  0.00    +0.000 OA
ATOM     28  C   UNL     1      -1.422  10.246  17.711  0.00  0.00    +0.000 A 
ATOM     29  C   UNL     1      -0.173   9.687  17.932  0.00  0.00    +0.000 A 
ATOM     30  C   UNL     1       0.459   9.885  19.154  0.00  0.00    +0.000 A 
ATOM     31  C   UNL     1      -0.171  10.641  20.143  0.00  0.00    +0.000 A 
ATOM     32  C   UNL     1      -1.435  11.194  19.903  0.00  0.00    +0.000 A 
ATOM     33  C   UNL     1      -2.080  11.003  18.677  0.00  0.00    +0.000 A 
ENDBRANCH  21  30
ENDBRANCH  20  21
ENDBRANCH  18  20
ENDBRANCH   1  19
TORSDOF 6
ENDMDL
MODEL 5
REMARK VINA RESULT:      -9.3      6.682      8.892
REMARK  Name = 
REMARK  7 active torsions:
REMARK  status: ('A' for Active; 'I' for Inactive)
REMARK    1  A    between atoms: C_1  and  C_2
REMARK    2  A    between atoms: C_9  and  O_10
REMARK    3  A    between atoms: O_10  and  C_11
REMARK    4  A    between atoms: C_11  and  C_12
REMARK    5  A    between atoms: C_13  and  C_14
REMARK    6  A    between atoms: C_14  and  N_15
REMARK    7  A    between atoms: C_18  and  C_19
REMARK                            x       y       z     vdW  Elec       q    Type
REMARK                         _______ _______ _______ _____ _____    ______ ____
ROOT
ATOM      1  C   UNL     1       1.630   4.816  20.670  0.00  0.00    +0.000 C 
ENDROOT
BRANCH   1   2
ATOM      2  N   UNL     1       2.197   3.838  19.726  0.00  0.00    +0.000 NA
ATOM      3  C   UNL     1       1.814   4.113  18.336  0.00  0.00    +0.000 C 
ATOM      4  C   UNL     1       2.573   3.293  17.301  0.00  0.00    +0.000 C 
ATOM      5  C   UNL     1       4.091   3.268  17.527  0.00  0.00    +0.000 C 
ATOM      6  C   UNL     1       4.319   2.743  18.956  0.00  0.00    +0.000 C 
ATOM      7  C   UNL     1       3.617   3.595  20.008  0.00  0.00    +0.000 C 
BRANCH   5   8
ATOM      8  C   UNL     1       4.847   4.550  17.207  0.00  0.00    +0.000 A 
ATOM      9  N   UNL     1       4.438   5.295  16.165  0.00  0.00    +0.000 NA
ATOM     10  O   UNL     1       5.263   6.400  16.116  0.00  0.00    +0.000 OA
ATOM     11  C   UNL     1       6.158   6.346  17.131  0.00  0.00    +0.000 A 
ATOM     12  C   UNL     1       7.141   7.300  17.392  0.00  0.00    +0.000 A 
ATOM     13  C   UNL     1       7.952   7.043  18.496  0.00  0.00    +0.000 A 
ATOM     14  F   UNL     1       8.917   7.916  18.811  0.00  0.00    +0.000 F 
ATOM     15  C   UNL     1       7.778   5.911  19.285  0.00  0.00    +0.000 A 
ATOM     16  C   UNL     1       6.773   4.975  18.991  0.00  0.00    +0.000 A 
ATOM     17  C   UNL     1       5.941   5.194  17.875  0.00  0.00    +0.000 A 
ENDBRANCH   5   8
ENDBRANCH   1   2
BRANCH   1  19
ATOM     18  C   UNL     1       1.163   7.304  20.885  0.00  0.00    +0.000 C 
ATOM     19  C   UNL     1       1.857   6.279  20.365  0.00  0.00    +0.000 C 
BRANCH  18  20
ATOM     20  C   UNL     1       1.380   8.745  20.666  0.00  0.00    +0.000 C 
BRANCH  20  21
ATOM     21  O   UNL     1       1.286   9.388  21.935  0.00  0.00    +0.000 OA
BRANCH  21  30
ATOM     22  C   UNL     1      -2.383  14.754  21.064  0.00  0.00    +0.000 C 
ATOM     23  C   UNL     1      -2.502  13.568  21.972  0.00  0.00    +0.000 A 
ATOM     24  C   UNL     1      -3.516  13.457  22.838  0.00  0.00    +0.000 A 
ATOM     25  C   UNL     1      -3.681  12.320  23.761  0.00  0.00    +0.000 A 
ATOM     26  O   UNL     1      -4.627  12.268  24.529  0.00  0.00    +0.000 OA
ATOM     27  O   UNL     1      -2.715  11.336  23.712  0.00  0.00    +0.000 OA
ATOM     28  C   UNL     1      -1.644  11.432  22.807  0.00  0.00    +0.000 A 
ATOM     29  C   UNL     1      -0.743  10.380  22.846  0.00  0.00    +0.000 A 
ATOM     30  C   UNL     1       0.346  10.377  21.982  0.00  0.00    +0.000 A 
ATOM     31  C   UNL     1       0.519  11.433  21.087  0.00  0.00    +0.000 A 
ATOM     32  C   UNL     1      -0.400  12.490  21.063  0.00  0.00    +0.000 A 
ATOM     33  C   UNL     1      -1.499  12.503  21.927  0.00  0.00    +0.000 A 
ENDBRANCH  21  30
ENDBRANCH  20  21
ENDBRANCH  18  20
ENDBRANCH   1  19
TORSDOF 6
ENDMDL
MODEL 6
REMARK VINA RESULT:      -9.2      6.535     10.283
REMARK  Name = 
REMARK  7 active torsions:
REMARK  status: ('A' for Active; 'I' for Inactive)
REMARK    1  A    between atoms: C_1  and  C_2
REMARK    2  A    between atoms: C_9  and  O_10
REMARK    3  A    between atoms: O_10  and  C_11
REMARK    4  A    between atoms: C_11  and  C_12
REMARK    5  A    between atoms: C_13  and  C_14
REMARK    6  A    between atoms: C_14  and  N_15
REMARK    7  A    between atoms: C_18  and  C_19
REMARK                            x       y       z     vdW  Elec       q    Type
REMARK                         _______ _______ _______ _____ _____    ______ ____
ROOT
ATOM      1  C   UNL     1       1.131   7.822  21.207  0.00  0.00    +0.000 C 
ENDROOT
BRANCH   1   2
ATOM      2  N   UNL     1       1.379   9.106  20.529  0.00  0.00    +0.000 NA
ATOM      3  C   UNL     1       1.512   8.955  19.075  0.00  0.00    +0.000 C 
ATOM      4  C   UNL     1       1.515  10.270  18.305  0.00  0.00    +0.000 C 
ATOM      5  C   UNL     1       0.395  11.232  18.724  0.00  0.00    +0.000 C 
ATOM      6  C   UNL     1       0.544  11.454  20.241  0.00  0.00    +0.000 C 
ATOM      7  C   UNL     1       0.477  10.150  21.029  0.00  0.00    +0.000 C 
BRANCH   5   8
ATOM      8  C   UNL     1      -1.015  10.867  18.285  0.00  0.00    +0.000 A 
ATOM      9  N   UNL     1      -1.174   9.872  17.395  0.00  0.00    +0.000 NA
ATOM     10  O   UNL     1      -2.532   9.726  17.195  0.00  0.00    +0.000 OA
ATOM     11  C   UNL     1      -3.203  10.610  17.972  0.00  0.00    +0.000 A 
ATOM     12  C   UNL     1      -4.591  10.741  18.032  0.00  0.00    +0.000 A 
ATOM     13  C   UNL     1      -5.066  11.715  18.907  0.00  0.00    +0.000 A 
ATOM     14  F   UNL     1      -6.388  11.897  19.020  0.00  0.00    +0.000 F 
ATOM     15  C   UNL     1      -4.206  12.496  19.672  0.00  0.00    +0.000 A 
ATOM     16  C   UNL     1      -2.814  12.331  19.586  0.00  0.00    +0.000 A 
ATOM     17  C   UNL     1      -2.294  11.363  18.703  0.00  0.00    +0.000 A 
ENDBRANCH   5   8
ENDBRANCH   1   2
BRANCH   1  19
ATOM     18  C   UNL     1       1.369   5.310  20.910  0.00  0.00    +0.000 C 
ATOM     19  C   UNL     1       1.442   6.563  20.431  0.00  0.00    +0.000 C 
BRANCH  18  20
ATOM     20  C   UNL     1       1.606   4.050  20.184  0.00  0.00    +0.000 C 
BRANCH  20  21
ATOM     21  O   UNL     1       2.978   3.706  20.362  0.00  0.00    +0.000 OA
BRANCH  21  30
ATOM     22  C   UNL     1       6.049   3.901  14.570  0.00  0.00    +0.000 C 
ATOM     23  C   UNL     1       6.127   4.753  15.800  0.00  0.00    +0.000 A 
ATOM     24  C   UNL     1       6.959   5.799  15.867  0.00  0.00    +0.000 A 
ATOM     25  C   UNL     1       7.086   6.667  17.051  0.00  0.00    +0.000 A 
ATOM     26  O   UNL     1       7.858   7.611  17.056  0.00  0.00    +0.000 OA
ATOM     27  O   UNL     1       6.297   6.352  18.139  0.00  0.00    +0.000 OA
ATOM     28  C   UNL     1       5.415   5.259  18.088  0.00  0.00    +0.000 A 
ATOM     29  C   UNL     1       4.672   5.047  19.238  0.00  0.00    +0.000 A 
ATOM     30  C   UNL     1       3.762   3.997  19.283  0.00  0.00    +0.000 A 
ATOM     31  C   UNL     1       3.610   3.168  18.171  0.00  0.00    +0.000 A 
ATOM     32  C   UNL     1       4.372   3.395  17.018  0.00  0.00    +0.000 A 
ATOM     33  C   UNL     1       5.289   4.449  16.961  0.00  0.00    +0.000 A 
ENDBRANCH  21  30
ENDBRANCH  20  21
ENDBRANCH  18  20
ENDBRANCH   1  19
TORSDOF 6
ENDMDL
MODEL 7
REMARK VINA RESULT:      -9.2      2.434      2.891
REMARK  Name = 
REMARK  7 active torsions:
REMARK  status: ('A' for Active; 'I' for Inactive)
REMARK    1  A    between atoms: C_1  and  C_2
REMARK    2  A    between atoms: C_9  and  O_10
REMARK    3  A    between atoms: O_10  and  C_11
REMARK    4  A    between atoms: C_11  and  C_12
REMARK    5  A    between atoms: C_13  and  C_14
REMARK    6  A    between atoms: C_14  and  N_15
REMARK    7  A    between atoms: C_18  and  C_19
REMARK                            x       y       z     vdW  Elec       q    Type
REMARK                         _______ _______ _______ _____ _____    ______ ____
ROOT
ATOM      1  C   UNL     1       7.949   7.050  18.432  0.00  0.00    +0.000 C 
ENDROOT
BRANCH   1   2
ATOM      2  N   UNL     1       6.983   6.208  17.707  0.00  0.00    +0.000 NA
ATOM      3  C   UNL     1       6.511   5.076  18.513  0.00  0.00    +0.000 C 
ATOM      4  C   UNL     1       5.330   4.325  17.911  0.00  0.00    +0.000 C 
ATOM      5  C   UNL     1       4.202   5.243  17.420  0.00  0.00    +0.000 C 
ATOM      6  C   UNL     1       4.833   6.223  16.414  0.00  0.00    +0.000 C 
ATOM      7  C   UNL     1       5.975   7.028  17.025  0.00  0.00    +0.000 C 
BRANCH   5   8
ATOM      8  C   UNL     1       3.355   5.912  18.492  0.00  0.00    +0.000 A 
ATOM      9  N   UNL     1       3.196   5.285  19.670  0.00  0.00    +0.000 NA
ATOM     10  O   UNL     1       2.422   6.109  20.461  0.00  0.00    +0.000 OA
ATOM     11  C   UNL     1       2.123   7.242  19.782  0.00  0.00    +0.000 A 
ATOM     12  C   UNL     1       1.362   8.302  20.275  0.00  0.00    +0.000 A 
ATOM     13  C   UNL     1       1.185   9.374  19.402  0.00  0.00    +0.000 A 
ATOM     14  F   UNL     1       0.467  10.429  19.806  0.00  0.00    +0.000 F 
ATOM     15  C   UNL     1       1.742   9.380  18.127  0.00  0.00    +0.000 A 
ATOM     16  C   UNL     1       2.507   8.294  17.670  0.00  0.00    +0.000 A 
ATOM     17  C   UNL     1       2.698   7.187  18.520  0.00  0.00    +0.000 A 
ENDBRANCH   5   8
ENDBRANCH   1   2
BRANCH   1  19
ATOM     18  C   UNL     1       8.742   9.459  18.581  0.00  0.00    +0.000 C 
ATOM     19  C   UNL     1       8.179   8.447  17.902  0.00  0.00    +0.000 C 
BRANCH  18  20
ATOM     20  C   UNL     1       9.040  10.818  18.095  0.00  0.00    +0.000 C 
BRANCH  20  21
ATOM     21  O   UNL     1       9.365  11.616  19.230  0.00  0.00    +0.000 OA
BRANCH  21  30
ATOM     22  C   UNL     1      10.942  17.679  17.288  0.00  0.00    +0.000 C 
ATOM     23  C   UNL     1       9.768  17.113  18.027  0.00  0.00    +0.000 A 
ATOM     24  C   UNL     1       8.765  17.897  18.440  0.00  0.00    +0.000 A 
ATOM     25  C   UNL     1       7.591  17.400  19.179  0.00  0.00    +0.000 A 
ATOM     26  O   UNL     1       6.703  18.159  19.529  0.00  0.00    +0.000 OA
ATOM     27  O   UNL     1       7.556  16.048  19.453  0.00  0.00    +0.000 OA
ATOM     28  C   UNL     1       8.599  15.207  19.025  0.00  0.00    +0.000 A 
ATOM     29  C   UNL     1       8.448  13.869  19.353  0.00  0.00    +0.000 A 
ATOM     30  C   UNL     1       9.420  12.954  18.964  0.00  0.00    +0.000 A 
ATOM     31  C   UNL     1      10.535  13.394  18.251  0.00  0.00    +0.000 A 
ATOM     32  C   UNL     1      10.673  14.750  17.931  0.00  0.00    +0.000 A 
ATOM     33  C   UNL     1       9.701  15.679  18.316  0.00  0.00    +0.000 A 
ENDBRANCH  21  30
ENDBRANCH  20  21
ENDBRANCH  18  20
ENDBRANCH   1  19
TORSDOF 6
ENDMDL
MODEL 8
REMARK VINA RESULT:      -9.2      6.135      8.480
REMARK  Name = 
REMARK  7 active torsions:
REMARK  status: ('A' for Active; 'I' for Inactive)
REMARK    1  A    between atoms: C_1  and  C_2
REMARK    2  A    between atoms: C_9  and  O_10
REMARK    3  A    between atoms: O_10  and  C_11
REMARK    4  A    between atoms: C_11  and  C_12
REMARK    5  A    between atoms: C_13  and  C_14
REMARK    6  A    between atoms: C_14  and  N_15
REMARK    7  A    between atoms: C_18  and  C_19
REMARK                            x       y       z     vdW  Elec       q    Type
REMARK                         _______ _______ _______ _____ _____    ______ ____
ROOT
ATOM      1  C   UNL     1       0.999   4.281  20.465  0.00  0.00    +0.000 C 
ENDROOT
BRANCH   1   2
ATOM      2  N   UNL     1       1.805   3.234  19.814  0.00  0.00    +0.000 NA
ATOM      3  C   UNL     1       1.577   3.172  18.365  0.00  0.00    +0.000 C 
ATOM      4  C   UNL     1       2.564   2.289  17.612  0.00  0.00    +0.000 C 
ATOM      5  C   UNL     1       4.030   2.539  17.993  0.00  0.00    +0.000 C 
ATOM      6  C   UNL     1       4.131   2.343  19.517  0.00  0.00    +0.000 C 
ATOM      7  C   UNL     1       3.194   3.268  20.286  0.00  0.00    +0.000 C 
BRANCH   5   8
ATOM      8  C   UNL     1       4.652   3.832  17.489  0.00  0.00    +0.000 A 
ATOM      9  N   UNL     1       4.130   4.414  16.396  0.00  0.00    +0.000 NA
ATOM     10  O   UNL     1       4.851   5.571  16.176  0.00  0.00    +0.000 OA
ATOM     11  C   UNL     1       5.794   5.709  17.137  0.00  0.00    +0.000 A 
ATOM     12  C   UNL     1       6.701   6.765  17.233  0.00  0.00    +0.000 A 
ATOM     13  C   UNL     1       7.583   6.705  18.310  0.00  0.00    +0.000 A 
ATOM     14  F   UNL     1       8.482   7.685  18.468  0.00  0.00    +0.000 F 
ATOM     15  C   UNL     1       7.549   5.661  19.229  0.00  0.00    +0.000 A 
ATOM     16  C   UNL     1       6.617   4.618  19.099  0.00  0.00    +0.000 A 
ATOM     17  C   UNL     1       5.716   4.637  18.016  0.00  0.00    +0.000 A 
ENDBRANCH   5   8
ENDBRANCH   1   2
BRANCH   1  19
ATOM     18  C   UNL     1       1.149   6.816  20.434  0.00  0.00    +0.000 C 
ATOM     19  C   UNL     1       1.670   5.611  20.715  0.00  0.00    +0.000 C 
BRANCH  18  20
ATOM     20  C   UNL     1       1.734   8.141  20.708  0.00  0.00    +0.000 C 
BRANCH  20  21
ATOM     21  O   UNL     1       1.352   8.510  22.031  0.00  0.00    +0.000 OA
BRANCH  21  30
ATOM     22  C   UNL     1      -3.099  13.099  23.497  0.00  0.00    +0.000 C 
ATOM     23  C   UNL     1      -2.067  12.981  22.418  0.00  0.00    +0.000 A 
ATOM     24  C   UNL     1      -1.920  13.936  21.492  0.00  0.00    +0.000 A 
ATOM     25  C   UNL     1      -0.930  13.872  20.402  0.00  0.00    +0.000 A 
ATOM     26  O   UNL     1      -0.836  14.774  19.587  0.00  0.00    +0.000 OA
ATOM     27  O   UNL     1      -0.131  12.748  20.355  0.00  0.00    +0.000 OA
ATOM     28  C   UNL     1      -0.268  11.734  21.320  0.00  0.00    +0.000 A 
ATOM     29  C   UNL     1       0.594  10.659  21.172  0.00  0.00    +0.000 A 
ATOM     30  C   UNL     1       0.545   9.610  22.082  0.00  0.00    +0.000 A 
ATOM     31  C   UNL     1      -0.372   9.651  23.133  0.00  0.00    +0.000 A 
ATOM     32  C   UNL     1      -1.238  10.744  23.265  0.00  0.00    +0.000 A 
ATOM     33  C   UNL     1      -1.197  11.805  22.356  0.00  0.00    +0.000 A 
ENDBRANCH  21  30
ENDBRANCH  20  21
ENDBRANCH  18  20
ENDBRANCH   1  19
TORSDOF 6
ENDMDL
MODEL 9
REMARK VINA RESULT:      -9.1      7.760     11.666
REMARK  Name = 
REMARK  7 active torsions:
REMARK  status: ('A' for Active; 'I' for Inactive)
REMARK    1  A    between atoms: C_1  and  C_2
REMARK    2  A    between atoms: C_9  and  O_10
REMARK    3  A    between atoms: O_10  and  C_11
REMARK    4  A    between atoms: C_11  and  C_12
REMARK    5  A    between atoms: C_13  and  C_14
REMARK    6  A    between atoms: C_14  and  N_15
REMARK    7  A    between atoms: C_18  and  C_19
REMARK                            x       y       z     vdW  Elec       q    Type
REMARK                         _______ _______ _______ _____ _____    ______ ____
ROOT
ATOM      1  C   UNL     1      -0.760  10.118  23.329  0.00  0.00    +0.000 C 
ENDROOT
BRANCH   1   2
ATOM      2  N   UNL     1      -0.989  11.534  22.994  0.00  0.00    +0.000 NA
ATOM      3  C   UNL     1      -0.336  11.926  21.740  0.00  0.00    +0.000 C 
ATOM      4  C   UNL     1      -0.748  13.297  21.219  0.00  0.00    +0.000 C 
ATOM      5  C   UNL     1      -2.266  13.527  21.220  0.00  0.00    +0.000 C 
ATOM      6  C   UNL     1      -2.749  13.290  22.663  0.00  0.00    +0.000 C 
ATOM      7  C   UNL     1      -2.400  11.896  23.172  0.00  0.00    +0.000 C 
BRANCH   5   8
ATOM      8  C   UNL     1      -3.067  12.779  20.165  0.00  0.00    +0.000 A 
ATOM      9  N   UNL     1      -4.390  13.002  20.084  0.00  0.00    +0.000 NA
ATOM     10  O   UNL     1      -4.862  12.232  19.040  0.00  0.00    +0.000 OA
ATOM     11  C   UNL     1      -3.835  11.558  18.471  0.00  0.00    +0.000 A 
ATOM     12  C   UNL     1      -3.942  10.688  17.385  0.00  0.00    +0.000 A 
ATOM     13  C   UNL     1      -2.751  10.106  16.959  0.00  0.00    +0.000 A 
ATOM     14  F   UNL     1      -2.775   9.262  15.920  0.00  0.00    +0.000 F 
ATOM     15  C   UNL     1      -1.536  10.384  17.578  0.00  0.00    +0.000 A 
ATOM     16  C   UNL     1      -1.469  11.269  18.667  0.00  0.00    +0.000 A 
ATOM     17  C   UNL     1      -2.656  11.870  19.134  0.00  0.00    +0.000 A 
ENDBRANCH   5   8
ENDBRANCH   1   2
BRANCH   1  19
ATOM     18  C   UNL     1       0.991   9.327  21.667  0.00  0.00    +0.000 C 
ATOM     19  C   UNL     1      -0.224   9.229  22.230  0.00  0.00    +0.000 C 
BRANCH  18  20
ATOM     20  C   UNL     1       1.583   8.455  20.636  0.00  0.00    +0.000 C 
BRANCH  20  21
ATOM     21  O   UNL     1       1.331   7.107  21.024  0.00  0.00    +0.000 OA
BRANCH  21  30
ATOM     22  C   UNL     1       3.536   1.677  18.078  0.00  0.00    +0.000 C 
ATOM     23  C   UNL     1       3.737   3.139  17.815  0.00  0.00    +0.000 A 
ATOM     24  C   UNL     1       4.507   3.562  16.807  0.00  0.00    +0.000 A 
ATOM     25  C   UNL     1       4.750   4.984  16.506  0.00  0.00    +0.000 A 
ATOM     26  O   UNL     1       5.460   5.315  15.571  0.00  0.00    +0.000 OA
ATOM     27  O   UNL     1       4.143   5.906  17.334  0.00  0.00    +0.000 OA
ATOM     28  C   UNL     1       3.327   5.482  18.398  0.00  0.00    +0.000 A 
ATOM     29  C   UNL     1       2.768   6.499  19.154  0.00  0.00    +0.000 A 
ATOM     30  C   UNL     1       1.937   6.182  20.221  0.00  0.00    +0.000 A 
ATOM     31  C   UNL     1       1.677   4.845  20.520  0.00  0.00    +0.000 A 
ATOM     32  C   UNL     1       2.253   3.829  19.747  0.00  0.00    +0.000 A 
ATOM     33  C   UNL     1       3.091   4.136  18.670  0.00  0.00    +0.000 A 
ENDBRANCH  21  30
ENDBRANCH  20  21
ENDBRANCH  18  20
ENDBRANCH   1  19
TORSDOF 6
ENDMDL
