MODEL 1
REMARK VINA RESULT:      -8.6      0.000      0.000
REMARK  Name = 
REMARK  6 active torsions:
REMARK  status: ('A' for Active; 'I' for Inactive)
REMARK    1  A    between atoms: CB_1  and  CA_2
REMARK    2  A    between atoms: C_9  and  O_10
REMARK    3  A    between atoms: O_10  and  C_11
REMARK    4  A    between atoms: C_11  and  C_12
REMARK    5  A    between atoms: C_16  and  C_17
REMARK    6  A    between atoms: N_27  and  C_28
REMARK                            x       y       z     vdW  Elec       q    Type
REMARK                         _______ _______ _______ _____ _____    ______ ____
ROOT
ATOM      1  CB  ALA A   2      -1.524  10.872  19.622  0.00  0.00    +0.000 C 
ATOM      2  CA  ALA A   2      -0.077  11.122  20.052  0.00  0.00    +0.000 C 
ATOM      3  C   ALA A   2       0.836  10.309  19.126  0.00  0.00    +0.000 C 
ATOM      4  O   ALA A   2       0.915  10.586  17.926  0.00  0.00    +0.000 OA
ATOM      5  N   UNK A   1       1.417   9.185  19.652  0.00  0.00    +0.000 N 
ATOM      6  C   UNK A   1       2.189   8.310  18.796  0.00  0.00    +0.000 C 
ATOM      7  C   UNK A   1       1.996   6.858  19.150  0.00  0.00    +0.000 A 
ATOM      8  C   UNK A   1       2.444   5.893  18.243  0.00  0.00    +0.000 A 
ATOM      9  C   UNK A   1       2.362   4.537  18.548  0.00  0.00    +0.000 A 
ATOM     10  C   UNK A   1       1.762   4.136  19.740  0.00  0.00    +0.000 A 
ATOM     11  C   UNK A   1       1.296   5.089  20.649  0.00  0.00    +0.000 A 
ATOM     12  C   UNK A   1       1.430   6.455  20.371  0.00  0.00    +0.000 A 
ATOM     13  C   UNK A   1       0.906   7.484  21.346  0.00  0.00    +0.000 C 
ATOM     14  C   UNK A   1       1.469   8.888  21.077  0.00  0.00    +0.000 C 
ATOM     15  C   UNK A   1       0.795   9.870  22.040  0.00  0.00    +0.000 C 
ATOM     16  O   UNK A   1       0.879   9.682  23.257  0.00  0.00    +0.000 OA
ATOM     17  N   ALA A   2       0.151  10.978  21.504  0.00  0.00    +0.000 N 
ENDROOT
BRANCH  17  18
ATOM     18  C   UNK A   0      -0.456  11.913  22.457  0.00  0.00    +0.000 C 
ATOM     19  C   UNK A   0      -0.482  13.388  22.067  0.00  0.00    +0.000 C 
ATOM     20  C   UNK A   0      -1.428  14.003  23.087  0.00  0.00    +0.000 C 
ATOM     21  C   UNK A   0      -2.450  12.915  23.417  0.00  0.00    +0.000 C 
ATOM     22  C   UNK A   0      -1.920  11.616  22.805  0.00  0.00    +0.000 C 
ENDBRANCH  17  18
BRANCH   9  23
ATOM     23  O   UNK A   1       2.845   3.540  17.744  0.00  0.00    +0.000 OA
BRANCH  23  24
ATOM     24  C   UNK A   1       4.097   2.990  18.166  0.00  0.00    +0.000 C 
BRANCH  24  25
ATOM     25  C   UNK A   1       5.200   3.954  17.825  0.00  0.00    +0.000 A 
ATOM     26  C   UNK A   1       5.852   4.684  18.827  0.00  0.00    +0.000 A 
ATOM     27  C   UNK A   1       6.892   5.559  18.502  0.00  0.00    +0.000 A 
ATOM     28  C   UNK A   1       7.289   5.699  17.175  0.00  0.00    +0.000 A 
ATOM     29  C   UNK A   1       6.665   4.965  16.169  0.00  0.00    +0.000 A 
ATOM     30  C   UNK A   1       5.620   4.090  16.494  0.00  0.00    +0.000 A 
BRANCH  29  31
ATOM     31  C   UNK A   1       7.071   5.105  14.805  0.00  0.00    +0.000 C 
ATOM     32  N   UNK A   1       7.410   5.220  13.702  0.00  0.00    +0.000 NA
ENDBRANCH  29  31
ENDBRANCH  24  25
ENDBRANCH  23  24
ENDBRANCH   9  23
TORSDOF 5
ENDMDL
MODEL 2
REMARK VINA RESULT:      -8.5      1.062      1.503
REMARK  Name = 
REMARK  6 active torsions:
REMARK  status: ('A' for Active; 'I' for Inactive)
REMARK    1  A    between atoms: CB_1  and  CA_2
REMARK    2  A    between atoms: C_9  and  O_10
REMARK    3  A    between atoms: O_10  and  C_11
REMARK    4  A    between atoms: C_11  and  C_12
REMARK    5  A    between atoms: C_16  and  C_17
REMARK    6  A    between atoms: N_27  and  C_28
REMARK                            x       y       z     vdW  Elec       q    Type
REMARK                         _______ _______ _______ _____ _____    ______ ____
ROOT
ATOM      1  CB  ALA A   2      -1.431  10.746  19.535  0.00  0.00    +0.000 C 
ATOM      2  CA  ALA A   2       0.024  10.986  19.944  0.00  0.00    +0.000 C 
ATOM      3  C   ALA A   2       0.916  10.143  19.024  0.00  0.00    +0.000 C 
ATOM      4  O   ALA A   2       0.984  10.392  17.818  0.00  0.00    +0.000 OA
ATOM      5  N   UNK A   1       1.489   9.022  19.567  0.00  0.00    +0.000 N 
ATOM      6  C   UNK A   1       2.240   8.119  18.721  0.00  0.00    +0.000 C 
ATOM      7  C   UNK A   1       2.033   6.678  19.108  0.00  0.00    +0.000 A 
ATOM      8  C   UNK A   1       2.458   5.689  18.217  0.00  0.00    +0.000 A 
ATOM      9  C   UNK A   1       2.363   4.340  18.551  0.00  0.00    +0.000 A 
ATOM     10  C   UNK A   1       1.772   3.972  19.758  0.00  0.00    +0.000 A 
ATOM     11  C   UNK A   1       1.329   4.950  20.652  0.00  0.00    +0.000 A 
ATOM     12  C   UNK A   1       1.477   6.308  20.344  0.00  0.00    +0.000 A 
ATOM     13  C   UNK A   1       0.977   7.364  21.303  0.00  0.00    +0.000 C 
ATOM     14  C   UNK A   1       1.554   8.755  20.998  0.00  0.00    +0.000 C 
ATOM     15  C   UNK A   1       0.904   9.765  21.947  0.00  0.00    +0.000 C 
ATOM     16  O   UNK A   1       1.000   9.602  23.166  0.00  0.00    +0.000 OA
ATOM     17  N   ALA A   2       0.268  10.870  21.395  0.00  0.00    +0.000 N 
ENDROOT
BRANCH  17  18
ATOM     18  C   UNK A   0      -0.316  11.833  22.335  0.00  0.00    +0.000 C 
ATOM     19  C   UNK A   0      -0.396  13.288  21.884  0.00  0.00    +0.000 C 
ATOM     20  C   UNK A   0      -1.308  13.926  22.920  0.00  0.00    +0.000 C 
ATOM     21  C   UNK A   0      -2.286  12.832  23.346  0.00  0.00    +0.000 C 
ATOM     22  C   UNK A   0      -1.755  11.519  22.765  0.00  0.00    +0.000 C 
ENDBRANCH  17  18
BRANCH   9  23
ATOM     23  O   UNK A   1       2.824   3.321  17.763  0.00  0.00    +0.000 OA
BRANCH  23  24
ATOM     24  C   UNK A   1       4.187   2.957  18.000  0.00  0.00    +0.000 C 
BRANCH  24  25
ATOM     25  C   UNK A   1       5.088   3.904  17.256  0.00  0.00    +0.000 A 
ATOM     26  C   UNK A   1       5.083   3.951  15.856  0.00  0.00    +0.000 A 
ATOM     27  C   UNK A   1       5.905   4.852  15.175  0.00  0.00    +0.000 A 
ATOM     28  C   UNK A   1       6.729   5.715  15.893  0.00  0.00    +0.000 A 
ATOM     29  C   UNK A   1       6.732   5.695  17.286  0.00  0.00    +0.000 A 
ATOM     30  C   UNK A   1       5.909   4.790  17.969  0.00  0.00    +0.000 A 
BRANCH  29  31
ATOM     31  C   UNK A   1       7.575   6.581  18.026  0.00  0.00    +0.000 C 
ATOM     32  N   UNK A   1       8.268   7.294  18.625  0.00  0.00    +0.000 NA
ENDBRANCH  29  31
ENDBRANCH  24  25
ENDBRANCH  23  24
ENDBRANCH   9  23
TORSDOF 5
ENDMDL
MODEL 3
REMARK VINA RESULT:      -8.5      1.764      2.584
REMARK  Name = 
REMARK  6 active torsions:
REMARK  status: ('A' for Active; 'I' for Inactive)
REMARK    1  A    between atoms: CB_1  and  CA_2
REMARK    2  A    between atoms: C_9  and  O_10
REMARK    3  A    between atoms: O_10  and  C_11
REMARK    4  A    between atoms: C_11  and  C_12
REMARK    5  A    between atoms: C_16  and  C_17
REMARK    6  A    between atoms: N_27  and  C_28
REMARK                            x       y       z     vdW  Elec       q    Type
REMARK                         _______ _______ _______ _____ _____    ______ ____
ROOT
ATOM      1  CB  ALA A   2      -3.527  12.012  19.774  0.00  0.00    +0.000 C 
ATOM      2  CA  ALA A   2      -2.272  12.833  20.078  0.00  0.00    +0.000 C 
ATOM      3  C   ALA A   2      -1.174  12.392  19.102  0.00  0.00    +0.000 C 
ATOM      4  O   ALA A   2      -1.288  12.608  17.893  0.00  0.00    +0.000 OA
ATOM      5  N   UNK A   1      -0.163  11.617  19.610  0.00  0.00    +0.000 N 
ATOM      6  C   UNK A   1       0.836  11.068  18.717  0.00  0.00    +0.000 C 
ATOM      7  C   UNK A   1       1.255   9.679  19.125  0.00  0.00    +0.000 A 
ATOM      8  C   UNK A   1       1.989   8.918  18.212  0.00  0.00    +0.000 A 
ATOM      9  C   UNK A   1       2.470   7.657  18.559  0.00  0.00    +0.000 A 
ATOM     10  C   UNK A   1       2.155   7.122  19.806  0.00  0.00    +0.000 A 
ATOM     11  C   UNK A   1       1.410   7.866  20.725  0.00  0.00    +0.000 A 
ATOM     12  C   UNK A   1       0.975   9.157  20.400  0.00  0.00    +0.000 A 
ATOM     13  C   UNK A   1       0.150   9.952  21.386  0.00  0.00    +0.000 C 
ATOM     14  C   UNK A   1       0.094  11.447  21.034  0.00  0.00    +0.000 C 
ATOM     15  C   UNK A   1      -0.851  12.139  22.021  0.00  0.00    +0.000 C 
ATOM     16  O   UNK A   1      -0.621  12.069  23.231  0.00  0.00    +0.000 OA
ATOM     17  N   ALA A   2      -1.913  12.873  21.509  0.00  0.00    +0.000 N 
ENDROOT
BRANCH  17  18
ATOM     18  C   UNK A   0      -2.777  13.548  22.483  0.00  0.00    +0.000 C 
ATOM     19  C   UNK A   0      -3.590  14.740  21.986  0.00  0.00    +0.000 C 
ATOM     20  C   UNK A   0      -4.576  14.988  23.118  0.00  0.00    +0.000 C 
ATOM     21  C   UNK A   0      -4.861  13.617  23.730  0.00  0.00    +0.000 C 
ATOM     22  C   UNK A   0      -3.836  12.649  23.135  0.00  0.00    +0.000 C 
ENDBRANCH  17  18
BRANCH   9  23
ATOM     23  O   UNK A   1       3.255   6.886  17.746  0.00  0.00    +0.000 OA
BRANCH  23  24
ATOM     24  C   UNK A   1       3.717   5.671  18.345  0.00  0.00    +0.000 C 
BRANCH  24  25
ATOM     25  C   UNK A   1       4.997   5.248  17.678  0.00  0.00    +0.000 A 
ATOM     26  C   UNK A   1       6.204   5.223  18.390  0.00  0.00    +0.000 A 
ATOM     27  C   UNK A   1       7.383   4.805  17.768  0.00  0.00    +0.000 A 
ATOM     28  C   UNK A   1       7.358   4.403  16.436  0.00  0.00    +0.000 A 
ATOM     29  C   UNK A   1       6.163   4.404  15.719  0.00  0.00    +0.000 A 
ATOM     30  C   UNK A   1       4.981   4.825  16.341  0.00  0.00    +0.000 A 
BRANCH  29  31
ATOM     31  C   UNK A   1       6.133   3.990  14.351  0.00  0.00    +0.000 C 
ATOM     32  N   UNK A   1       6.119   3.657  13.239  0.00  0.00    +0.000 NA
ENDBRANCH  29  31
ENDBRANCH  24  25
ENDBRANCH  23  24
ENDBRANCH   9  23
TORSDOF 5
ENDMDL
MODEL 4
REMARK VINA RESULT:      -8.4      1.867      3.363
REMARK  Name = 
REMARK  6 active torsions:
REMARK  status: ('A' for Active; 'I' for Inactive)
REMARK    1  A    between atoms: CB_1  and  CA_2
REMARK    2  A    between atoms: C_9  and  O_10
REMARK    3  A    between atoms: O_10  and  C_11
REMARK    4  A    between atoms: C_11  and  C_12
REMARK    5  A    between atoms: C_16  and  C_17
REMARK    6  A    between atoms: N_27  and  C_28
REMARK                            x       y       z     vdW  Elec       q    Type
REMARK                         _______ _______ _______ _____ _____    ______ ____
ROOT
ATOM      1  CB  ALA A   2      -0.131  13.477  22.364  0.00  0.00    +0.000 C 
ATOM      2  CA  ALA A   2      -1.284  12.506  22.106  0.00  0.00    +0.000 C 
ATOM      3  C   ALA A   2      -0.752  11.081  22.303  0.00  0.00    +0.000 C 
ATOM      4  O   ALA A   2      -0.389  10.697  23.417  0.00  0.00    +0.000 OA
ATOM      5  N   UNK A   1      -0.549  10.330  21.174  0.00  0.00    +0.000 N 
ATOM      6  C   UNK A   1       0.067   9.024  21.284  0.00  0.00    +0.000 C 
ATOM      7  C   UNK A   1       0.991   8.737  20.129  0.00  0.00    +0.000 A 
ATOM      8  C   UNK A   1       1.865   7.652  20.239  0.00  0.00    +0.000 A 
ATOM      9  C   UNK A   1       2.690   7.290  19.177  0.00  0.00    +0.000 A 
ATOM     10  C   UNK A   1       2.693   8.062  18.017  0.00  0.00    +0.000 A 
ATOM     11  C   UNK A   1       1.835   9.159  17.898  0.00  0.00    +0.000 A 
ATOM     12  C   UNK A   1       0.963   9.490  18.943  0.00  0.00    +0.000 A 
ATOM     13  C   UNK A   1       0.051  10.689  18.821  0.00  0.00    +0.000 C 
ATOM     14  C   UNK A   1      -1.079  10.675  19.862  0.00  0.00    +0.000 C 
ATOM     15  C   UNK A   1      -1.872  11.978  19.729  0.00  0.00    +0.000 C 
ATOM     16  O   UNK A   1      -2.392  12.265  18.647  0.00  0.00    +0.000 OA
ATOM     17  N   ALA A   2      -2.026  12.772  20.858  0.00  0.00    +0.000 N 
ENDROOT
BRANCH  17  18
ATOM     18  C   UNK A   0      -2.819  13.996  20.700  0.00  0.00    +0.000 C 
ATOM     19  C   UNK A   0      -3.736  14.387  21.855  0.00  0.00    +0.000 C 
ATOM     20  C   UNK A   0      -4.145  15.811  21.511  0.00  0.00    +0.000 C 
ATOM     21  C   UNK A   0      -2.953  16.421  20.775  0.00  0.00    +0.000 C 
ATOM     22  C   UNK A   0      -1.996  15.269  20.461  0.00  0.00    +0.000 C 
ENDBRANCH  17  18
BRANCH   9  23
ATOM     23  O   UNK A   1       3.516   6.200  19.184  0.00  0.00    +0.000 OA
BRANCH  23  24
ATOM     24  C   UNK A   1       3.370   5.335  18.053  0.00  0.00    +0.000 C 
BRANCH  24  25
ATOM     25  C   UNK A   1       4.727   5.045  17.474  0.00  0.00    +0.000 A 
ATOM     26  C   UNK A   1       5.877   5.110  18.271  0.00  0.00    +0.000 A 
ATOM     27  C   UNK A   1       7.131   4.816  17.730  0.00  0.00    +0.000 A 
ATOM     28  C   UNK A   1       7.237   4.446  16.392  0.00  0.00    +0.000 A 
ATOM     29  C   UNK A   1       6.101   4.357  15.590  0.00  0.00    +0.000 A 
ATOM     30  C   UNK A   1       4.844   4.656  16.132  0.00  0.00    +0.000 A 
BRANCH  29  31
ATOM     31  C   UNK A   1       6.206   3.976  14.216  0.00  0.00    +0.000 C 
ATOM     32  N   UNK A   1       6.292   3.677  13.099  0.00  0.00    +0.000 NA
ENDBRANCH  29  31
ENDBRANCH  24  25
ENDBRANCH  23  24
ENDBRANCH   9  23
TORSDOF 5
ENDMDL
MODEL 5
REMARK VINA RESULT:      -8.4      1.913      3.283
REMARK  Name = 
REMARK  6 active torsions:
REMARK  status: ('A' for Active; 'I' for Inactive)
REMARK    1  A    between atoms: CB_1  and  CA_2
REMARK    2  A    between atoms: C_9  and  O_10
REMARK    3  A    between atoms: O_10  and  C_11
REMARK    4  A    between atoms: C_11  and  C_12
REMARK    5  A    between atoms: C_16  and  C_17
REMARK    6  A    between atoms: N_27  and  C_28
REMARK                            x       y       z     vdW  Elec       q    Type
REMARK                         _______ _______ _______ _____ _____    ______ ____
ROOT
ATOM      1  CB  ALA A   2       1.093  13.545  21.573  0.00  0.00    +0.000 C 
ATOM      2  CA  ALA A   2      -0.217  12.801  21.307  0.00  0.00    +0.000 C 
ATOM      3  C   ALA A   2      -0.010  11.331  21.693  0.00  0.00    +0.000 C 
ATOM      4  O   ALA A   2       0.185  11.015  22.869  0.00  0.00    +0.000 OA
ATOM      5  N   UNK A   1       0.110  10.429  20.668  0.00  0.00    +0.000 N 
ATOM      6  C   UNK A   1       0.429   9.048  20.964  0.00  0.00    +0.000 C 
ATOM      7  C   UNK A   1       1.352   8.449  19.934  0.00  0.00    +0.000 A 
ATOM      8  C   UNK A   1       1.969   7.231  20.232  0.00  0.00    +0.000 A 
ATOM      9  C   UNK A   1       2.772   6.590  19.292  0.00  0.00    +0.000 A 
ATOM     10  C   UNK A   1       3.019   7.206  18.066  0.00  0.00    +0.000 A 
ATOM     11  C   UNK A   1       2.420   8.430  17.760  0.00  0.00    +0.000 A 
ATOM     12  C   UNK A   1       1.565   9.049  18.682  0.00  0.00    +0.000 A 
ATOM     13  C   UNK A   1       0.936  10.384  18.357  0.00  0.00    +0.000 C 
ATOM     14  C   UNK A   1      -0.243  10.718  19.285  0.00  0.00    +0.000 C 
ATOM     15  C   UNK A   1      -0.734  12.129  18.950  0.00  0.00    +0.000 C 
ATOM     16  O   UNK A   1      -1.105  12.386  17.801  0.00  0.00    +0.000 OA
ATOM     17  N   ALA A   2      -0.797  13.063  19.975  0.00  0.00    +0.000 N 
ENDROOT
BRANCH  17  18
ATOM     18  C   UNK A   0      -1.303  14.395  19.624  0.00  0.00    +0.000 C 
ATOM     19  C   UNK A   0      -1.922  15.225  20.745  0.00  0.00    +0.000 C 
ATOM     20  C   UNK A   0      -2.041  16.611  20.130  0.00  0.00    +0.000 C 
ATOM     21  C   UNK A   0      -0.866  16.739  19.161  0.00  0.00    +0.000 C 
ATOM     22  C   UNK A   0      -0.256  15.342  19.023  0.00  0.00    +0.000 C 
ENDBRANCH  17  18
BRANCH   9  23
ATOM     23  O   UNK A   1       3.350   5.365  19.485  0.00  0.00    +0.000 OA
BRANCH  23  24
ATOM     24  C   UNK A   1       3.335   4.514  18.334  0.00  0.00    +0.000 C 
BRANCH  24  25
ATOM     25  C   UNK A   1       4.696   4.525  17.694  0.00  0.00    +0.000 A 
ATOM     26  C   UNK A   1       5.847   4.765  18.457  0.00  0.00    +0.000 A 
ATOM     27  C   UNK A   1       7.108   4.750  17.857  0.00  0.00    +0.000 A 
ATOM     28  C   UNK A   1       7.224   4.485  16.495  0.00  0.00    +0.000 A 
ATOM     29  C   UNK A   1       6.091   4.224  15.727  0.00  0.00    +0.000 A 
ATOM     30  C   UNK A   1       4.826   4.243  16.327  0.00  0.00    +0.000 A 
BRANCH  29  31
ATOM     31  C   UNK A   1       6.207   3.950  14.328  0.00  0.00    +0.000 C 
ATOM     32  N   UNK A   1       6.292   3.721  13.194  0.00  0.00    +0.000 NA
ENDBRANCH  29  31
ENDBRANCH  24  25
ENDBRANCH  23  24
ENDBRANCH   9  23
TORSDOF 5
ENDMDL
MODEL 6
REMARK VINA RESULT:      -8.4      2.298     10.378
REMARK  Name = 
REMARK  6 active torsions:
REMARK  status: ('A' for Active; 'I' for Inactive)
REMARK    1  A    between atoms: CB_1  and  CA_2
REMARK    2  A    between atoms: C_9  and  O_10
REMARK    3  A    between atoms: O_10  and  C_11
REMARK    4  A    between atoms: C_11  and  C_12
REMARK    5  A    between atoms: C_16  and  C_17
REMARK    6  A    between atoms: N_27  and  C_28
REMARK                            x       y       z     vdW  Elec       q    Type
REMARK                         _______ _______ _______ _____ _____    ______ ____
ROOT
ATOM      1  CB  ALA A   2       1.931   3.811  17.737  0.00  0.00    +0.000 C 
ATOM      2  CA  ALA A   2       3.083   4.421  18.538  0.00  0.00    +0.000 C 
ATOM      3  C   ALA A   2       2.478   5.208  19.707  0.00  0.00    +0.000 C 
ATOM      4  O   ALA A   2       1.873   4.622  20.608  0.00  0.00    +0.000 OA
ATOM      5  N   UNK A   1       2.500   6.575  19.616  0.00  0.00    +0.000 N 
ATOM      6  C   UNK A   1       1.836   7.371  20.627  0.00  0.00    +0.000 C 
ATOM      7  C   UNK A   1       1.173   8.590  20.041  0.00  0.00    +0.000 A 
ATOM      8  C   UNK A   1       0.263   9.292  20.837  0.00  0.00    +0.000 A 
ATOM      9  C   UNK A   1      -0.324  10.469  20.379  0.00  0.00    +0.000 A 
ATOM     10  C   UNK A   1      -0.055  10.913  19.086  0.00  0.00    +0.000 A 
ATOM     11  C   UNK A   1       0.842  10.213  18.273  0.00  0.00    +0.000 A 
ATOM     12  C   UNK A   1       1.478   9.061  18.753  0.00  0.00    +0.000 A 
ATOM     13  C   UNK A   1       2.431   8.294  17.865  0.00  0.00    +0.000 C 
ATOM     14  C   UNK A   1       3.310   7.314  18.657  0.00  0.00    +0.000 C 
ATOM     15  C   UNK A   1       4.153   6.511  17.662  0.00  0.00    +0.000 C 
ATOM     16  O   UNK A   1       4.901   7.106  16.881  0.00  0.00    +0.000 OA
ATOM     17  N   ALA A   2       4.084   5.125  17.711  0.00  0.00    +0.000 N 
ENDROOT
BRANCH  17  18
ATOM     18  C   UNK A   0       4.929   4.389  16.764  0.00  0.00    +0.000 C 
ATOM     19  C   UNK A   0       4.781   4.731  15.284  0.00  0.00    +0.000 C 
ATOM     20  C   UNK A   0       5.979   4.047  14.645  0.00  0.00    +0.000 C 
ATOM     21  C   UNK A   0       7.089   4.082  15.695  0.00  0.00    +0.000 C 
ATOM     22  C   UNK A   0       6.438   4.528  17.006  0.00  0.00    +0.000 C 
ENDBRANCH  17  18
BRANCH   9  23
ATOM     23  O   UNK A   1      -1.166  11.247  21.126  0.00  0.00    +0.000 OA
BRANCH  23  24
ATOM     24  C   UNK A   1      -0.663  11.591  22.421  0.00  0.00    +0.000 C 
BRANCH  24  25
ATOM     25  C   UNK A   1      -1.622  12.540  23.087  0.00  0.00    +0.000 A 
ATOM     26  C   UNK A   1      -1.209  13.817  23.486  0.00  0.00    +0.000 A 
ATOM     27  C   UNK A   1      -2.114  14.699  24.081  0.00  0.00    +0.000 A 
ATOM     28  C   UNK A   1      -3.437  14.310  24.272  0.00  0.00    +0.000 A 
ATOM     29  C   UNK A   1      -3.869  13.049  23.863  0.00  0.00    +0.000 A 
ATOM     30  C   UNK A   1      -2.961  12.164  23.269  0.00  0.00    +0.000 A 
BRANCH  29  31
ATOM     31  C   UNK A   1      -5.227  12.646  24.056  0.00  0.00    +0.000 C 
ATOM     32  N   UNK A   1      -6.329  12.324  24.222  0.00  0.00    +0.000 NA
ENDBRANCH  29  31
ENDBRANCH  24  25
ENDBRANCH  23  24
ENDBRANCH   9  23
TORSDOF 5
ENDMDL
MODEL 7
REMARK VINA RESULT:      -8.2      2.905      4.674
REMARK  Name = 
REMARK  6 active torsions:
REMARK  status: ('A' for Active; 'I' for Inactive)
REMARK    1  A    between atoms: CB_1  and  CA_2
REMARK    2  A    between atoms: C_9  and  O_10
REMARK    3  A    between atoms: O_10  and  C_11
REMARK    4  A    between atoms: C_11  and  C_12
REMARK    5  A    between atoms: C_16  and  C_17
REMARK    6  A    between atoms: N_27  and  C_28
REMARK                            x       y       z     vdW  Elec       q    Type
REMARK                         _______ _______ _______ _____ _____    ______ ____
ROOT
ATOM      1  CB  ALA A   2      -0.364  13.394  22.666  0.00  0.00    +0.000 C 
ATOM      2  CA  ALA A   2      -1.464  12.358  22.424  0.00  0.00    +0.000 C 
ATOM      3  C   ALA A   2      -0.822  10.967  22.492  0.00  0.00    +0.000 C 
ATOM      4  O   ALA A   2      -0.355  10.544  23.553  0.00  0.00    +0.000 OA
ATOM      5  N   UNK A   1      -0.650  10.301  21.306  0.00  0.00    +0.000 N 
ATOM      6  C   UNK A   1       0.060   9.039  21.290  0.00  0.00    +0.000 C 
ATOM      7  C   UNK A   1       0.917   8.890  20.059  0.00  0.00    +0.000 A 
ATOM      8  C   UNK A   1       1.869   7.867  20.040  0.00  0.00    +0.000 A 
ATOM      9  C   UNK A   1       2.638   7.630  18.903  0.00  0.00    +0.000 A 
ATOM     10  C   UNK A   1       2.505   8.469  17.798  0.00  0.00    +0.000 A 
ATOM     11  C   UNK A   1       1.568   9.504  17.808  0.00  0.00    +0.000 A 
ATOM     12  C   UNK A   1       0.752   9.708  18.929  0.00  0.00    +0.000 A 
ATOM     13  C   UNK A   1      -0.246  10.843  18.946  0.00  0.00    +0.000 C 
ATOM     14  C   UNK A   1      -1.295  10.684  20.058  0.00  0.00    +0.000 C 
ATOM     15  C   UNK A   1      -2.184  11.931  20.063  0.00  0.00    +0.000 C 
ATOM     16  O   UNK A   1      -2.798  12.243  19.039  0.00  0.00    +0.000 OA
ATOM     17  N   ALA A   2      -2.310  12.643  21.249  0.00  0.00    +0.000 N 
ENDROOT
BRANCH  17  18
ATOM     18  C   UNK A   0      -3.194  13.813  21.224  0.00  0.00    +0.000 C 
ATOM     19  C   UNK A   0      -3.930  14.159  22.516  0.00  0.00    +0.000 C 
ATOM     20  C   UNK A   0      -4.480  15.551  22.243  0.00  0.00    +0.000 C 
ATOM     21  C   UNK A   0      -3.468  16.225  21.318  0.00  0.00    +0.000 C 
ATOM     22  C   UNK A   0      -2.505  15.132  20.850  0.00  0.00    +0.000 C 
ENDBRANCH  17  18
BRANCH   9  23
ATOM     23  O   UNK A   1       3.536   6.605  18.785  0.00  0.00    +0.000 OA
BRANCH  23  24
ATOM     24  C   UNK A   1       3.317   5.750  17.658  0.00  0.00    +0.000 C 
BRANCH  24  25
ATOM     25  C   UNK A   1       3.038   4.354  18.144  0.00  0.00    +0.000 A 
ATOM     26  C   UNK A   1       3.329   3.243  17.343  0.00  0.00    +0.000 A 
ATOM     27  C   UNK A   1       3.088   1.950  17.813  0.00  0.00    +0.000 A 
ATOM     28  C   UNK A   1       2.564   1.763  19.089  0.00  0.00    +0.000 A 
ATOM     29  C   UNK A   1       2.288   2.858  19.907  0.00  0.00    +0.000 A 
ATOM     30  C   UNK A   1       2.526   4.155  19.434  0.00  0.00    +0.000 A 
BRANCH  29  31
ATOM     31  C   UNK A   1       1.751   2.670  21.219  0.00  0.00    +0.000 C 
ATOM     32  N   UNK A   1       1.313   2.508  22.281  0.00  0.00    +0.000 NA
ENDBRANCH  29  31
ENDBRANCH  24  25
ENDBRANCH  23  24
ENDBRANCH   9  23
TORSDOF 5
ENDMDL
MODEL 8
REMARK VINA RESULT:      -8.2      2.610      3.654
REMARK  Name = 
REMARK  6 active torsions:
REMARK  status: ('A' for Active; 'I' for Inactive)
REMARK    1  A    between atoms: CB_1  and  CA_2
REMARK    2  A    between atoms: C_9  and  O_10
REMARK    3  A    between atoms: O_10  and  C_11
REMARK    4  A    between atoms: C_11  and  C_12
REMARK    5  A    between atoms: C_16  and  C_17
REMARK    6  A    between atoms: N_27  and  C_28
REMARK                            x       y       z     vdW  Elec       q    Type
REMARK                         _______ _______ _______ _____ _____    ______ ____
ROOT
ATOM      1  CB  ALA A   2      -3.612  11.912  19.851  0.00  0.00    +0.000 C 
ATOM      2  CA  ALA A   2      -2.350  12.733  20.126  0.00  0.00    +0.000 C 
ATOM      3  C   ALA A   2      -1.277  12.298  19.119  0.00  0.00    +0.000 C 
ATOM      4  O   ALA A   2      -1.423  12.519  17.915  0.00  0.00    +0.000 OA
ATOM      5  N   UNK A   1      -0.253  11.523  19.597  0.00  0.00    +0.000 N 
ATOM      6  C   UNK A   1       0.723  10.978  18.676  0.00  0.00    +0.000 C 
ATOM      7  C   UNK A   1       1.155   9.589  19.067  0.00  0.00    +0.000 A 
ATOM      8  C   UNK A   1       1.865   8.832  18.131  0.00  0.00    +0.000 A 
ATOM      9  C   UNK A   1       2.357   7.571  18.459  0.00  0.00    +0.000 A 
ATOM     10  C   UNK A   1       2.076   7.029  19.712  0.00  0.00    +0.000 A 
ATOM     11  C   UNK A   1       1.354   7.769  20.653  0.00  0.00    +0.000 A 
ATOM     12  C   UNK A   1       0.908   9.061  20.345  0.00  0.00    +0.000 A 
ATOM     13  C   UNK A   1       0.109   9.850  21.357  0.00  0.00    +0.000 C 
ATOM     14  C   UNK A   1       0.042  11.346  21.013  0.00  0.00    +0.000 C 
ATOM     15  C   UNK A   1      -0.877  12.032  22.027  0.00  0.00    +0.000 C 
ATOM     16  O   UNK A   1      -0.616  11.958  23.231  0.00  0.00    +0.000 OA
ATOM     17  N   ALA A   2      -1.953  12.767  21.547  0.00  0.00    +0.000 N 
ENDROOT
BRANCH  17  18
ATOM     18  C   UNK A   0      -2.793  13.437  22.547  0.00  0.00    +0.000 C 
ATOM     19  C   UNK A   0      -3.528  14.700  22.107  0.00  0.00    +0.000 C 
ATOM     20  C   UNK A   0      -4.515  14.943  23.238  0.00  0.00    +0.000 C 
ATOM     21  C   UNK A   0      -4.888  13.559  23.769  0.00  0.00    +0.000 C 
ATOM     22  C   UNK A   0      -3.912  12.567  23.133  0.00  0.00    +0.000 C 
ENDBRANCH  17  18
BRANCH   9  23
ATOM     23  O   UNK A   1       3.121   6.804  17.623  0.00  0.00    +0.000 OA
BRANCH  23  24
ATOM     24  C   UNK A   1       4.221   6.146  18.258  0.00  0.00    +0.000 C 
BRANCH  24  25
ATOM     25  C   UNK A   1       3.909   4.681  18.395  0.00  0.00    +0.000 A 
ATOM     26  C   UNK A   1       3.052   4.042  17.490  0.00  0.00    +0.000 A 
ATOM     27  C   UNK A   1       2.788   2.676  17.611  0.00  0.00    +0.000 A 
ATOM     28  C   UNK A   1       3.387   1.942  18.631  0.00  0.00    +0.000 A 
ATOM     29  C   UNK A   1       4.258   2.559  19.527  0.00  0.00    +0.000 A 
ATOM     30  C   UNK A   1       4.520   3.930  19.408  0.00  0.00    +0.000 A 
BRANCH  29  31
ATOM     31  C   UNK A   1       4.877   1.809  20.576  0.00  0.00    +0.000 C 
ATOM     32  N   UNK A   1       5.388   1.202  21.422  0.00  0.00    +0.000 NA
ENDBRANCH  29  31
ENDBRANCH  24  25
ENDBRANCH  23  24
ENDBRANCH   9  23
TORSDOF 5
ENDMDL
MODEL 9
REMARK VINA RESULT:      -8.1      2.176     10.327
REMARK  Name = 
REMARK  6 active torsions:
REMARK  status: ('A' for Active; 'I' for Inactive)
REMARK    1  A    between atoms: CB_1  and  CA_2
REMARK    2  A    between atoms: C_9  and  O_10
REMARK    3  A    between atoms: O_10  and  C_11
REMARK    4  A    between atoms: C_11  and  C_12
REMARK    5  A    between atoms: C_16  and  C_17
REMARK    6  A    between atoms: N_27  and  C_28
REMARK                            x       y       z     vdW  Elec       q    Type
REMARK                         _______ _______ _______ _____ _____    ______ ____
ROOT
ATOM      1  CB  ALA A   2       3.034   3.103  16.728  0.00  0.00    +0.000 C 
ATOM      2  CA  ALA A   2       4.228   3.770  17.413  0.00  0.00    +0.000 C 
ATOM      3  C   ALA A   2       3.737   4.365  18.739  0.00  0.00    +0.000 C 
ATOM      4  O   ALA A   2       3.347   3.629  19.648  0.00  0.00    +0.000 OA
ATOM      5  N   UNK A   1       3.601   5.727  18.798  0.00  0.00    +0.000 N 
ATOM      6  C   UNK A   1       3.026   6.340  19.977  0.00  0.00    +0.000 C 
ATOM      7  C   UNK A   1       2.155   7.520  19.634  0.00  0.00    +0.000 A 
ATOM      8  C   UNK A   1       1.314   8.029  20.627  0.00  0.00    +0.000 A 
ATOM      9  C   UNK A   1       0.541   9.164  20.394  0.00  0.00    +0.000 A 
ATOM     10  C   UNK A   1       0.554   9.756  19.132  0.00  0.00    +0.000 A 
ATOM     11  C   UNK A   1       1.379   9.248  18.125  0.00  0.00    +0.000 A 
ATOM     12  C   UNK A   1       2.201   8.142  18.375  0.00  0.00    +0.000 A 
ATOM     13  C   UNK A   1       3.075   7.581  17.277  0.00  0.00    +0.000 C 
ATOM     14  C   UNK A   1       4.167   6.645  17.818  0.00  0.00    +0.000 C 
ATOM     15  C   UNK A   1       4.920   6.046  16.627  0.00  0.00    +0.000 C 
ATOM     16  O   UNK A   1       5.469   6.797  15.815  0.00  0.00    +0.000 OA
ATOM     17  N   ALA A   2       5.006   4.663  16.532  0.00  0.00    +0.000 N 
ENDROOT
BRANCH  17  18
ATOM     18  C   UNK A   0       5.763   4.126  15.395  0.00  0.00    +0.000 C 
ATOM     19  C   UNK A   0       5.067   4.113  14.037  0.00  0.00    +0.000 C 
ATOM     20  C   UNK A   0       6.198   3.809  13.067  0.00  0.00    +0.000 C 
ATOM     21  C   UNK A   0       7.451   4.438  13.676  0.00  0.00    +0.000 C 
ATOM     22  C   UNK A   0       7.085   4.848  15.105  0.00  0.00    +0.000 C 
ENDBRANCH  17  18
BRANCH   9  23
ATOM     23  O   UNK A   1      -0.248   9.762  21.338  0.00  0.00    +0.000 OA
BRANCH  23  24
ATOM     24  C   UNK A   1       0.246  11.017  21.817  0.00  0.00    +0.000 C 
BRANCH  24  25
ATOM     25  C   UNK A   1      -0.908  11.964  22.000  0.00  0.00    +0.000 A 
ATOM     26  C   UNK A   1      -1.064  13.077  21.164  0.00  0.00    +0.000 A 
ATOM     27  C   UNK A   1      -2.152  13.937  21.326  0.00  0.00    +0.000 A 
ATOM     28  C   UNK A   1      -3.094  13.682  22.319  0.00  0.00    +0.000 A 
ATOM     29  C   UNK A   1      -2.965  12.568  23.147  0.00  0.00    +0.000 A 
ATOM     30  C   UNK A   1      -1.871  11.707  22.986  0.00  0.00    +0.000 A 
BRANCH  29  31
ATOM     31  C   UNK A   1      -3.931  12.302  24.167  0.00  0.00    +0.000 C 
ATOM     32  N   UNK A   1      -4.722  12.090  24.989  0.00  0.00    +0.000 NA
ENDBRANCH  29  31
ENDBRANCH  24  25
ENDBRANCH  23  24
ENDBRANCH   9  23
TORSDOF 5
ENDMDL
