MODEL 1
REMARK VINA RESULT:      -8.1      0.000      0.000
REMARK  Name = 
REMARK  1 active torsions:
REMARK  status: ('A' for Active; 'I' for Inactive)
REMARK    1  A    between atoms: N_3  and  C_4
REMARK                            x       y       z     vdW  Elec       q    Type
REMARK                         _______ _______ _______ _____ _____    ______ ____
ROOT
ATOM      1  O   UNL     1       4.374   2.529  18.001  0.00  0.00    +0.000 OA
ATOM      2  C   UNL     1       4.317   3.644  18.513  0.00  0.00    +0.000 C 
ATOM      3  N   UNL     1       4.948   4.762  18.010  0.00  0.00    +0.000 N 
ATOM      4  N   UNL     1       3.645   3.853  19.707  0.00  0.00    +0.000 N 
ATOM      5  C   UNL     1       3.152   2.685  20.446  0.00  0.00    +0.000 C 
ATOM      6  C   UNL     1       1.624   2.610  20.394  0.00  0.00    +0.000 C 
ATOM      7  O   UNL     1       1.042   3.836  20.873  0.00  0.00    +0.000 OA
ATOM      8  C   UNL     1       1.465   4.945  20.063  0.00  0.00    +0.000 C 
ATOM      9  C   UNL     1       2.993   5.108  20.098  0.00  0.00    +0.000 C 
ATOM     10  H   UNL     1       5.145   5.486  18.684  0.00  0.00    +0.000 HD
ENDROOT
BRANCH   3  11
ATOM     11  C   UNL     1       5.675   4.810  16.796  0.00  0.00    +0.000 A 
ATOM     12  C   UNL     1       6.850   5.526  16.618  0.00  0.00    +0.000 A 
ATOM     13  N   UNL     1       7.541   5.596  15.453  0.00  0.00    +0.000 NA
ATOM     14  C   UNL     1       7.052   4.940  14.393  0.00  0.00    +0.000 A 
ATOM     15  C   UNL     1       7.725   5.029  13.185  0.00  0.00    +0.000 A 
ATOM     16  C   UNL     1       7.260   4.380  12.038  0.00  0.00    +0.000 A 
ATOM     17  C   UNL     1       6.097   3.621  12.098  0.00  0.00    +0.000 A 
ATOM     18  C   UNL     1       5.405   3.510  13.304  0.00  0.00    +0.000 A 
ATOM     19  C   UNL     1       5.872   4.168  14.459  0.00  0.00    +0.000 A 
ATOM     20  C   UNL     1       5.196   4.100  15.693  0.00  0.00    +0.000 A 
ENDBRANCH   3  11
TORSDOF 1
ENDMDL
MODEL 2
REMARK VINA RESULT:      -7.9      0.961      1.080
REMARK  Name = 
REMARK  1 active torsions:
REMARK  status: ('A' for Active; 'I' for Inactive)
REMARK    1  A    between atoms: N_3  and  C_4
REMARK                            x       y       z     vdW  Elec       q    Type
REMARK                         _______ _______ _______ _____ _____    ______ ____
ROOT
ATOM      1  O   UNL     1       2.969   3.204  16.743  0.00  0.00    +0.000 OA
ATOM      2  C   UNL     1       3.635   3.274  17.772  0.00  0.00    +0.000 C 
ATOM      3  N   UNL     1       4.957   3.663  17.817  0.00  0.00    +0.000 N 
ATOM      4  N   UNL     1       3.107   2.895  18.996  0.00  0.00    +0.000 N 
ATOM      5  C   UNL     1       1.796   2.236  19.018  0.00  0.00    +0.000 C 
ATOM      6  C   UNL     1       0.732   3.157  19.621  0.00  0.00    +0.000 C 
ATOM      7  O   UNL     1       1.133   3.604  20.929  0.00  0.00    +0.000 OA
ATOM      8  C   UNL     1       2.369   4.333  20.855  0.00  0.00    +0.000 C 
ATOM      9  C   UNL     1       3.499   3.456  20.294  0.00  0.00    +0.000 C 
ATOM     10  H   UNL     1       5.479   3.324  18.609  0.00  0.00    +0.000 HD
ENDROOT
BRANCH   3  11
ATOM     11  C   UNL     1       5.710   4.117  16.707  0.00  0.00    +0.000 A 
ATOM     12  C   UNL     1       6.625   5.159  16.759  0.00  0.00    +0.000 A 
ATOM     13  N   UNL     1       7.335   5.615  15.697  0.00  0.00    +0.000 NA
ATOM     14  C   UNL     1       7.131   5.031  14.509  0.00  0.00    +0.000 A 
ATOM     15  C   UNL     1       7.820   5.507  13.405  0.00  0.00    +0.000 A 
ATOM     16  C   UNL     1       7.644   4.951  12.136  0.00  0.00    +0.000 A 
ATOM     17  C   UNL     1       6.761   3.892  11.963  0.00  0.00    +0.000 A 
ATOM     18  C   UNL     1       6.060   3.390  13.059  0.00  0.00    +0.000 A 
ATOM     19  C   UNL     1       6.236   3.953  14.339  0.00  0.00    +0.000 A 
ATOM     20  C   UNL     1       5.536   3.491  15.471  0.00  0.00    +0.000 A 
ENDBRANCH   3  11
TORSDOF 1
ENDMDL
MODEL 3
REMARK VINA RESULT:      -7.6      0.982      1.168
REMARK  Name = 
REMARK  1 active torsions:
REMARK  status: ('A' for Active; 'I' for Inactive)
REMARK    1  A    between atoms: N_3  and  C_4
REMARK                            x       y       z     vdW  Elec       q    Type
REMARK                         _______ _______ _______ _____ _____    ______ ____
ROOT
ATOM      1  O   UNL     1       5.094   4.121  19.278  0.00  0.00    +0.000 OA
ATOM      2  C   UNL     1       4.013   4.446  18.795  0.00  0.00    +0.000 C 
ATOM      3  N   UNL     1       3.842   4.889  17.501  0.00  0.00    +0.000 N 
ATOM      4  N   UNL     1       2.857   4.451  19.560  0.00  0.00    +0.000 N 
ATOM      5  C   UNL     1       2.974   4.235  21.007  0.00  0.00    +0.000 C 
ATOM      6  C   UNL     1       2.408   2.869  21.403  0.00  0.00    +0.000 C 
ATOM      7  O   UNL     1       1.050   2.733  20.946  0.00  0.00    +0.000 OA
ATOM      8  C   UNL     1       0.986   2.849  19.515  0.00  0.00    +0.000 C 
ATOM      9  C   UNL     1       1.503   4.217  19.044  0.00  0.00    +0.000 C 
ATOM     10  H   UNL     1       3.031   5.466  17.346  0.00  0.00    +0.000 HD
ENDROOT
BRANCH   3  11
ATOM     11  C   UNL     1       4.863   4.952  16.521  0.00  0.00    +0.000 A 
ATOM     12  C   UNL     1       6.009   5.724  16.637  0.00  0.00    +0.000 A 
ATOM     13  N   UNL     1       6.981   5.807  15.694  0.00  0.00    +0.000 NA
ATOM     14  C   UNL     1       6.820   5.107  14.563  0.00  0.00    +0.000 A 
ATOM     15  C   UNL     1       7.784   5.208  13.573  0.00  0.00    +0.000 A 
ATOM     16  C   UNL     1       7.670   4.515  12.367  0.00  0.00    +0.000 A 
ATOM     17  C   UNL     1       6.568   3.698  12.141  0.00  0.00    +0.000 A 
ATOM     18  C   UNL     1       5.587   3.574  13.125  0.00  0.00    +0.000 A 
ATOM     19  C   UNL     1       5.701   4.277  14.341  0.00  0.00    +0.000 A 
ATOM     20  C   UNL     1       4.725   4.197  15.354  0.00  0.00    +0.000 A 
ENDBRANCH   3  11
TORSDOF 1
ENDMDL
MODEL 4
REMARK VINA RESULT:      -7.4      3.848      7.597
REMARK  Name = 
REMARK  1 active torsions:
REMARK  status: ('A' for Active; 'I' for Inactive)
REMARK    1  A    between atoms: N_3  and  C_4
REMARK                            x       y       z     vdW  Elec       q    Type
REMARK                         _______ _______ _______ _____ _____    ______ ____
ROOT
ATOM      1  O   UNL     1       1.540   5.126  17.828  0.00  0.00    +0.000 OA
ATOM      2  C   UNL     1       2.637   5.226  18.369  0.00  0.00    +0.000 C 
ATOM      3  N   UNL     1       3.064   6.341  19.059  0.00  0.00    +0.000 N 
ATOM      4  N   UNL     1       3.583   4.217  18.269  0.00  0.00    +0.000 N 
ATOM      5  C   UNL     1       3.319   3.101  17.354  0.00  0.00    +0.000 C 
ATOM      6  C   UNL     1       3.033   1.814  18.130  0.00  0.00    +0.000 C 
ATOM      7  O   UNL     1       4.110   1.522  19.040  0.00  0.00    +0.000 OA
ATOM      8  C   UNL     1       4.272   2.591  19.986  0.00  0.00    +0.000 C 
ATOM      9  C   UNL     1       4.603   3.915  19.279  0.00  0.00    +0.000 C 
ATOM     10  H   UNL     1       4.064   6.456  19.116  0.00  0.00    +0.000 HD
ENDROOT
BRANCH   3  11
ATOM     11  C   UNL     1       2.277   7.489  19.318  0.00  0.00    +0.000 A 
ATOM     12  C   UNL     1       2.051   8.504  18.399  0.00  0.00    +0.000 A 
ATOM     13  N   UNL     1       1.316   9.617  18.645  0.00  0.00    +0.000 NA
ATOM     14  C   UNL     1       0.781   9.759  19.865  0.00  0.00    +0.000 A 
ATOM     15  C   UNL     1       0.059  10.907  20.147  0.00  0.00    +0.000 A 
ATOM     16  C   UNL     1      -0.514  11.123  21.402  0.00  0.00    +0.000 A 
ATOM     17  C   UNL     1      -0.364  10.168  22.402  0.00  0.00    +0.000 A 
ATOM     18  C   UNL     1       0.354   9.001  22.141  0.00  0.00    +0.000 A 
ATOM     19  C   UNL     1       0.934   8.786  20.876  0.00  0.00    +0.000 A 
ATOM     20  C   UNL     1       1.682   7.631  20.573  0.00  0.00    +0.000 A 
ENDBRANCH   3  11
TORSDOF 1
ENDMDL
MODEL 5
REMARK VINA RESULT:      -7.1      4.357      8.377
REMARK  Name = 
REMARK  1 active torsions:
REMARK  status: ('A' for Active; 'I' for Inactive)
REMARK    1  A    between atoms: N_3  and  C_4
REMARK                            x       y       z     vdW  Elec       q    Type
REMARK                         _______ _______ _______ _____ _____    ______ ____
ROOT
ATOM      1  O   UNL     1       1.730   5.550  19.894  0.00  0.00    +0.000 OA
ATOM      2  C   UNL     1       2.575   6.091  19.187  0.00  0.00    +0.000 C 
ATOM      3  N   UNL     1       2.595   7.438  18.893  0.00  0.00    +0.000 N 
ATOM      4  N   UNL     1       3.567   5.353  18.560  0.00  0.00    +0.000 N 
ATOM      5  C   UNL     1       3.485   3.889  18.609  0.00  0.00    +0.000 C 
ATOM      6  C   UNL     1       4.581   3.310  19.507  0.00  0.00    +0.000 C 
ATOM      7  O   UNL     1       5.878   3.763  19.078  0.00  0.00    +0.000 OA
ATOM      8  C   UNL     1       5.956   5.197  19.140  0.00  0.00    +0.000 C 
ATOM      9  C   UNL     1       4.906   5.851  18.228  0.00  0.00    +0.000 C 
ATOM     10  H   UNL     1       3.070   7.687  18.039  0.00  0.00    +0.000 HD
ENDROOT
BRANCH   3  11
ATOM     11  C   UNL     1       1.705   8.402  19.427  0.00  0.00    +0.000 A 
ATOM     12  C   UNL     1       1.158   9.447  18.698  0.00  0.00    +0.000 A 
ATOM     13  N   UNL     1       0.322  10.387  19.206  0.00  0.00    +0.000 NA
ATOM     14  C   UNL     1       0.012  10.313  20.508  0.00  0.00    +0.000 A 
ATOM     15  C   UNL     1      -0.811  11.285  21.053  0.00  0.00    +0.000 A 
ATOM     16  C   UNL     1      -1.162  11.273  22.405  0.00  0.00    +0.000 A 
ATOM     17  C   UNL     1      -0.682  10.265  23.234  0.00  0.00    +0.000 A 
ATOM     18  C   UNL     1       0.142   9.271  22.707  0.00  0.00    +0.000 A 
ATOM     19  C   UNL     1       0.499   9.285  21.344  0.00  0.00    +0.000 A 
ATOM     20  C   UNL     1       1.343   8.313  20.773  0.00  0.00    +0.000 A 
ENDBRANCH   3  11
TORSDOF 1
ENDMDL
MODEL 6
REMARK VINA RESULT:      -7.0      4.358      8.331
REMARK  Name = 
REMARK  1 active torsions:
REMARK  status: ('A' for Active; 'I' for Inactive)
REMARK    1  A    between atoms: N_3  and  C_4
REMARK                            x       y       z     vdW  Elec       q    Type
REMARK                         _______ _______ _______ _____ _____    ______ ____
ROOT
ATOM      1  O   UNL     1       2.480   6.507  17.983  0.00  0.00    +0.000 OA
ATOM      2  C   UNL     1       2.650   5.992  19.085  0.00  0.00    +0.000 C 
ATOM      3  N   UNL     1       2.299   6.582  20.280  0.00  0.00    +0.000 N 
ATOM      4  N   UNL     1       3.287   4.768  19.215  0.00  0.00    +0.000 N 
ATOM      5  C   UNL     1       3.916   4.177  18.028  0.00  0.00    +0.000 C 
ATOM      6  C   UNL     1       3.139   2.947  17.553  0.00  0.00    +0.000 C 
ATOM      7  O   UNL     1       3.001   1.992  18.621  0.00  0.00    +0.000 OA
ATOM      8  C   UNL     1       2.291   2.573  19.727  0.00  0.00    +0.000 C 
ATOM      9  C   UNL     1       3.035   3.796  20.285  0.00  0.00    +0.000 C 
ATOM     10  H   UNL     1       2.814   6.263  21.086  0.00  0.00    +0.000 HD
ENDROOT
BRANCH   3  11
ATOM     11  C   UNL     1       1.618   7.818  20.409  0.00  0.00    +0.000 A 
ATOM     12  C   UNL     1       1.619   8.814  19.444  0.00  0.00    +0.000 A 
ATOM     13  N   UNL     1       0.988  10.008  19.568  0.00  0.00    +0.000 NA
ATOM     14  C   UNL     1       0.328  10.253  20.708  0.00  0.00    +0.000 A 
ATOM     15  C   UNL     1      -0.292  11.482  20.868  0.00  0.00    +0.000 A 
ATOM     16  C   UNL     1      -0.986  11.805  22.036  0.00  0.00    +0.000 A 
ATOM     17  C   UNL     1      -1.065  10.880  23.071  0.00  0.00    +0.000 A 
ATOM     18  C   UNL     1      -0.455   9.633  22.931  0.00  0.00    +0.000 A 
ATOM     19  C   UNL     1       0.247   9.309  21.754  0.00  0.00    +0.000 A 
ATOM     20  C   UNL     1       0.894   8.070  21.576  0.00  0.00    +0.000 A 
ENDBRANCH   3  11
TORSDOF 1
ENDMDL
MODEL 7
REMARK VINA RESULT:      -6.9      4.412      6.192
REMARK  Name = 
REMARK  1 active torsions:
REMARK  status: ('A' for Active; 'I' for Inactive)
REMARK    1  A    between atoms: N_3  and  C_4
REMARK                            x       y       z     vdW  Elec       q    Type
REMARK                         _______ _______ _______ _____ _____    ______ ____
ROOT
ATOM      1  O   UNL     1       1.752   8.252  20.658  0.00  0.00    +0.000 OA
ATOM      2  C   UNL     1       1.571   8.844  19.598  0.00  0.00    +0.000 C 
ATOM      3  N   UNL     1       1.972   8.371  18.366  0.00  0.00    +0.000 N 
ATOM      4  N   UNL     1       0.989  10.102  19.567  0.00  0.00    +0.000 N 
ATOM      5  C   UNL     1       0.755  10.795  20.839  0.00  0.00    +0.000 C 
ATOM      6  C   UNL     1      -0.741  10.866  21.155  0.00  0.00    +0.000 C 
ATOM      7  O   UNL     1      -1.459  11.478  20.068  0.00  0.00    +0.000 OA
ATOM      8  C   UNL     1      -1.290  10.716  18.861  0.00  0.00    +0.000 C 
ATOM      9  C   UNL     1       0.191  10.634  18.458  0.00  0.00    +0.000 C 
ATOM     10  H   UNL     1       2.117   9.075  17.659  0.00  0.00    +0.000 HD
ENDROOT
BRANCH   3  11
ATOM     11  C   UNL     1       2.566   7.106  18.133  0.00  0.00    +0.000 A 
ATOM     12  C   UNL     1       3.865   6.926  17.682  0.00  0.00    +0.000 A 
ATOM     13  N   UNL     1       4.435   5.721  17.436  0.00  0.00    +0.000 NA
ATOM     14  C   UNL     1       3.690   4.623  17.627  0.00  0.00    +0.000 A 
ATOM     15  C   UNL     1       4.244   3.384  17.346  0.00  0.00    +0.000 A 
ATOM     16  C   UNL     1       3.517   2.203  17.511  0.00  0.00    +0.000 A 
ATOM     17  C   UNL     1       2.205   2.258  17.970  0.00  0.00    +0.000 A 
ATOM     18  C   UNL     1       1.628   3.493  18.266  0.00  0.00    +0.000 A 
ATOM     19  C   UNL     1       2.361   4.684  18.096  0.00  0.00    +0.000 A 
ATOM     20  C   UNL     1       1.813   5.954  18.365  0.00  0.00    +0.000 A 
ENDBRANCH   3  11
TORSDOF 1
ENDMDL
MODEL 8
REMARK VINA RESULT:      -6.8      3.457      7.359
REMARK  Name = 
REMARK  1 active torsions:
REMARK  status: ('A' for Active; 'I' for Inactive)
REMARK    1  A    between atoms: N_3  and  C_4
REMARK                            x       y       z     vdW  Elec       q    Type
REMARK                         _______ _______ _______ _____ _____    ______ ____
ROOT
ATOM      1  O   UNL     1       5.801   6.608  17.997  0.00  0.00    +0.000 OA
ATOM      2  C   UNL     1       5.081   5.714  17.562  0.00  0.00    +0.000 C 
ATOM      3  N   UNL     1       3.733   5.603  17.829  0.00  0.00    +0.000 N 
ATOM      4  N   UNL     1       5.601   4.681  16.796  0.00  0.00    +0.000 N 
ATOM      5  C   UNL     1       7.058   4.574  16.664  0.00  0.00    +0.000 C 
ATOM      6  C   UNL     1       7.505   4.931  15.244  0.00  0.00    +0.000 C 
ATOM      7  O   UNL     1       6.814   4.118  14.277  0.00  0.00    +0.000 OA
ATOM      8  C   UNL     1       5.395   4.325  14.367  0.00  0.00    +0.000 C 
ATOM      9  C   UNL     1       4.865   3.949  15.760  0.00  0.00    +0.000 C 
ATOM     10  H   UNL     1       3.353   4.673  17.750  0.00  0.00    +0.000 HD
ENDROOT
BRANCH   3  11
ATOM     11  C   UNL     1       2.969   6.541  18.565  0.00  0.00    +0.000 A 
ATOM     12  C   UNL     1       2.535   6.343  19.868  0.00  0.00    +0.000 A 
ATOM     13  N   UNL     1       1.786   7.226  20.573  0.00  0.00    +0.000 NA
ATOM     14  C   UNL     1       1.423   8.365  19.969  0.00  0.00    +0.000 A 
ATOM     15  C   UNL     1       0.626   9.263  20.661  0.00  0.00    +0.000 A 
ATOM     16  C   UNL     1       0.203  10.462  20.083  0.00  0.00    +0.000 A 
ATOM     17  C   UNL     1       0.586  10.776  18.784  0.00  0.00    +0.000 A 
ATOM     18  C   UNL     1       1.394   9.892  18.069  0.00  0.00    +0.000 A 
ATOM     19  C   UNL     1       1.817   8.680  18.651  0.00  0.00    +0.000 A 
ATOM     20  C   UNL     1       2.617   7.749  17.960  0.00  0.00    +0.000 A 
ENDBRANCH   3  11
TORSDOF 1
ENDMDL
MODEL 9
REMARK VINA RESULT:      -6.8      6.483      8.389
REMARK  Name = 
REMARK  1 active torsions:
REMARK  status: ('A' for Active; 'I' for Inactive)
REMARK    1  A    between atoms: N_3  and  C_4
REMARK                            x       y       z     vdW  Elec       q    Type
REMARK                         _______ _______ _______ _____ _____    ______ ____
ROOT
ATOM      1  O   UNL     1       7.400   9.018  17.211  0.00  0.00    +0.000 OA
ATOM      2  C   UNL     1       7.977   8.264  17.990  0.00  0.00    +0.000 C 
ATOM      3  N   UNL     1       8.888   8.676  18.938  0.00  0.00    +0.000 N 
ATOM      4  N   UNL     1       7.795   6.891  17.928  0.00  0.00    +0.000 N 
ATOM      5  C   UNL     1       7.040   6.336  16.799  0.00  0.00    +0.000 C 
ATOM      6  C   UNL     1       5.681   5.803  17.259  0.00  0.00    +0.000 C 
ATOM      7  O   UNL     1       5.847   4.844  18.320  0.00  0.00    +0.000 OA
ATOM      8  C   UNL     1       6.498   5.450  19.448  0.00  0.00    +0.000 C 
ATOM      9  C   UNL     1       7.892   5.975  19.070  0.00  0.00    +0.000 C 
ATOM     10  H   UNL     1       9.550   7.975  19.234  0.00  0.00    +0.000 HD
ENDROOT
BRANCH   3  11
ATOM     11  C   UNL     1       9.227  10.024  19.212  0.00  0.00    +0.000 A 
ATOM     12  C   UNL     1       9.138  10.611  20.465  0.00  0.00    +0.000 A 
ATOM     13  N   UNL     1       9.440  11.906  20.732  0.00  0.00    +0.000 NA
ATOM     14  C   UNL     1       9.836  12.681  19.714  0.00  0.00    +0.000 A 
ATOM     15  C   UNL     1      10.113  14.017  19.960  0.00  0.00    +0.000 A 
ATOM     16  C   UNL     1      10.519  14.881  18.941  0.00  0.00    +0.000 A 
ATOM     17  C   UNL     1      10.654  14.401  17.643  0.00  0.00    +0.000 A 
ATOM     18  C   UNL     1      10.388  13.059  17.370  0.00  0.00    +0.000 A 
ATOM     19  C   UNL     1       9.976  12.189  18.399  0.00  0.00    +0.000 A 
ATOM     20  C   UNL     1       9.679  10.832  18.166  0.00  0.00    +0.000 A 
ENDBRANCH   3  11
TORSDOF 1
ENDMDL
