MODEL 1
REMARK VINA RESULT:      -6.4      0.000      0.000
REMARK  Name = 
REMARK  8 active torsions:
REMARK  status: ('A' for Active; 'I' for Inactive)
REMARK    1  A    between atoms: C_1  and  O_2
REMARK    2  A    between atoms: O_2  and  C_3
REMARK    3  A    between atoms: C_5  and  N_6
REMARK    4  A    between atoms: C_7  and  C_9
REMARK    5  A    between atoms: C_9  and  C_10
REMARK    6  A    between atoms: C_9  and  C_11
REMARK    7  A    between atoms: C_13  and  O_14
REMARK    8  A    between atoms: O_14  and  C_15
REMARK                            x       y       z     vdW  Elec       q    Type
REMARK                         _______ _______ _______ _____ _____    ______ ____
ROOT
ATOM      1  C   UNL     1       5.394   4.453  15.802  0.00  0.00    +0.000 A 
ATOM      2  C   UNL     1       4.258   4.393  16.614  0.00  0.00    +0.000 A 
ATOM      3  C   UNL     1       4.355   4.398  18.008  0.00  0.00    +0.000 A 
ATOM      4  C   UNL     1       5.628   4.487  18.581  0.00  0.00    +0.000 A 
ATOM      5  C   UNL     1       6.778   4.544  17.779  0.00  0.00    +0.000 A 
ATOM      6  C   UNL     1       6.655   4.519  16.388  0.00  0.00    +0.000 A 
ENDROOT
BRANCH   3   7
ATOM      7  N   UNL     1       3.227   4.337  18.863  0.00  0.00    +0.000 N 
ATOM      8  C   UNL     1       2.724   3.191  19.466  0.00  0.00    +0.000 C 
ATOM      9  O   UNL     1       3.240   2.077  19.406  0.00  0.00    +0.000 OA
ATOM     10  H   UNL     1       2.804   5.221  19.117  0.00  0.00    +0.000 HD
BRANCH   8  11
ATOM     11  C   UNL     1       1.454   3.415  20.289  0.00  0.00    +0.000 C 
ATOM     12  C   UNL     1       1.485   2.635  21.602  0.00  0.00    +0.000 C 
ATOM     13  C   UNL     1       1.291   4.911  20.584  0.00  0.00    +0.000 C 
ENDBRANCH   8  11
ENDBRANCH   3   7
BRANCH   1  15
ATOM     14  C   UNL     1       6.081   3.829  13.606  0.00  0.00    +0.000 C 
ATOM     15  O   UNL     1       5.129   4.446  14.458  0.00  0.00    +0.000 OA
ENDBRANCH   1  15
BRANCH   5  16
ATOM     16  O   UNL     1       7.960   4.625  18.469  0.00  0.00    +0.000 OA
ATOM     17  C   UNL     1       8.079   5.681  19.419  0.00  0.00    +0.000 C 
ENDBRANCH   5  16
TORSDOF 4
ENDMDL
MODEL 2
REMARK VINA RESULT:      -6.4      1.068      3.344
REMARK  Name = 
REMARK  8 active torsions:
REMARK  status: ('A' for Active; 'I' for Inactive)
REMARK    1  A    between atoms: C_1  and  O_2
REMARK    2  A    between atoms: O_2  and  C_3
REMARK    3  A    between atoms: C_5  and  N_6
REMARK    4  A    between atoms: C_7  and  C_9
REMARK    5  A    between atoms: C_9  and  C_10
REMARK    6  A    between atoms: C_9  and  C_11
REMARK    7  A    between atoms: C_13  and  O_14
REMARK    8  A    between atoms: O_14  and  C_15
REMARK                            x       y       z     vdW  Elec       q    Type
REMARK                         _______ _______ _______ _____ _____    ______ ____
ROOT
ATOM      1  C   UNL     1       6.785   4.545  17.772  0.00  0.00    +0.000 A 
ATOM      2  C   UNL     1       5.660   4.232  18.541  0.00  0.00    +0.000 A 
ATOM      3  C   UNL     1       4.417   3.987  17.952  0.00  0.00    +0.000 A 
ATOM      4  C   UNL     1       4.325   4.041  16.557  0.00  0.00    +0.000 A 
ATOM      5  C   UNL     1       5.445   4.356  15.772  0.00  0.00    +0.000 A 
ATOM      6  C   UNL     1       6.672   4.615  16.386  0.00  0.00    +0.000 A 
ENDROOT
BRANCH   3   7
ATOM      7  N   UNL     1       3.255   3.671  18.698  0.00  0.00    +0.000 N 
ATOM      8  C   UNL     1       2.619   4.506  19.608  0.00  0.00    +0.000 C 
ATOM      9  O   UNL     1       2.932   5.673  19.833  0.00  0.00    +0.000 OA
ATOM     10  H   UNL     1       2.808   2.788  18.485  0.00  0.00    +0.000 HD
BRANCH   8  11
ATOM     11  C   UNL     1       1.419   3.873  20.314  0.00  0.00    +0.000 C 
ATOM     12  C   UNL     1       0.701   2.865  19.418  0.00  0.00    +0.000 C 
ATOM     13  C   UNL     1       1.885   3.177  21.598  0.00  0.00    +0.000 C 
ENDBRANCH   8  11
ENDBRANCH   3   7
BRANCH   1  15
ATOM     14  C   UNL     1       7.966   5.882  19.352  0.00  0.00    +0.000 C 
ATOM     15  O   UNL     1       7.927   4.749  18.500  0.00  0.00    +0.000 OA
ENDBRANCH   1  15
BRANCH   5  16
ATOM     16  O   UNL     1       5.215   4.377  14.421  0.00  0.00    +0.000 OA
ATOM     17  C   UNL     1       6.233   3.831  13.587  0.00  0.00    +0.000 C 
ENDBRANCH   5  16
TORSDOF 4
ENDMDL
MODEL 3
REMARK VINA RESULT:      -6.3      1.202      1.437
REMARK  Name = 
REMARK  8 active torsions:
REMARK  status: ('A' for Active; 'I' for Inactive)
REMARK    1  A    between atoms: C_1  and  O_2
REMARK    2  A    between atoms: O_2  and  C_3
REMARK    3  A    between atoms: C_5  and  N_6
REMARK    4  A    between atoms: C_7  and  C_9
REMARK    5  A    between atoms: C_9  and  C_10
REMARK    6  A    between atoms: C_9  and  C_11
REMARK    7  A    between atoms: C_13  and  O_14
REMARK    8  A    between atoms: O_14  and  C_15
REMARK                            x       y       z     vdW  Elec       q    Type
REMARK                         _______ _______ _______ _____ _____    ______ ____
ROOT
ATOM      1  C   UNL     1       6.091   4.188  16.124  0.00  0.00    +0.000 A 
ATOM      2  C   UNL     1       4.932   4.010  16.887  0.00  0.00    +0.000 A 
ATOM      3  C   UNL     1       4.740   4.690  18.092  0.00  0.00    +0.000 A 
ATOM      4  C   UNL     1       5.734   5.579  18.515  0.00  0.00    +0.000 A 
ATOM      5  C   UNL     1       6.903   5.765  17.762  0.00  0.00    +0.000 A 
ATOM      6  C   UNL     1       7.080   5.060  16.570  0.00  0.00    +0.000 A 
ENDROOT
BRANCH   3   7
ATOM      7  N   UNL     1       3.581   4.534  18.892  0.00  0.00    +0.000 N 
ATOM      8  C   UNL     1       3.313   3.464  19.737  0.00  0.00    +0.000 C 
ATOM      9  O   UNL     1       4.086   2.537  19.969  0.00  0.00    +0.000 OA
ATOM     10  H   UNL     1       2.935   5.313  18.907  0.00  0.00    +0.000 HD
BRANCH   8  11
ATOM     11  C   UNL     1       1.952   3.533  20.431  0.00  0.00    +0.000 C 
ATOM     12  C   UNL     1       0.840   2.956  19.557  0.00  0.00    +0.000 C 
ATOM     13  C   UNL     1       2.011   2.768  21.758  0.00  0.00    +0.000 C 
ENDBRANCH   8  11
ENDBRANCH   3   7
BRANCH   1  15
ATOM     14  C   UNL     1       6.441   4.142  13.767  0.00  0.00    +0.000 C 
ATOM     15  O   UNL     1       6.123   3.456  14.967  0.00  0.00    +0.000 OA
ENDBRANCH   1  15
BRANCH   5  16
ATOM     16  O   UNL     1       7.795   6.661  18.293  0.00  0.00    +0.000 OA
ATOM     17  C   UNL     1       7.822   7.962  17.712  0.00  0.00    +0.000 C 
ENDBRANCH   5  16
TORSDOF 4
ENDMDL
MODEL 4
REMARK VINA RESULT:      -6.2      0.972      1.240
REMARK  Name = 
REMARK  8 active torsions:
REMARK  status: ('A' for Active; 'I' for Inactive)
REMARK    1  A    between atoms: C_1  and  O_2
REMARK    2  A    between atoms: O_2  and  C_3
REMARK    3  A    between atoms: C_5  and  N_6
REMARK    4  A    between atoms: C_7  and  C_9
REMARK    5  A    between atoms: C_9  and  C_10
REMARK    6  A    between atoms: C_9  and  C_11
REMARK    7  A    between atoms: C_13  and  O_14
REMARK    8  A    between atoms: O_14  and  C_15
REMARK                            x       y       z     vdW  Elec       q    Type
REMARK                         _______ _______ _______ _____ _____    ______ ____
ROOT
ATOM      1  C   UNL     1       6.088   4.079  16.127  0.00  0.00    +0.000 A 
ATOM      2  C   UNL     1       4.858   3.841  16.748  0.00  0.00    +0.000 A 
ATOM      3  C   UNL     1       4.611   4.250  18.060  0.00  0.00    +0.000 A 
ATOM      4  C   UNL     1       5.625   4.931  18.743  0.00  0.00    +0.000 A 
ATOM      5  C   UNL     1       6.866   5.175  18.134  0.00  0.00    +0.000 A 
ATOM      6  C   UNL     1       7.095   4.739  16.827  0.00  0.00    +0.000 A 
ENDROOT
BRANCH   3   7
ATOM      7  N   UNL     1       3.380   4.025  18.723  0.00  0.00    +0.000 N 
ATOM      8  C   UNL     1       3.058   2.910  19.489  0.00  0.00    +0.000 C 
ATOM      9  O   UNL     1       3.833   1.997  19.765  0.00  0.00    +0.000 OA
ATOM     10  H   UNL     1       2.709   4.783  18.700  0.00  0.00    +0.000 HD
BRANCH   8  11
ATOM     11  C   UNL     1       1.629   2.909  20.033  0.00  0.00    +0.000 C 
ATOM     12  C   UNL     1       1.212   4.290  20.533  0.00  0.00    +0.000 C 
ATOM     13  C   UNL     1       0.662   2.446  18.937  0.00  0.00    +0.000 C 
ENDBRANCH   8  11
ENDBRANCH   3   7
BRANCH   1  15
ATOM     14  C   UNL     1       6.724   4.495  13.868  0.00  0.00    +0.000 C 
ATOM     15  O   UNL     1       6.169   3.622  14.839  0.00  0.00    +0.000 OA
ENDBRANCH   1  15
BRANCH   5  16
ATOM     16  O   UNL     1       7.771   5.847  18.915  0.00  0.00    +0.000 OA
ATOM     17  C   UNL     1       8.109   7.171  18.510  0.00  0.00    +0.000 C 
ENDBRANCH   5  16
TORSDOF 4
ENDMDL
MODEL 5
REMARK VINA RESULT:      -6.2      1.998      5.548
REMARK  Name = 
REMARK  8 active torsions:
REMARK  status: ('A' for Active; 'I' for Inactive)
REMARK    1  A    between atoms: C_1  and  O_2
REMARK    2  A    between atoms: O_2  and  C_3
REMARK    3  A    between atoms: C_5  and  N_6
REMARK    4  A    between atoms: C_7  and  C_9
REMARK    5  A    between atoms: C_9  and  C_10
REMARK    6  A    between atoms: C_9  and  C_11
REMARK    7  A    between atoms: C_13  and  O_14
REMARK    8  A    between atoms: O_14  and  C_15
REMARK                            x       y       z     vdW  Elec       q    Type
REMARK                         _______ _______ _______ _____ _____    ______ ____
ROOT
ATOM      1  C   UNL     1       3.587   4.041  18.440  0.00  0.00    +0.000 A 
ATOM      2  C   UNL     1       4.064   3.705  17.169  0.00  0.00    +0.000 A 
ATOM      3  C   UNL     1       5.390   3.940  16.800  0.00  0.00    +0.000 A 
ATOM      4  C   UNL     1       6.249   4.506  17.748  0.00  0.00    +0.000 A 
ATOM      5  C   UNL     1       5.785   4.851  19.027  0.00  0.00    +0.000 A 
ATOM      6  C   UNL     1       4.450   4.623  19.365  0.00  0.00    +0.000 A 
ENDROOT
BRANCH   3   7
ATOM      7  N   UNL     1       5.908   3.616  15.522  0.00  0.00    +0.000 N 
ATOM      8  C   UNL     1       6.166   4.516  14.495  0.00  0.00    +0.000 C 
ATOM      9  O   UNL     1       6.056   5.737  14.583  0.00  0.00    +0.000 OA
ATOM     10  H   UNL     1       6.188   2.654  15.379  0.00  0.00    +0.000 HD
BRANCH   8  11
ATOM     11  C   UNL     1       6.664   3.872  13.201  0.00  0.00    +0.000 C 
ATOM     12  C   UNL     1       5.508   3.384  12.329  0.00  0.00    +0.000 C 
ATOM     13  C   UNL     1       7.508   4.882  12.415  0.00  0.00    +0.000 C 
ENDBRANCH   8  11
ENDBRANCH   3   7
BRANCH   1  15
ATOM     14  C   UNL     1       1.861   2.397  18.434  0.00  0.00    +0.000 C 
ATOM     15  O   UNL     1       2.267   3.740  18.646  0.00  0.00    +0.000 OA
ENDBRANCH   1  15
BRANCH   5  16
ATOM     16  O   UNL     1       6.730   5.400  19.855  0.00  0.00    +0.000 OA
ATOM     17  C   UNL     1       7.947   5.826  19.249  0.00  0.00    +0.000 C 
ENDBRANCH   5  16
TORSDOF 4
ENDMDL
MODEL 6
REMARK VINA RESULT:      -6.1      1.390      1.516
REMARK  Name = 
REMARK  8 active torsions:
REMARK  status: ('A' for Active; 'I' for Inactive)
REMARK    1  A    between atoms: C_1  and  O_2
REMARK    2  A    between atoms: O_2  and  C_3
REMARK    3  A    between atoms: C_5  and  N_6
REMARK    4  A    between atoms: C_7  and  C_9
REMARK    5  A    between atoms: C_9  and  C_10
REMARK    6  A    between atoms: C_9  and  C_11
REMARK    7  A    between atoms: C_13  and  O_14
REMARK    8  A    between atoms: O_14  and  C_15
REMARK                            x       y       z     vdW  Elec       q    Type
REMARK                         _______ _______ _______ _____ _____    ______ ____
ROOT
ATOM      1  C   UNL     1       5.936   4.217  16.259  0.00  0.00    +0.000 A 
ATOM      2  C   UNL     1       4.806   3.852  16.997  0.00  0.00    +0.000 A 
ATOM      3  C   UNL     1       4.685   4.168  18.352  0.00  0.00    +0.000 A 
ATOM      4  C   UNL     1       5.721   4.886  18.958  0.00  0.00    +0.000 A 
ATOM      5  C   UNL     1       6.863   5.257  18.231  0.00  0.00    +0.000 A 
ATOM      6  C   UNL     1       6.969   4.913  16.882  0.00  0.00    +0.000 A 
ENDROOT
BRANCH   3   7
ATOM      7  N   UNL     1       3.557   3.813  19.132  0.00  0.00    +0.000 N 
ATOM      8  C   UNL     1       2.492   4.646  19.452  0.00  0.00    +0.000 C 
ATOM      9  O   UNL     1       2.342   5.791  19.031  0.00  0.00    +0.000 OA
ATOM     10  H   UNL     1       3.488   2.842  19.410  0.00  0.00    +0.000 HD
BRANCH   8  11
ATOM     11  C   UNL     1       1.444   4.009  20.365  0.00  0.00    +0.000 C 
ATOM     12  C   UNL     1       0.705   2.868  19.669  0.00  0.00    +0.000 C 
ATOM     13  C   UNL     1       2.120   3.484  21.637  0.00  0.00    +0.000 C 
ENDBRANCH   8  11
ENDBRANCH   3   7
BRANCH   1  15
ATOM     14  C   UNL     1       6.768   4.508  14.044  0.00  0.00    +0.000 C 
ATOM     15  O   UNL     1       5.898   3.839  14.943  0.00  0.00    +0.000 OA
ENDBRANCH   1  15
BRANCH   5  16
ATOM     16  O   UNL     1       7.803   5.953  18.947  0.00  0.00    +0.000 OA
ATOM     17  C   UNL     1       8.133   7.256  18.477  0.00  0.00    +0.000 C 
ENDBRANCH   5  16
TORSDOF 4
ENDMDL
MODEL 7
REMARK VINA RESULT:      -6.1      0.925      3.102
REMARK  Name = 
REMARK  8 active torsions:
REMARK  status: ('A' for Active; 'I' for Inactive)
REMARK    1  A    between atoms: C_1  and  O_2
REMARK    2  A    between atoms: O_2  and  C_3
REMARK    3  A    between atoms: C_5  and  N_6
REMARK    4  A    between atoms: C_7  and  C_9
REMARK    5  A    between atoms: C_9  and  C_10
REMARK    6  A    between atoms: C_9  and  C_11
REMARK    7  A    between atoms: C_13  and  O_14
REMARK    8  A    between atoms: O_14  and  C_15
REMARK                            x       y       z     vdW  Elec       q    Type
REMARK                         _______ _______ _______ _____ _____    ______ ____
ROOT
ATOM      1  C   UNL     1       6.848   4.760  17.969  0.00  0.00    +0.000 A 
ATOM      2  C   UNL     1       5.683   4.417  18.662  0.00  0.00    +0.000 A 
ATOM      3  C   UNL     1       4.562   3.909  18.001  0.00  0.00    +0.000 A 
ATOM      4  C   UNL     1       4.637   3.728  16.616  0.00  0.00    +0.000 A 
ATOM      5  C   UNL     1       5.799   4.070  15.906  0.00  0.00    +0.000 A 
ATOM      6  C   UNL     1       6.900   4.593  16.587  0.00  0.00    +0.000 A 
ENDROOT
BRANCH   3   7
ATOM      7  N   UNL     1       3.364   3.554  18.669  0.00  0.00    +0.000 N 
ATOM      8  C   UNL     1       3.252   2.642  19.711  0.00  0.00    +0.000 C 
ATOM      9  O   UNL     1       4.196   2.074  20.256  0.00  0.00    +0.000 OA
ATOM     10  H   UNL     1       2.534   4.074  18.413  0.00  0.00    +0.000 HD
BRANCH   8  11
ATOM     11  C   UNL     1       1.821   2.411  20.197  0.00  0.00    +0.000 C 
ATOM     12  C   UNL     1       1.642   2.828  21.655  0.00  0.00    +0.000 C 
ATOM     13  C   UNL     1       0.844   3.198  19.314  0.00  0.00    +0.000 C 
ENDBRANCH   8  11
ENDBRANCH   3   7
BRANCH   1  15
ATOM     14  C   UNL     1       8.073   6.638  18.776  0.00  0.00    +0.000 C 
ATOM     15  O   UNL     1       7.858   5.236  18.762  0.00  0.00    +0.000 OA
ENDBRANCH   1  15
BRANCH   5  16
ATOM     16  O   UNL     1       5.737   3.845  14.555  0.00  0.00    +0.000 OA
ATOM     17  C   UNL     1       6.778   4.408  13.761  0.00  0.00    +0.000 C 
ENDBRANCH   5  16
TORSDOF 4
ENDMDL
MODEL 8
REMARK VINA RESULT:      -6.1      1.335      3.101
REMARK  Name = 
REMARK  8 active torsions:
REMARK  status: ('A' for Active; 'I' for Inactive)
REMARK    1  A    between atoms: C_1  and  O_2
REMARK    2  A    between atoms: O_2  and  C_3
REMARK    3  A    between atoms: C_5  and  N_6
REMARK    4  A    between atoms: C_7  and  C_9
REMARK    5  A    between atoms: C_9  and  C_10
REMARK    6  A    between atoms: C_9  and  C_11
REMARK    7  A    between atoms: C_13  and  O_14
REMARK    8  A    between atoms: O_14  and  C_15
REMARK                            x       y       z     vdW  Elec       q    Type
REMARK                         _______ _______ _______ _____ _____    ______ ____
ROOT
ATOM      1  C   UNL     1       6.951   5.896  17.711  0.00  0.00    +0.000 A 
ATOM      2  C   UNL     1       5.821   5.528  18.447  0.00  0.00    +0.000 A 
ATOM      3  C   UNL     1       4.922   4.568  17.975  0.00  0.00    +0.000 A 
ATOM      4  C   UNL     1       5.191   3.960  16.744  0.00  0.00    +0.000 A 
ATOM      5  C   UNL     1       6.319   4.321  15.992  0.00  0.00    +0.000 A 
ATOM      6  C   UNL     1       7.193   5.296  16.477  0.00  0.00    +0.000 A 
ENDROOT
BRANCH   3   7
ATOM      7  N   UNL     1       3.766   4.172  18.691  0.00  0.00    +0.000 N 
ATOM      8  C   UNL     1       3.699   3.150  19.630  0.00  0.00    +0.000 C 
ATOM      9  O   UNL     1       4.661   2.497  20.031  0.00  0.00    +0.000 OA
ATOM     10  H   UNL     1       2.938   4.740  18.562  0.00  0.00    +0.000 HD
BRANCH   8  11
ATOM     11  C   UNL     1       2.301   2.903  20.198  0.00  0.00    +0.000 C 
ATOM     12  C   UNL     1       2.322   2.772  21.719  0.00  0.00    +0.000 C 
ATOM     13  C   UNL     1       1.372   4.055  19.795  0.00  0.00    +0.000 C 
ENDBRANCH   8  11
ENDBRANCH   3   7
BRANCH   1  15
ATOM     14  C   UNL     1       7.820   8.115  17.692  0.00  0.00    +0.000 C 
ATOM     15  O   UNL     1       7.735   6.843  18.314  0.00  0.00    +0.000 OA
ENDBRANCH   1  15
BRANCH   5  16
ATOM     16  O   UNL     1       6.461   3.650  14.805  0.00  0.00    +0.000 OA
ATOM     17  C   UNL     1       5.648   4.087  13.719  0.00  0.00    +0.000 C 
ENDBRANCH   5  16
TORSDOF 4
ENDMDL
MODEL 9
REMARK VINA RESULT:      -6.1      1.547      1.741
REMARK  Name = 
REMARK  8 active torsions:
REMARK  status: ('A' for Active; 'I' for Inactive)
REMARK    1  A    between atoms: C_1  and  O_2
REMARK    2  A    between atoms: O_2  and  C_3
REMARK    3  A    between atoms: C_5  and  N_6
REMARK    4  A    between atoms: C_7  and  C_9
REMARK    5  A    between atoms: C_9  and  C_10
REMARK    6  A    between atoms: C_9  and  C_11
REMARK    7  A    between atoms: C_13  and  O_14
REMARK    8  A    between atoms: O_14  and  C_15
REMARK                            x       y       z     vdW  Elec       q    Type
REMARK                         _______ _______ _______ _____ _____    ______ ____
ROOT
ATOM      1  C   UNL     1       5.789   4.332  15.681  0.00  0.00    +0.000 A 
ATOM      2  C   UNL     1       4.697   3.896  16.438  0.00  0.00    +0.000 A 
ATOM      3  C   UNL     1       4.174   4.669  17.477  0.00  0.00    +0.000 A 
ATOM      4  C   UNL     1       4.758   5.913  17.734  0.00  0.00    +0.000 A 
ATOM      5  C   UNL     1       5.856   6.363  16.984  0.00  0.00    +0.000 A 
ATOM      6  C   UNL     1       6.373   5.564  15.963  0.00  0.00    +0.000 A 
ENDROOT
BRANCH   3   7
ATOM      7  N   UNL     1       3.072   4.259  18.268  0.00  0.00    +0.000 N 
ATOM      8  C   UNL     1       3.117   3.359  19.326  0.00  0.00    +0.000 C 
ATOM      9  O   UNL     1       4.142   2.853  19.777  0.00  0.00    +0.000 OA
ATOM     10  H   UNL     1       2.192   4.729  18.093  0.00  0.00    +0.000 HD
BRANCH   8  11
ATOM     11  C   UNL     1       1.758   3.058  19.957  0.00  0.00    +0.000 C 
ATOM     12  C   UNL     1       1.124   4.309  20.563  0.00  0.00    +0.000 C 
ATOM     13  C   UNL     1       0.818   2.468  18.899  0.00  0.00    +0.000 C 
ENDBRANCH   8  11
ENDBRANCH   3   7
BRANCH   1  15
ATOM     14  C   UNL     1       6.363   3.991  13.392  0.00  0.00    +0.000 C 
ATOM     15  O   UNL     1       6.176   3.462  14.696  0.00  0.00    +0.000 OA
ENDBRANCH   1  15
BRANCH   5  16
ATOM     16  O   UNL     1       6.333   7.598  17.343  0.00  0.00    +0.000 OA
ATOM     17  C   UNL     1       7.721   7.685  17.654  0.00  0.00    +0.000 C 
ENDBRANCH   5  16
TORSDOF 4
ENDMDL
