MODEL 1
REMARK VINA RESULT:      -6.8      0.000      0.000
REMARK  Name = 
REMARK  7 active torsions:
REMARK  status: ('A' for Active; 'I' for Inactive)
REMARK    1  A    between atoms: C_1  and  C_2
REMARK    2  A    between atoms: C_2  and  C_3
REMARK    3  A    between atoms: C_2  and  N_9
REMARK    4  A    between atoms: C_3  and  C_4
REMARK    5  A    between atoms: N_9  and  C_10
REMARK    6  A    between atoms: C_10  and  C_11
REMARK    7  A    between atoms: C_14  and  N_15
REMARK                            x       y       z     vdW  Elec       q    Type
REMARK                         _______ _______ _______ _____ _____    ______ ____
ROOT
ATOM      1  C   UNL     1       3.263   6.648  17.686  0.00  0.00    +0.000 C 
ENDROOT
BRANCH   1   2
ATOM      2  C   UNL     1       2.462   7.439  18.690  0.00  0.00    +0.000 A 
ATOM      3  C   UNL     1       2.203   6.937  19.970  0.00  0.00    +0.000 A 
ATOM      4  C   UNL     1       1.481   7.691  20.901  0.00  0.00    +0.000 A 
ATOM      5  C   UNL     1       1.011   8.970  20.569  0.00  0.00    +0.000 A 
ATOM      6  C   UNL     1       1.262   9.475  19.287  0.00  0.00    +0.000 A 
ATOM      7  C   UNL     1       1.979   8.715  18.359  0.00  0.00    +0.000 A 
BRANCH   5   8
ATOM      8  N   UNL     1       0.294   9.746  21.523  0.00  0.00    +0.000 N 
ATOM      9  C   UNL     1      -0.459   9.284  22.583  0.00  0.00    +0.000 A 
ATOM     10  C   UNL     1      -0.941  10.399  23.227  0.00  0.00    +0.000 A 
ATOM     11  N   UNL     1      -0.514  11.537  22.605  0.00  0.00    +0.000 NA
ATOM     12  C   UNL     1       0.214  11.122  21.594  0.00  0.00    +0.000 A 
ENDBRANCH   5   8
ENDBRANCH   1   2
BRANCH   1  13
ATOM     13  N   UNL     1       3.556   5.301  18.174  0.00  0.00    +0.000 NA
ATOM     14  H   UNL     1       4.529   5.266  18.474  0.00  0.00    +0.000 HD
BRANCH  13  16
ATOM     15  C   UNL     1       4.695   3.613  16.873  0.00  0.00    +0.000 C 
ATOM     16  C   UNL     1       3.325   4.245  17.163  0.00  0.00    +0.000 C 
BRANCH  16  17
ATOM     17  C   UNL     1       2.306   3.198  17.659  0.00  0.00    +0.000 C 
BRANCH  17  18
ATOM     18  C   UNL     1       2.086   3.184  19.127  0.00  0.00    +0.000 A 
ATOM     19  C   UNL     1       0.956   3.333  19.903  0.00  0.00    +0.000 A 
ATOM     20  C   UNL     1       1.362   3.108  21.239  0.00  0.00    +0.000 A 
ATOM     21  C   UNL     1       2.711   2.849  21.193  0.00  0.00    +0.000 A 
ATOM     22  O   UNL     1       3.162   2.895  19.911  0.00  0.00    +0.000 OA
ENDBRANCH  17  18
ENDBRANCH  16  17
ENDBRANCH  13  16
ENDBRANCH   1  13
TORSDOF 6
ENDMDL
MODEL 2
REMARK VINA RESULT:      -6.8      0.324      1.101
REMARK  Name = 
REMARK  7 active torsions:
REMARK  status: ('A' for Active; 'I' for Inactive)
REMARK    1  A    between atoms: C_1  and  C_2
REMARK    2  A    between atoms: C_2  and  C_3
REMARK    3  A    between atoms: C_2  and  N_9
REMARK    4  A    between atoms: C_3  and  C_4
REMARK    5  A    between atoms: N_9  and  C_10
REMARK    6  A    between atoms: C_10  and  C_11
REMARK    7  A    between atoms: C_14  and  N_15
REMARK                            x       y       z     vdW  Elec       q    Type
REMARK                         _______ _______ _______ _____ _____    ______ ____
ROOT
ATOM      1  C   UNL     1       3.286   6.743  17.760  0.00  0.00    +0.000 C 
ENDROOT
BRANCH   1   2
ATOM      2  C   UNL     1       2.464   7.581  18.708  0.00  0.00    +0.000 A 
ATOM      3  C   UNL     1       1.948   8.822  18.318  0.00  0.00    +0.000 A 
ATOM      4  C   UNL     1       1.165   9.578  19.197  0.00  0.00    +0.000 A 
ATOM      5  C   UNL     1       0.878   9.100  20.484  0.00  0.00    +0.000 A 
ATOM      6  C   UNL     1       1.398   7.861  20.881  0.00  0.00    +0.000 A 
ATOM      7  C   UNL     1       2.184   7.113  20.001  0.00  0.00    +0.000 A 
BRANCH   5   8
ATOM      8  N   UNL     1       0.064   9.860  21.371  0.00  0.00    +0.000 N 
ATOM      9  C   UNL     1      -0.269   9.552  22.674  0.00  0.00    +0.000 A 
ATOM     10  C   UNL     1      -1.054  10.586  23.125  0.00  0.00    +0.000 A 
ATOM     11  N   UNL     1      -1.221  11.525  22.149  0.00  0.00    +0.000 NA
ATOM     12  C   UNL     1      -0.550  11.069  21.116  0.00  0.00    +0.000 A 
ENDBRANCH   5   8
ENDBRANCH   1   2
BRANCH   1  13
ATOM     13  N   UNL     1       3.501   5.395  18.282  0.00  0.00    +0.000 NA
ATOM     14  H   UNL     1       4.456   5.326  18.630  0.00  0.00    +0.000 HD
BRANCH  13  16
ATOM     15  C   UNL     1       4.643   3.679  17.023  0.00  0.00    +0.000 C 
ATOM     16  C   UNL     1       3.277   4.332  17.278  0.00  0.00    +0.000 C 
BRANCH  16  17
ATOM     17  C   UNL     1       2.234   3.303  17.764  0.00  0.00    +0.000 C 
BRANCH  17  18
ATOM     18  C   UNL     1       2.041   3.252  19.235  0.00  0.00    +0.000 A 
ATOM     19  C   UNL     1       0.958   3.517  20.044  0.00  0.00    +0.000 A 
ATOM     20  C   UNL     1       1.354   3.179  21.359  0.00  0.00    +0.000 A 
ATOM     21  C   UNL     1       2.654   2.743  21.268  0.00  0.00    +0.000 A 
ATOM     22  O   UNL     1       3.083   2.786  19.979  0.00  0.00    +0.000 OA
ENDBRANCH  17  18
ENDBRANCH  16  17
ENDBRANCH  13  16
ENDBRANCH   1  13
TORSDOF 6
ENDMDL
MODEL 3
REMARK VINA RESULT:      -6.6      0.999      1.199
REMARK  Name = 
REMARK  7 active torsions:
REMARK  status: ('A' for Active; 'I' for Inactive)
REMARK    1  A    between atoms: C_1  and  C_2
REMARK    2  A    between atoms: C_2  and  C_3
REMARK    3  A    between atoms: C_2  and  N_9
REMARK    4  A    between atoms: C_3  and  C_4
REMARK    5  A    between atoms: N_9  and  C_10
REMARK    6  A    between atoms: C_10  and  C_11
REMARK    7  A    between atoms: C_14  and  N_15
REMARK                            x       y       z     vdW  Elec       q    Type
REMARK                         _______ _______ _______ _____ _____    ______ ____
ROOT
ATOM      1  C   UNL     1       3.176   5.732  17.926  0.00  0.00    +0.000 C 
ENDROOT
BRANCH   1   2
ATOM      2  C   UNL     1       2.502   6.851  18.683  0.00  0.00    +0.000 A 
ATOM      3  C   UNL     1       2.194   6.725  20.041  0.00  0.00    +0.000 A 
ATOM      4  C   UNL     1       1.594   7.779  20.738  0.00  0.00    +0.000 A 
ATOM      5  C   UNL     1       1.297   8.985  20.086  0.00  0.00    +0.000 A 
ATOM      6  C   UNL     1       1.599   9.113  18.724  0.00  0.00    +0.000 A 
ATOM      7  C   UNL     1       2.193   8.055  18.031  0.00  0.00    +0.000 A 
BRANCH   5   8
ATOM      8  N   UNL     1       0.705  10.065  20.800  0.00  0.00    +0.000 N 
ATOM      9  C   UNL     1      -0.410  10.023  21.610  0.00  0.00    +0.000 A 
ATOM     10  C   UNL     1      -0.586  11.299  22.089  0.00  0.00    +0.000 A 
ATOM     11  N   UNL     1       0.379  12.133  21.606  0.00  0.00    +0.000 NA
ATOM     12  C   UNL     1       1.132  11.377  20.839  0.00  0.00    +0.000 A 
ENDBRANCH   5   8
ENDBRANCH   1   2
BRANCH   1  13
ATOM     13  N   UNL     1       2.246   4.641  17.641  0.00  0.00    +0.000 NA
ATOM     14  H   UNL     1       1.807   4.348  18.512  0.00  0.00    +0.000 HD
BRANCH  13  16
ATOM     15  C   UNL     1       4.320   3.898  16.647  0.00  0.00    +0.000 C 
ATOM     16  C   UNL     1       2.890   3.468  17.009  0.00  0.00    +0.000 C 
BRANCH  16  17
ATOM     17  C   UNL     1       2.882   2.242  17.946  0.00  0.00    +0.000 C 
BRANCH  17  18
ATOM     18  C   UNL     1       2.534   2.535  19.359  0.00  0.00    +0.000 A 
ATOM     19  C   UNL     1       3.300   2.839  20.464  0.00  0.00    +0.000 A 
ATOM     20  C   UNL     1       2.390   3.128  21.507  0.00  0.00    +0.000 A 
ATOM     21  C   UNL     1       1.132   2.971  20.976  0.00  0.00    +0.000 A 
ATOM     22  O   UNL     1       1.210   2.607  19.668  0.00  0.00    +0.000 OA
ENDBRANCH  17  18
ENDBRANCH  16  17
ENDBRANCH  13  16
ENDBRANCH   1  13
TORSDOF 6
ENDMDL
MODEL 4
REMARK VINA RESULT:      -6.6      3.090      7.361
REMARK  Name = 
REMARK  7 active torsions:
REMARK  status: ('A' for Active; 'I' for Inactive)
REMARK    1  A    between atoms: C_1  and  C_2
REMARK    2  A    between atoms: C_2  and  C_3
REMARK    3  A    between atoms: C_2  and  N_9
REMARK    4  A    between atoms: C_3  and  C_4
REMARK    5  A    between atoms: N_9  and  C_10
REMARK    6  A    between atoms: C_10  and  C_11
REMARK    7  A    between atoms: C_14  and  N_15
REMARK                            x       y       z     vdW  Elec       q    Type
REMARK                         _______ _______ _______ _____ _____    ______ ____
ROOT
ATOM      1  C   UNL     1       3.665   6.391  19.214  0.00  0.00    +0.000 C 
ENDROOT
BRANCH   1   2
ATOM      2  C   UNL     1       4.284   5.943  17.912  0.00  0.00    +0.000 A 
ATOM      3  C   UNL     1       4.490   6.841  16.860  0.00  0.00    +0.000 A 
ATOM      4  C   UNL     1       5.088   6.419  15.668  0.00  0.00    +0.000 A 
ATOM      5  C   UNL     1       5.499   5.087  15.511  0.00  0.00    +0.000 A 
ATOM      6  C   UNL     1       5.289   4.183  16.559  0.00  0.00    +0.000 A 
ATOM      7  C   UNL     1       4.686   4.608  17.746  0.00  0.00    +0.000 A 
BRANCH   5   8
ATOM      8  N   UNL     1       6.127   4.663  14.305  0.00  0.00    +0.000 N 
ATOM      9  C   UNL     1       5.687   3.694  13.428  0.00  0.00    +0.000 A 
ATOM     10  C   UNL     1       6.610   3.649  12.410  0.00  0.00    +0.000 A 
ATOM     11  N   UNL     1       7.608   4.555  12.624  0.00  0.00    +0.000 NA
ATOM     12  C   UNL     1       7.300   5.142  13.758  0.00  0.00    +0.000 A 
ENDBRANCH   5   8
ENDBRANCH   1   2
BRANCH   1  13
ATOM     13  N   UNL     1       3.422   5.263  20.110  0.00  0.00    +0.000 NA
ATOM     14  H   UNL     1       3.411   4.404  19.561  0.00  0.00    +0.000 HD
BRANCH  13  16
ATOM     15  C   UNL     1       1.610   6.784  20.602  0.00  0.00    +0.000 C 
ATOM     16  C   UNL     1       2.151   5.369  20.860  0.00  0.00    +0.000 C 
BRANCH  16  17
ATOM     17  C   UNL     1       1.143   4.284  20.426  0.00  0.00    +0.000 C 
BRANCH  17  18
ATOM     18  C   UNL     1       1.673   3.284  19.465  0.00  0.00    +0.000 A 
ATOM     19  C   UNL     1       1.421   3.047  18.131  0.00  0.00    +0.000 A 
ATOM     20  C   UNL     1       2.318   2.029  17.734  0.00  0.00    +0.000 A 
ATOM     21  C   UNL     1       3.049   1.704  18.852  0.00  0.00    +0.000 A 
ATOM     22  O   UNL     1       2.662   2.461  19.912  0.00  0.00    +0.000 OA
ENDBRANCH  17  18
ENDBRANCH  16  17
ENDBRANCH  13  16
ENDBRANCH   1  13
TORSDOF 6
ENDMDL
MODEL 5
REMARK VINA RESULT:      -6.5      1.120      1.766
REMARK  Name = 
REMARK  7 active torsions:
REMARK  status: ('A' for Active; 'I' for Inactive)
REMARK    1  A    between atoms: C_1  and  C_2
REMARK    2  A    between atoms: C_2  and  C_3
REMARK    3  A    between atoms: C_2  and  N_9
REMARK    4  A    between atoms: C_3  and  C_4
REMARK    5  A    between atoms: N_9  and  C_10
REMARK    6  A    between atoms: C_10  and  C_11
REMARK    7  A    between atoms: C_14  and  N_15
REMARK                            x       y       z     vdW  Elec       q    Type
REMARK                         _______ _______ _______ _____ _____    ______ ____
ROOT
ATOM      1  C   UNL     1       3.772   5.933  17.809  0.00  0.00    +0.000 C 
ENDROOT
BRANCH   1   2
ATOM      2  C   UNL     1       2.921   7.002  18.451  0.00  0.00    +0.000 A 
ATOM      3  C   UNL     1       2.560   8.159  17.753  0.00  0.00    +0.000 A 
ATOM      4  C   UNL     1       1.749   9.129  18.349  0.00  0.00    +0.000 A 
ATOM      5  C   UNL     1       1.276   8.954  19.658  0.00  0.00    +0.000 A 
ATOM      6  C   UNL     1       1.639   7.800  20.363  0.00  0.00    +0.000 A 
ATOM      7  C   UNL     1       2.455   6.837  19.765  0.00  0.00    +0.000 A 
BRANCH   5   8
ATOM      8  N   UNL     1       0.433   9.933  20.258  0.00  0.00    +0.000 N 
ATOM      9  C   UNL     1       0.502  10.422  21.545  0.00  0.00    +0.000 A 
ATOM     10  C   UNL     1      -0.503  11.354  21.657  0.00  0.00    +0.000 A 
ATOM     11  N   UNL     1      -1.193  11.461  20.485  0.00  0.00    +0.000 NA
ATOM     12  C   UNL     1      -0.621  10.604  19.671  0.00  0.00    +0.000 A 
ENDBRANCH   5   8
ENDBRANCH   1   2
BRANCH   1  13
ATOM     13  N   UNL     1       2.977   4.766  17.433  0.00  0.00    +0.000 NA
ATOM     14  H   UNL     1       2.252   4.624  18.134  0.00  0.00    +0.000 HD
BRANCH  13  16
ATOM     15  C   UNL     1       5.088   3.922  16.616  0.00  0.00    +0.000 C 
ATOM     16  C   UNL     1       3.774   3.526  17.306  0.00  0.00    +0.000 C 
BRANCH  16  17
ATOM     17  C   UNL     1       4.025   2.869  18.680  0.00  0.00    +0.000 C 
BRANCH  17  18
ATOM     18  C   UNL     1       2.865   2.892  19.606  0.00  0.00    +0.000 A 
ATOM     19  C   UNL     1       2.769   2.974  20.979  0.00  0.00    +0.000 A 
ATOM     20  C   UNL     1       1.389   3.067  21.273  0.00  0.00    +0.000 A 
ATOM     21  C   UNL     1       0.735   3.023  20.065  0.00  0.00    +0.000 A 
ATOM     22  O   UNL     1       1.625   2.914  19.044  0.00  0.00    +0.000 OA
ENDBRANCH  17  18
ENDBRANCH  16  17
ENDBRANCH  13  16
ENDBRANCH   1  13
TORSDOF 6
ENDMDL
MODEL 6
REMARK VINA RESULT:      -6.5      0.975      1.438
REMARK  Name = 
REMARK  7 active torsions:
REMARK  status: ('A' for Active; 'I' for Inactive)
REMARK    1  A    between atoms: C_1  and  C_2
REMARK    2  A    between atoms: C_2  and  C_3
REMARK    3  A    between atoms: C_2  and  N_9
REMARK    4  A    between atoms: C_3  and  C_4
REMARK    5  A    between atoms: N_9  and  C_10
REMARK    6  A    between atoms: C_10  and  C_11
REMARK    7  A    between atoms: C_14  and  N_15
REMARK                            x       y       z     vdW  Elec       q    Type
REMARK                         _______ _______ _______ _____ _____    ______ ____
ROOT
ATOM      1  C   UNL     1       3.717   5.944  17.791  0.00  0.00    +0.000 C 
ENDROOT
BRANCH   1   2
ATOM      2  C   UNL     1       2.848   6.943  18.517  0.00  0.00    +0.000 A 
ATOM      3  C   UNL     1       2.439   6.723  19.836  0.00  0.00    +0.000 A 
ATOM      4  C   UNL     1       1.656   7.668  20.507  0.00  0.00    +0.000 A 
ATOM      5  C   UNL     1       1.274   8.857  19.870  0.00  0.00    +0.000 A 
ATOM      6  C   UNL     1       1.677   9.078  18.547  0.00  0.00    +0.000 A 
ATOM      7  C   UNL     1       2.454   8.129  17.879  0.00  0.00    +0.000 A 
BRANCH   5   8
ATOM      8  N   UNL     1       0.494   9.828  20.560  0.00  0.00    +0.000 N 
ATOM      9  C   UNL     1       0.098  11.066  20.099  0.00  0.00    +0.000 A 
ATOM     10  C   UNL     1      -0.646  11.632  21.107  0.00  0.00    +0.000 A 
ATOM     11  N   UNL     1      -0.727  10.790  22.178  0.00  0.00    +0.000 NA
ATOM     12  C   UNL     1      -0.038   9.727  21.829  0.00  0.00    +0.000 A 
ENDBRANCH   5   8
ENDBRANCH   1   2
BRANCH   1  13
ATOM     13  N   UNL     1       2.967   4.743  17.429  0.00  0.00    +0.000 NA
ATOM     14  H   UNL     1       2.286   4.549  18.161  0.00  0.00    +0.000 HD
BRANCH  13  16
ATOM     15  C   UNL     1       5.174   4.061  16.720  0.00  0.00    +0.000 C 
ATOM     16  C   UNL     1       3.822   3.550  17.240  0.00  0.00    +0.000 C 
BRANCH  16  17
ATOM     17  C   UNL     1       3.978   2.749  18.550  0.00  0.00    +0.000 C 
BRANCH  17  18
ATOM     18  C   UNL     1       2.837   2.861  19.493  0.00  0.00    +0.000 A 
ATOM     19  C   UNL     1       2.767   3.061  20.855  0.00  0.00    +0.000 A 
ATOM     20  C   UNL     1       1.394   3.191  21.165  0.00  0.00    +0.000 A 
ATOM     21  C   UNL     1       0.716   3.050  19.978  0.00  0.00    +0.000 A 
ATOM     22  O   UNL     1       1.586   2.846  18.954  0.00  0.00    +0.000 OA
ENDBRANCH  17  18
ENDBRANCH  16  17
ENDBRANCH  13  16
ENDBRANCH   1  13
TORSDOF 6
ENDMDL
MODEL 7
REMARK VINA RESULT:      -6.4      1.004      1.624
REMARK  Name = 
REMARK  7 active torsions:
REMARK  status: ('A' for Active; 'I' for Inactive)
REMARK    1  A    between atoms: C_1  and  C_2
REMARK    2  A    between atoms: C_2  and  C_3
REMARK    3  A    between atoms: C_2  and  N_9
REMARK    4  A    between atoms: C_3  and  C_4
REMARK    5  A    between atoms: N_9  and  C_10
REMARK    6  A    between atoms: C_10  and  C_11
REMARK    7  A    between atoms: C_14  and  N_15
REMARK                            x       y       z     vdW  Elec       q    Type
REMARK                         _______ _______ _______ _____ _____    ______ ____
ROOT
ATOM      1  C   UNL     1       3.858   5.973  17.576  0.00  0.00    +0.000 C 
ENDROOT
BRANCH   1   2
ATOM      2  C   UNL     1       3.006   6.971  18.321  0.00  0.00    +0.000 A 
ATOM      3  C   UNL     1       2.625   8.182  17.732  0.00  0.00    +0.000 A 
ATOM      4  C   UNL     1       1.813   9.087  18.423  0.00  0.00    +0.000 A 
ATOM      5  C   UNL     1       1.361   8.793  19.717  0.00  0.00    +0.000 A 
ATOM      6  C   UNL     1       1.745   7.585  20.313  0.00  0.00    +0.000 A 
ATOM      7  C   UNL     1       2.561   6.687  19.621  0.00  0.00    +0.000 A 
BRANCH   5   8
ATOM      8  N   UNL     1       0.518   9.706  20.413  0.00  0.00    +0.000 N 
ATOM      9  C   UNL     1      -0.337  10.640  19.865  0.00  0.00    +0.000 A 
ATOM     10  C   UNL     1      -0.946  11.270  20.924  0.00  0.00    +0.000 A 
ATOM     11  N   UNL     1      -0.501  10.762  22.109  0.00  0.00    +0.000 NA
ATOM     12  C   UNL     1       0.371   9.836  21.778  0.00  0.00    +0.000 A 
ENDBRANCH   5   8
ENDBRANCH   1   2
BRANCH   1  13
ATOM     13  N   UNL     1       3.125   4.738  17.303  0.00  0.00    +0.000 NA
ATOM     14  H   UNL     1       2.313   4.697  17.917  0.00  0.00    +0.000 HD
BRANCH  13  16
ATOM     15  C   UNL     1       5.144   3.926  18.353  0.00  0.00    +0.000 C 
ATOM     16  C   UNL     1       3.936   3.516  17.497  0.00  0.00    +0.000 C 
BRANCH  16  17
ATOM     17  C   UNL     1       3.118   2.391  18.166  0.00  0.00    +0.000 C 
BRANCH  17  18
ATOM     18  C   UNL     1       2.510   2.751  19.472  0.00  0.00    +0.000 A 
ATOM     19  C   UNL     1       1.305   3.325  19.813  0.00  0.00    +0.000 A 
ATOM     20  C   UNL     1       1.246   3.310  21.226  0.00  0.00    +0.000 A 
ATOM     21  C   UNL     1       2.421   2.740  21.654  0.00  0.00    +0.000 A 
ATOM     22  O   UNL     1       3.199   2.397  20.593  0.00  0.00    +0.000 OA
ENDBRANCH  17  18
ENDBRANCH  16  17
ENDBRANCH  13  16
ENDBRANCH   1  13
TORSDOF 6
ENDMDL
MODEL 8
REMARK VINA RESULT:      -6.4      2.788      4.474
REMARK  Name = 
REMARK  7 active torsions:
REMARK  status: ('A' for Active; 'I' for Inactive)
REMARK    1  A    between atoms: C_1  and  C_2
REMARK    2  A    between atoms: C_2  and  C_3
REMARK    3  A    between atoms: C_2  and  N_9
REMARK    4  A    between atoms: C_3  and  C_4
REMARK    5  A    between atoms: N_9  and  C_10
REMARK    6  A    between atoms: C_10  and  C_11
REMARK    7  A    between atoms: C_14  and  N_15
REMARK                            x       y       z     vdW  Elec       q    Type
REMARK                         _______ _______ _______ _____ _____    ______ ____
ROOT
ATOM      1  C   UNL     1       4.388   4.094  17.010  0.00  0.00    +0.000 C 
ENDROOT
BRANCH   1   2
ATOM      2  C   UNL     1       3.702   5.190  17.788  0.00  0.00    +0.000 A 
ATOM      3  C   UNL     1       3.745   6.520  17.359  0.00  0.00    +0.000 A 
ATOM      4  C   UNL     1       3.083   7.523  18.075  0.00  0.00    +0.000 A 
ATOM      5  C   UNL     1       2.357   7.210  19.233  0.00  0.00    +0.000 A 
ATOM      6  C   UNL     1       2.317   5.880  19.670  0.00  0.00    +0.000 A 
ATOM      7  C   UNL     1       2.985   4.883  18.955  0.00  0.00    +0.000 A 
BRANCH   5   8
ATOM      8  N   UNL     1       1.666   8.228  19.950  0.00  0.00    +0.000 N 
ATOM      9  C   UNL     1       1.366   8.247  21.296  0.00  0.00    +0.000 A 
ATOM     10  C   UNL     1       0.710   9.434  21.526  0.00  0.00    +0.000 A 
ATOM     11  N   UNL     1       0.592  10.151  20.372  0.00  0.00    +0.000 NA
ATOM     12  C   UNL     1       1.165   9.412  19.449  0.00  0.00    +0.000 A 
ENDBRANCH   5   8
ENDBRANCH   1   2
BRANCH   1  13
ATOM     13  N   UNL     1       4.809   4.556  15.689  0.00  0.00    +0.000 NA
ATOM     14  H   UNL     1       4.097   4.295  15.008  0.00  0.00    +0.000 HD
BRANCH  13  16
ATOM     15  C   UNL     1       5.923   3.517  13.813  0.00  0.00    +0.000 C 
ATOM     16  C   UNL     1       6.112   4.003  15.258  0.00  0.00    +0.000 C 
BRANCH  16  17
ATOM     17  C   UNL     1       7.238   5.053  15.365  0.00  0.00    +0.000 C 
BRANCH  17  18
ATOM     18  C   UNL     1       7.413   5.649  16.713  0.00  0.00    +0.000 A 
ATOM     19  C   UNL     1       7.540   5.095  17.969  0.00  0.00    +0.000 A 
ATOM     20  C   UNL     1       7.794   6.170  18.851  0.00  0.00    +0.000 A 
ATOM     21  C   UNL     1       7.794   7.308  18.081  0.00  0.00    +0.000 A 
ATOM     22  O   UNL     1       7.560   7.002  16.777  0.00  0.00    +0.000 OA
ENDBRANCH  17  18
ENDBRANCH  16  17
ENDBRANCH  13  16
ENDBRANCH   1  13
TORSDOF 6
ENDMDL
MODEL 9
REMARK VINA RESULT:      -6.4      1.175      1.575
REMARK  Name = 
REMARK  7 active torsions:
REMARK  status: ('A' for Active; 'I' for Inactive)
REMARK    1  A    between atoms: C_1  and  C_2
REMARK    2  A    between atoms: C_2  and  C_3
REMARK    3  A    between atoms: C_2  and  N_9
REMARK    4  A    between atoms: C_3  and  C_4
REMARK    5  A    between atoms: N_9  and  C_10
REMARK    6  A    between atoms: C_10  and  C_11
REMARK    7  A    between atoms: C_14  and  N_15
REMARK                            x       y       z     vdW  Elec       q    Type
REMARK                         _______ _______ _______ _____ _____    ______ ____
ROOT
ATOM      1  C   UNL     1       3.029   7.380  17.704  0.00  0.00    +0.000 C 
ENDROOT
BRANCH   1   2
ATOM      2  C   UNL     1       2.215   8.156  18.711  0.00  0.00    +0.000 A 
ATOM      3  C   UNL     1       1.992   7.660  20.000  0.00  0.00    +0.000 A 
ATOM      4  C   UNL     1       1.258   8.401  20.932  0.00  0.00    +0.000 A 
ATOM      5  C   UNL     1       0.740   9.659  20.592  0.00  0.00    +0.000 A 
ATOM      6  C   UNL     1       0.956  10.157  19.301  0.00  0.00    +0.000 A 
ATOM      7  C   UNL     1       1.684   9.410  18.372  0.00  0.00    +0.000 A 
BRANCH   5   8
ATOM      8  N   UNL     1       0.011  10.422  21.549  0.00  0.00    +0.000 N 
ATOM      9  C   UNL     1      -0.312  11.761  21.481  0.00  0.00    +0.000 A 
ATOM     10  C   UNL     1      -1.031  12.041  22.619  0.00  0.00    +0.000 A 
ATOM     11  N   UNL     1      -1.166  10.924  23.391  0.00  0.00    +0.000 NA
ATOM     12  C   UNL     1      -0.535   9.976  22.735  0.00  0.00    +0.000 A 
ENDBRANCH   5   8
ENDBRANCH   1   2
BRANCH   1  13
ATOM     13  N   UNL     1       2.776   5.944  17.801  0.00  0.00    +0.000 NA
ATOM     14  H   UNL     1       2.118   5.778  18.562  0.00  0.00    +0.000 HD
BRANCH  13  16
ATOM     15  C   UNL     1       5.184   6.030  17.628  0.00  0.00    +0.000 C 
ATOM     16  C   UNL     1       3.998   5.145  18.039  0.00  0.00    +0.000 C 
BRANCH  16  17
ATOM     17  C   UNL     1       4.105   4.694  19.511  0.00  0.00    +0.000 C 
BRANCH  17  18
ATOM     18  C   UNL     1       2.927   3.951  20.026  0.00  0.00    +0.000 A 
ATOM     19  C   UNL     1       2.499   3.649  21.300  0.00  0.00    +0.000 A 
ATOM     20  C   UNL     1       1.243   3.014  21.155  0.00  0.00    +0.000 A 
ATOM     21  C   UNL     1       0.993   2.960  19.805  0.00  0.00    +0.000 A 
ATOM     22  O   UNL     1       2.014   3.526  19.108  0.00  0.00    +0.000 OA
ENDBRANCH  17  18
ENDBRANCH  16  17
ENDBRANCH  13  16
ENDBRANCH   1  13
TORSDOF 6
ENDMDL
