MODEL 1
REMARK VINA RESULT:      -8.0      0.000      0.000
REMARK  Name = 
REMARK  6 active torsions:
REMARK  status: ('A' for Active; 'I' for Inactive)
REMARK    1  A    between atoms: C_1  and  C_2
REMARK    2  A    between atoms: C_2  and  O_3
REMARK    3  A    between atoms: O_3  and  C_4
REMARK    4  A    between atoms: C_4  and  C_6
REMARK    5  A    between atoms: C_11  and  C_13
REMARK    6  A    between atoms: C_18  and  C_20
REMARK                            x       y       z     vdW  Elec       q    Type
REMARK                         _______ _______ _______ _____ _____    ______ ____
ROOT
ATOM      1  C   UNL     1       2.990   4.744  18.753  0.00  0.00    +0.000 A 
ATOM      2  C   UNL     1       2.703   3.817  19.744  0.00  0.00    +0.000 A 
ATOM      3  S   UNL     1       2.038   4.601  21.116  0.00  0.00    +0.000 S 
ATOM      4  C   UNL     1       2.106   6.084  20.278  0.00  0.00    +0.000 A 
ATOM      5  N   UNL     1       1.557   7.146  20.941  0.00  0.00    +0.000 N 
ATOM      6  C   UNL     1       1.347   8.342  20.302  0.00  0.00    +0.000 C 
ATOM      7  O   UNL     1       1.627   8.594  19.132  0.00  0.00    +0.000 OA
ATOM      8  N   UNL     1       2.656   6.055  19.087  0.00  0.00    +0.000 NA
ATOM      9  H   UNL     1       1.203   7.024  21.880  0.00  0.00    +0.000 HD
ENDROOT
BRANCH   1  15
ATOM     10  C   UNL     1       6.115   4.136  14.052  0.00  0.00    +0.000 A 
ATOM     11  C   UNL     1       7.282   4.757  14.473  0.00  0.00    +0.000 A 
ATOM     12  S   UNL     1       7.046   5.467  16.021  0.00  0.00    +0.000 S 
ATOM     13  C   UNL     1       5.471   4.818  16.061  0.00  0.00    +0.000 A 
ATOM     14  N   UNL     1       4.763   5.048  17.206  0.00  0.00    +0.000 N 
ATOM     15  C   UNL     1       3.585   4.383  17.461  0.00  0.00    +0.000 C 
ATOM     16  O   UNL     1       3.052   3.534  16.751  0.00  0.00    +0.000 OA
ATOM     17  N   UNL     1       5.094   4.159  14.998  0.00  0.00    +0.000 NA
ATOM     18  H   UNL     1       5.138   5.669  17.913  0.00  0.00    +0.000 HD
BRANCH  10  19
ATOM     19  C   UNL     1       5.928   3.565  12.718  0.00  0.00    +0.000 C 
ATOM     20  O   UNL     1       6.857   3.188  12.011  0.00  0.00    +0.000 OA
BRANCH  19  21
ATOM     21  O   UNL     1       4.624   3.614  12.320  0.00  0.00    +0.000 OA
BRANCH  21  23
ATOM     22  C   UNL     1       3.330   3.670  10.310  0.00  0.00    +0.000 C 
ATOM     23  C   UNL     1       4.294   2.853  11.154  0.00  0.00    +0.000 C 
ENDBRANCH  21  23
ENDBRANCH  19  21
ENDBRANCH  10  19
ENDBRANCH   1  15
BRANCH   6  24
ATOM     24  C   UNL     1       0.695   9.353  21.142  0.00  0.00    +0.000 A 
ATOM     25  C   UNL     1      -0.040   9.015  22.262  0.00  0.00    +0.000 A 
ATOM     26  S   UNL     1      -0.692  10.411  22.991  0.00  0.00    +0.000 S 
ATOM     27  C   UNL     1       0.048  11.379  21.781  0.00  0.00    +0.000 A 
ATOM     28  N   UNL     1      -0.132  12.709  21.779  0.00  0.00    +0.000 N 
ATOM     29  N   UNL     1       0.755  10.727  20.881  0.00  0.00    +0.000 NA
ATOM     30  H   UNL     1      -0.928  13.074  22.289  0.00  0.00    +0.000 HD
ATOM     31  H   UNL     1       0.060  13.194  20.913  0.00  0.00    +0.000 HD
ENDBRANCH   6  24
TORSDOF 5
ENDMDL
MODEL 2
REMARK VINA RESULT:      -7.6      3.691      5.430
REMARK  Name = 
REMARK  6 active torsions:
REMARK  status: ('A' for Active; 'I' for Inactive)
REMARK    1  A    between atoms: C_1  and  C_2
REMARK    2  A    between atoms: C_2  and  O_3
REMARK    3  A    between atoms: O_3  and  C_4
REMARK    4  A    between atoms: C_4  and  C_6
REMARK    5  A    between atoms: C_11  and  C_13
REMARK    6  A    between atoms: C_18  and  C_20
REMARK                            x       y       z     vdW  Elec       q    Type
REMARK                         _______ _______ _______ _____ _____    ______ ____
ROOT
ATOM      1  C   UNL     1       1.234   9.152  19.589  0.00  0.00    +0.000 A 
ATOM      2  C   UNL     1       1.429  10.112  18.608  0.00  0.00    +0.000 A 
ATOM      3  S   UNL     1       0.469  11.495  18.932  0.00  0.00    +0.000 S 
ATOM      4  C   UNL     1      -0.071  10.759  20.372  0.00  0.00    +0.000 A 
ATOM      5  N   UNL     1      -0.873  11.543  21.154  0.00  0.00    +0.000 N 
ATOM      6  C   UNL     1      -1.197  11.163  22.432  0.00  0.00    +0.000 C 
ATOM      7  O   UNL     1      -0.843  10.126  22.989  0.00  0.00    +0.000 OA
ATOM      8  N   UNL     1       0.346   9.535  20.593  0.00  0.00    +0.000 NA
ATOM      9  H   UNL     1      -1.146  12.462  20.832  0.00  0.00    +0.000 HD
ENDROOT
BRANCH   1  15
ATOM     10  C   UNL     1       4.264   4.468  18.530  0.00  0.00    +0.000 A 
ATOM     11  C   UNL     1       5.082   4.950  17.519  0.00  0.00    +0.000 A 
ATOM     12  S   UNL     1       4.600   6.541  17.080  0.00  0.00    +0.000 S 
ATOM     13  C   UNL     1       3.428   6.510  18.316  0.00  0.00    +0.000 A 
ATOM     14  N   UNL     1       2.706   7.658  18.478  0.00  0.00    +0.000 N 
ATOM     15  C   UNL     1       1.905   7.846  19.582  0.00  0.00    +0.000 C 
ATOM     16  O   UNL     1       1.755   7.069  20.521  0.00  0.00    +0.000 OA
ATOM     17  N   UNL     1       3.337   5.397  18.994  0.00  0.00    +0.000 NA
ATOM     18  H   UNL     1       2.805   8.413  17.810  0.00  0.00    +0.000 HD
BRANCH  10  19
ATOM     19  C   UNL     1       4.306   3.094  19.030  0.00  0.00    +0.000 C 
ATOM     20  O   UNL     1       4.946   2.757  20.021  0.00  0.00    +0.000 OA
BRANCH  19  21
ATOM     21  O   UNL     1       3.651   2.229  18.203  0.00  0.00    +0.000 OA
BRANCH  21  23
ATOM     22  C   UNL     1       1.379   2.141  18.946  0.00  0.00    +0.000 C 
ATOM     23  C   UNL     1       2.316   2.597  17.840  0.00  0.00    +0.000 C 
ENDBRANCH  21  23
ENDBRANCH  19  21
ENDBRANCH  10  19
ENDBRANCH   1  15
BRANCH   6  24
ATOM     24  C   UNL     1      -2.014  12.148  23.150  0.00  0.00    +0.000 A 
ATOM     25  C   UNL     1      -1.580  13.440  23.375  0.00  0.00    +0.000 A 
ATOM     26  S   UNL     1      -2.743  14.313  24.264  0.00  0.00    +0.000 S 
ATOM     27  C   UNL     1      -3.755  12.926  24.289  0.00  0.00    +0.000 A 
ATOM     28  N   UNL     1      -4.931  12.962  24.934  0.00  0.00    +0.000 N 
ATOM     29  N   UNL     1      -3.284  11.864  23.669  0.00  0.00    +0.000 NA
ATOM     30  H   UNL     1      -5.058  13.682  25.636  0.00  0.00    +0.000 HD
ATOM     31  H   UNL     1      -5.346  12.072  25.177  0.00  0.00    +0.000 HD
ENDBRANCH   6  24
TORSDOF 5
ENDMDL
MODEL 3
REMARK VINA RESULT:      -7.5      0.920      1.014
REMARK  Name = 
REMARK  6 active torsions:
REMARK  status: ('A' for Active; 'I' for Inactive)
REMARK    1  A    between atoms: C_1  and  C_2
REMARK    2  A    between atoms: C_2  and  O_3
REMARK    3  A    between atoms: O_3  and  C_4
REMARK    4  A    between atoms: C_4  and  C_6
REMARK    5  A    between atoms: C_11  and  C_13
REMARK    6  A    between atoms: C_18  and  C_20
REMARK                            x       y       z     vdW  Elec       q    Type
REMARK                         _______ _______ _______ _____ _____    ______ ____
ROOT
ATOM      1  C   UNL     1       3.041   4.900  18.663  0.00  0.00    +0.000 A 
ATOM      2  C   UNL     1       2.795   4.024  19.710  0.00  0.00    +0.000 A 
ATOM      3  S   UNL     1       2.131   4.869  21.047  0.00  0.00    +0.000 S 
ATOM      4  C   UNL     1       2.146   6.302  20.124  0.00  0.00    +0.000 A 
ATOM      5  N   UNL     1       1.580   7.386  20.734  0.00  0.00    +0.000 N 
ATOM      6  C   UNL     1       1.328   8.537  20.032  0.00  0.00    +0.000 C 
ATOM      7  O   UNL     1       1.583   8.729  18.845  0.00  0.00    +0.000 OA
ATOM      8  N   UNL     1       2.678   6.219  18.927  0.00  0.00    +0.000 NA
ATOM      9  H   UNL     1       1.244   7.309  21.685  0.00  0.00    +0.000 HD
ENDROOT
BRANCH   1  15
ATOM     10  C   UNL     1       6.122   4.082  13.965  0.00  0.00    +0.000 A 
ATOM     11  C   UNL     1       7.290   4.727  14.343  0.00  0.00    +0.000 A 
ATOM     12  S   UNL     1       7.066   5.508  15.859  0.00  0.00    +0.000 S 
ATOM     13  C   UNL     1       5.495   4.856  15.945  0.00  0.00    +0.000 A 
ATOM     14  N   UNL     1       4.798   5.137  17.085  0.00  0.00    +0.000 N 
ATOM     15  C   UNL     1       3.625   4.480  17.383  0.00  0.00    +0.000 C 
ATOM     16  O   UNL     1       3.089   3.596  16.720  0.00  0.00    +0.000 OA
ATOM     17  N   UNL     1       5.110   4.146  14.918  0.00  0.00    +0.000 NA
ATOM     18  H   UNL     1       5.177   5.792  17.759  0.00  0.00    +0.000 HD
BRANCH  10  19
ATOM     19  C   UNL     1       5.924   3.448  12.661  0.00  0.00    +0.000 C 
ATOM     20  O   UNL     1       6.848   3.135  11.917  0.00  0.00    +0.000 OA
BRANCH  19  21
ATOM     21  O   UNL     1       4.603   3.358  12.332  0.00  0.00    +0.000 OA
BRANCH  21  23
ATOM     22  C   UNL     1       3.354   3.826  10.347  0.00  0.00    +0.000 C 
ATOM     23  C   UNL     1       4.314   2.860  11.022  0.00  0.00    +0.000 C 
ENDBRANCH  21  23
ENDBRANCH  19  21
ENDBRANCH  10  19
ENDBRANCH   1  15
BRANCH   6  24
ATOM     24  C   UNL     1       0.663   9.578  20.824  0.00  0.00    +0.000 A 
ATOM     25  C   UNL     1       0.836  10.924  20.563  0.00  0.00    +0.000 A 
ATOM     26  S   UNL     1      -0.040  11.865  21.683  0.00  0.00    +0.000 S 
ATOM     27  C   UNL     1      -0.600  10.429  22.441  0.00  0.00    +0.000 A 
ATOM     28  N   UNL     1      -1.390  10.504  23.523  0.00  0.00    +0.000 N 
ATOM     29  N   UNL     1      -0.185   9.300  21.904  0.00  0.00    +0.000 NA
ATOM     30  H   UNL     1      -1.387  11.373  24.045  0.00  0.00    +0.000 HD
ATOM     31  H   UNL     1      -1.451   9.676  24.101  0.00  0.00    +0.000 HD
ENDBRANCH   6  24
TORSDOF 5
ENDMDL
MODEL 4
REMARK VINA RESULT:      -7.5      3.904      5.517
REMARK  Name = 
REMARK  6 active torsions:
REMARK  status: ('A' for Active; 'I' for Inactive)
REMARK    1  A    between atoms: C_1  and  C_2
REMARK    2  A    between atoms: C_2  and  O_3
REMARK    3  A    between atoms: O_3  and  C_4
REMARK    4  A    between atoms: C_4  and  C_6
REMARK    5  A    between atoms: C_11  and  C_13
REMARK    6  A    between atoms: C_18  and  C_20
REMARK                            x       y       z     vdW  Elec       q    Type
REMARK                         _______ _______ _______ _____ _____    ______ ____
ROOT
ATOM      1  C   UNL     1       1.277   9.046  19.629  0.00  0.00    +0.000 A 
ATOM      2  C   UNL     1       1.372   9.868  18.517  0.00  0.00    +0.000 A 
ATOM      3  S   UNL     1       0.503  11.324  18.779  0.00  0.00    +0.000 S 
ATOM      4  C   UNL     1       0.135  10.796  20.358  0.00  0.00    +0.000 A 
ATOM      5  N   UNL     1      -0.535  11.706  21.128  0.00  0.00    +0.000 N 
ATOM      6  C   UNL     1      -0.700  11.503  22.474  0.00  0.00    +0.000 C 
ATOM      7  O   UNL     1      -0.308  10.527  23.110  0.00  0.00    +0.000 OA
ATOM      8  N   UNL     1       0.540   9.591  20.679  0.00  0.00    +0.000 NA
ATOM      9  H   UNL     1      -0.820  12.590  20.727  0.00  0.00    +0.000 HD
ENDROOT
BRANCH   1  15
ATOM     10  C   UNL     1       4.166   4.214  18.885  0.00  0.00    +0.000 A 
ATOM     11  C   UNL     1       5.022   4.615  17.871  0.00  0.00    +0.000 A 
ATOM     12  S   UNL     1       4.606   6.197  17.340  0.00  0.00    +0.000 S 
ATOM     13  C   UNL     1       3.406   6.269  18.547  0.00  0.00    +0.000 A 
ATOM     14  N   UNL     1       2.721   7.448  18.632  0.00  0.00    +0.000 N 
ATOM     15  C   UNL     1       1.903   7.719  19.705  0.00  0.00    +0.000 C 
ATOM     16  O   UNL     1       1.704   6.998  20.679  0.00  0.00    +0.000 OA
ATOM     17  N   UNL     1       3.261   5.197  19.278  0.00  0.00    +0.000 NA
ATOM     18  H   UNL     1       2.862   8.164  17.929  0.00  0.00    +0.000 HD
BRANCH  10  19
ATOM     19  C   UNL     1       4.148   2.867  19.455  0.00  0.00    +0.000 C 
ATOM     20  O   UNL     1       5.020   2.443  20.207  0.00  0.00    +0.000 OA
BRANCH  19  21
ATOM     21  O   UNL     1       3.122   2.117  18.961  0.00  0.00    +0.000 OA
BRANCH  21  23
ATOM     22  C   UNL     1       0.765   2.493  18.805  0.00  0.00    +0.000 C 
ATOM     23  C   UNL     1       1.913   2.122  19.728  0.00  0.00    +0.000 C 
ENDBRANCH  21  23
ENDBRANCH  19  21
ENDBRANCH  10  19
ENDBRANCH   1  15
BRANCH   6  24
ATOM     24  C   UNL     1      -1.387  12.605  23.157  0.00  0.00    +0.000 A 
ATOM     25  C   UNL     1      -2.745  12.580  23.411  0.00  0.00    +0.000 A 
ATOM     26  S   UNL     1      -3.233  14.021  24.180  0.00  0.00    +0.000 S 
ATOM     27  C   UNL     1      -1.612  14.586  24.136  0.00  0.00    +0.000 A 
ATOM     28  N   UNL     1      -1.311  15.804  24.611  0.00  0.00    +0.000 N 
ATOM     29  N   UNL     1      -0.735  13.764  23.596  0.00  0.00    +0.000 NA
ATOM     30  H   UNL     1      -2.068  16.472  24.698  0.00  0.00    +0.000 HD
ATOM     31  H   UNL     1      -0.436  16.210  24.305  0.00  0.00    +0.000 HD
ENDBRANCH   6  24
TORSDOF 5
ENDMDL
MODEL 5
REMARK VINA RESULT:      -7.5      3.786      5.041
REMARK  Name = 
REMARK  6 active torsions:
REMARK  status: ('A' for Active; 'I' for Inactive)
REMARK    1  A    between atoms: C_1  and  C_2
REMARK    2  A    between atoms: C_2  and  O_3
REMARK    3  A    between atoms: O_3  and  C_4
REMARK    4  A    between atoms: C_4  and  C_6
REMARK    5  A    between atoms: C_11  and  C_13
REMARK    6  A    between atoms: C_18  and  C_20
REMARK                            x       y       z     vdW  Elec       q    Type
REMARK                         _______ _______ _______ _____ _____    ______ ____
ROOT
ATOM      1  C   UNL     1       1.258   9.013  19.187  0.00  0.00    +0.000 A 
ATOM      2  C   UNL     1       1.280   9.048  20.573  0.00  0.00    +0.000 A 
ATOM      3  S   UNL     1      -0.035   9.977  21.163  0.00  0.00    +0.000 S 
ATOM      4  C   UNL     1      -0.574  10.196  19.561  0.00  0.00    +0.000 A 
ATOM      5  N   UNL     1      -1.765  10.858  19.439  0.00  0.00    +0.000 N 
ATOM      6  C   UNL     1      -2.420  10.911  18.235  0.00  0.00    +0.000 C 
ATOM      7  O   UNL     1      -2.031  10.418  17.179  0.00  0.00    +0.000 OA
ATOM      8  N   UNL     1       0.188   9.700  18.616  0.00  0.00    +0.000 NA
ATOM      9  H   UNL     1      -2.224  11.222  20.263  0.00  0.00    +0.000 HD
ENDROOT
BRANCH   1  15
ATOM     10  C   UNL     1       5.191   5.552  16.998  0.00  0.00    +0.000 A 
ATOM     11  C   UNL     1       5.039   4.467  17.849  0.00  0.00    +0.000 A 
ATOM     12  S   UNL     1       3.936   4.858  19.109  0.00  0.00    +0.000 S 
ATOM     13  C   UNL     1       3.670   6.376  18.383  0.00  0.00    +0.000 A 
ATOM     14  N   UNL     1       2.744   7.172  18.996  0.00  0.00    +0.000 N 
ATOM     15  C   UNL     1       2.266   8.308  18.383  0.00  0.00    +0.000 C 
ATOM     16  O   UNL     1       2.569   8.726  17.269  0.00  0.00    +0.000 OA
ATOM     17  N   UNL     1       4.369   6.631  17.310  0.00  0.00    +0.000 NA
ATOM     18  H   UNL     1       2.352   6.893  19.887  0.00  0.00    +0.000 HD
BRANCH  10  19
ATOM     19  C   UNL     1       6.170   5.607  15.911  0.00  0.00    +0.000 C 
ATOM     20  O   UNL     1       7.274   6.129  16.025  0.00  0.00    +0.000 OA
BRANCH  19  21
ATOM     21  O   UNL     1       5.662   5.119  14.743  0.00  0.00    +0.000 OA
BRANCH  21  23
ATOM     22  C   UNL     1       6.423   3.798  12.900  0.00  0.00    +0.000 C 
ATOM     23  C   UNL     1       6.078   3.798  14.380  0.00  0.00    +0.000 C 
ENDBRANCH  21  23
ENDBRANCH  19  21
ENDBRANCH  10  19
ENDBRANCH   1  15
BRANCH   6  24
ATOM     24  C   UNL     1      -3.710  11.608  18.297  0.00  0.00    +0.000 A 
ATOM     25  C   UNL     1      -4.125  12.290  19.425  0.00  0.00    +0.000 A 
ATOM     26  S   UNL     1      -5.677  12.952  19.184  0.00  0.00    +0.000 S 
ATOM     27  C   UNL     1      -5.701  12.300  17.595  0.00  0.00    +0.000 A 
ATOM     28  N   UNL     1      -6.781  12.464  16.817  0.00  0.00    +0.000 N 
ATOM     29  N   UNL     1      -4.623  11.634  17.235  0.00  0.00    +0.000 NA
ATOM     30  H   UNL     1      -7.657  12.692  17.274  0.00  0.00    +0.000 HD
ATOM     31  H   UNL     1      -6.878  11.834  16.031  0.00  0.00    +0.000 HD
ENDBRANCH   6  24
TORSDOF 5
ENDMDL
MODEL 6
REMARK VINA RESULT:      -7.5      4.258      5.684
REMARK  Name = 
REMARK  6 active torsions:
REMARK  status: ('A' for Active; 'I' for Inactive)
REMARK    1  A    between atoms: C_1  and  C_2
REMARK    2  A    between atoms: C_2  and  O_3
REMARK    3  A    between atoms: O_3  and  C_4
REMARK    4  A    between atoms: C_4  and  C_6
REMARK    5  A    between atoms: C_11  and  C_13
REMARK    6  A    between atoms: C_18  and  C_20
REMARK                            x       y       z     vdW  Elec       q    Type
REMARK                         _______ _______ _______ _____ _____    ______ ____
ROOT
ATOM      1  C   UNL     1       0.837   9.701  18.838  0.00  0.00    +0.000 A 
ATOM      2  C   UNL     1       0.965  10.189  20.129  0.00  0.00    +0.000 A 
ATOM      3  S   UNL     1      -0.442  11.064  20.574  0.00  0.00    +0.000 S 
ATOM      4  C   UNL     1      -1.138  10.671  19.069  0.00  0.00    +0.000 A 
ATOM      5  N   UNL     1      -2.433  11.082  18.909  0.00  0.00    +0.000 N 
ATOM      6  C   UNL     1      -3.183  10.647  17.845  0.00  0.00    +0.000 C 
ATOM      7  O   UNL     1      -2.799   9.896  16.951  0.00  0.00    +0.000 OA
ATOM      8  N   UNL     1      -0.379  10.006  18.231  0.00  0.00    +0.000 NA
ATOM      9  H   UNL     1      -2.881  11.626  19.634  0.00  0.00    +0.000 HD
ENDROOT
BRANCH   1  15
ATOM     10  C   UNL     1       4.736   5.943  17.130  0.00  0.00    +0.000 A 
ATOM     11  C   UNL     1       4.377   4.865  17.926  0.00  0.00    +0.000 A 
ATOM     12  S   UNL     1       3.146   5.333  19.031  0.00  0.00    +0.000 S 
ATOM     13  C   UNL     1       3.110   6.878  18.312  0.00  0.00    +0.000 A 
ATOM     14  N   UNL     1       2.178   7.742  18.810  0.00  0.00    +0.000 N 
ATOM     15  C   UNL     1       1.885   8.923  18.165  0.00  0.00    +0.000 C 
ATOM     16  O   UNL     1       2.374   9.326  17.113  0.00  0.00    +0.000 OA
ATOM     17  N   UNL     1       3.971   7.084  17.351  0.00  0.00    +0.000 NA
ATOM     18  H   UNL     1       1.643   7.487  19.631  0.00  0.00    +0.000 HD
BRANCH  10  19
ATOM     19  C   UNL     1       5.857   5.928  16.190  0.00  0.00    +0.000 C 
ATOM     20  O   UNL     1       6.915   6.515  16.393  0.00  0.00    +0.000 OA
BRANCH  19  21
ATOM     21  O   UNL     1       5.540   5.287  15.028  0.00  0.00    +0.000 OA
BRANCH  21  23
ATOM     22  C   UNL     1       5.998   3.714  13.285  0.00  0.00    +0.000 C 
ATOM     23  C   UNL     1       6.338   4.144  14.703  0.00  0.00    +0.000 C 
ENDBRANCH  21  23
ENDBRANCH  19  21
ENDBRANCH  10  19
ENDBRANCH   1  15
BRANCH   6  24
ATOM     24  C   UNL     1      -4.566  11.136  17.860  0.00  0.00    +0.000 A 
ATOM     25  C   UNL     1      -5.033  12.047  16.933  0.00  0.00    +0.000 A 
ATOM     26  S   UNL     1      -6.663  12.435  17.248  0.00  0.00    +0.000 S 
ATOM     27  C   UNL     1      -6.651  11.365  18.591  0.00  0.00    +0.000 A 
ATOM     28  N   UNL     1      -7.745  11.233  19.356  0.00  0.00    +0.000 N 
ATOM     29  N   UNL     1      -5.515  10.733  18.808  0.00  0.00    +0.000 NA
ATOM     30  H   UNL     1      -8.434  11.975  19.319  0.00  0.00    +0.000 HD
ATOM     31  H   UNL     1      -7.611  10.841  20.280  0.00  0.00    +0.000 HD
ENDBRANCH   6  24
TORSDOF 5
ENDMDL
MODEL 7
REMARK VINA RESULT:      -7.4      4.212      6.174
REMARK  Name = 
REMARK  6 active torsions:
REMARK  status: ('A' for Active; 'I' for Inactive)
REMARK    1  A    between atoms: C_1  and  C_2
REMARK    2  A    between atoms: C_2  and  O_3
REMARK    3  A    between atoms: O_3  and  C_4
REMARK    4  A    between atoms: C_4  and  C_6
REMARK    5  A    between atoms: C_11  and  C_13
REMARK    6  A    between atoms: C_18  and  C_20
REMARK                            x       y       z     vdW  Elec       q    Type
REMARK                         _______ _______ _______ _____ _____    ______ ____
ROOT
ATOM      1  C   UNL     1       0.676   9.860  19.094  0.00  0.00    +0.000 A 
ATOM      2  C   UNL     1       0.778  10.167  20.443  0.00  0.00    +0.000 A 
ATOM      3  S   UNL     1      -0.569  11.104  20.942  0.00  0.00    +0.000 S 
ATOM      4  C   UNL     1      -1.219  10.970  19.372  0.00  0.00    +0.000 A 
ATOM      5  N   UNL     1      -2.463  11.514  19.215  0.00  0.00    +0.000 N 
ATOM      6  C   UNL     1      -3.193  11.288  18.076  0.00  0.00    +0.000 C 
ATOM      7  O   UNL     1      -2.830  10.625  17.107  0.00  0.00    +0.000 OA
ATOM      8  N   UNL     1      -0.478  10.350  18.485  0.00  0.00    +0.000 NA
ATOM      9  H   UNL     1      -2.900  12.001  19.988  0.00  0.00    +0.000 HD
ENDROOT
BRANCH   1  15
ATOM     10  C   UNL     1       4.475   6.097  17.183  0.00  0.00    +0.000 A 
ATOM     11  C   UNL     1       4.155   5.019  17.996  0.00  0.00    +0.000 A 
ATOM     12  S   UNL     1       2.983   5.489  19.163  0.00  0.00    +0.000 S 
ATOM     13  C   UNL     1       2.913   7.034  18.448  0.00  0.00    +0.000 A 
ATOM     14  N   UNL     1       2.009   7.899  18.995  0.00  0.00    +0.000 N 
ATOM     15  C   UNL     1       1.686   9.081  18.367  0.00  0.00    +0.000 C 
ATOM     16  O   UNL     1       2.121   9.485  17.292  0.00  0.00    +0.000 OA
ATOM     17  N   UNL     1       3.724   7.240  17.445  0.00  0.00    +0.000 NA
ATOM     18  H   UNL     1       1.517   7.644  19.843  0.00  0.00    +0.000 HD
BRANCH  10  19
ATOM     19  C   UNL     1       5.546   6.081  16.187  0.00  0.00    +0.000 C 
ATOM     20  O   UNL     1       5.350   6.237  14.985  0.00  0.00    +0.000 OA
BRANCH  19  21
ATOM     21  O   UNL     1       6.751   5.759  16.738  0.00  0.00    +0.000 OA
BRANCH  21  23
ATOM     22  C   UNL     1       7.733   6.084  18.894  0.00  0.00    +0.000 C 
ATOM     23  C   UNL     1       7.338   6.751  17.587  0.00  0.00    +0.000 C 
ENDBRANCH  21  23
ENDBRANCH  19  21
ENDBRANCH  10  19
ENDBRANCH   1  15
BRANCH   6  24
ATOM     24  C   UNL     1      -4.528  11.896  18.100  0.00  0.00    +0.000 A 
ATOM     25  C   UNL     1      -5.335  11.943  16.979  0.00  0.00    +0.000 A 
ATOM     26  S   UNL     1      -6.797  12.744  17.331  0.00  0.00    +0.000 S 
ATOM     27  C   UNL     1      -6.275  12.972  18.951  0.00  0.00    +0.000 A 
ATOM     28  N   UNL     1      -7.049  13.638  19.820  0.00  0.00    +0.000 N 
ATOM     29  N   UNL     1      -5.088  12.480  19.243  0.00  0.00    +0.000 NA
ATOM     30  H   UNL     1      -7.765  14.246  19.439  0.00  0.00    +0.000 HD
ATOM     31  H   UNL     1      -6.596  14.003  20.648  0.00  0.00    +0.000 HD
ENDBRANCH   6  24
TORSDOF 5
ENDMDL
MODEL 8
REMARK VINA RESULT:      -7.4      4.010      5.743
REMARK  Name = 
REMARK  6 active torsions:
REMARK  status: ('A' for Active; 'I' for Inactive)
REMARK    1  A    between atoms: C_1  and  C_2
REMARK    2  A    between atoms: C_2  and  O_3
REMARK    3  A    between atoms: O_3  and  C_4
REMARK    4  A    between atoms: C_4  and  C_6
REMARK    5  A    between atoms: C_11  and  C_13
REMARK    6  A    between atoms: C_18  and  C_20
REMARK                            x       y       z     vdW  Elec       q    Type
REMARK                         _______ _______ _______ _____ _____    ______ ____
ROOT
ATOM      1  C   UNL     1       1.097   9.303  19.270  0.00  0.00    +0.000 A 
ATOM      2  C   UNL     1       1.117   9.396  20.653  0.00  0.00    +0.000 A 
ATOM      3  S   UNL     1      -0.223  10.312  21.206  0.00  0.00    +0.000 S 
ATOM      4  C   UNL     1      -0.767  10.450  19.596  0.00  0.00    +0.000 A 
ATOM      5  N   UNL     1      -1.975  11.074  19.448  0.00  0.00    +0.000 N 
ATOM      6  C   UNL     1      -2.631  11.059  18.243  0.00  0.00    +0.000 C 
ATOM      7  O   UNL     1      -2.228  10.534  17.208  0.00  0.00    +0.000 OA
ATOM      8  N   UNL     1       0.009   9.937  18.672  0.00  0.00    +0.000 NA
ATOM      9  H   UNL     1      -2.445  11.458  20.257  0.00  0.00    +0.000 HD
ENDROOT
BRANCH   1  15
ATOM     10  C   UNL     1       4.926   5.722  17.087  0.00  0.00    +0.000 A 
ATOM     11  C   UNL     1       4.570   4.567  17.768  0.00  0.00    +0.000 A 
ATOM     12  S   UNL     1       3.363   4.922  18.941  0.00  0.00    +0.000 S 
ATOM     13  C   UNL     1       3.331   6.536  18.395  0.00  0.00    +0.000 A 
ATOM     14  N   UNL     1       2.417   7.349  19.002  0.00  0.00    +0.000 N 
ATOM     15  C   UNL     1       2.125   8.595  18.496  0.00  0.00    +0.000 C 
ATOM     16  O   UNL     1       2.599   9.107  17.485  0.00  0.00    +0.000 OA
ATOM     17  N   UNL     1       4.176   6.839  17.447  0.00  0.00    +0.000 NA
ATOM     18  H   UNL     1       1.894   7.010  19.801  0.00  0.00    +0.000 HD
BRANCH  10  19
ATOM     19  C   UNL     1       6.029   5.801  16.130  0.00  0.00    +0.000 C 
ATOM     20  O   UNL     1       5.863   5.903  14.919  0.00  0.00    +0.000 OA
BRANCH  19  21
ATOM     21  O   UNL     1       7.241   5.630  16.733  0.00  0.00    +0.000 OA
BRANCH  21  23
ATOM     22  C   UNL     1       7.725   7.851  17.477  0.00  0.00    +0.000 C 
ATOM     23  C   UNL     1       7.475   6.415  17.907  0.00  0.00    +0.000 C 
ENDBRANCH  21  23
ENDBRANCH  19  21
ENDBRANCH  10  19
ENDBRANCH   1  15
BRANCH   6  24
ATOM     24  C   UNL     1      -3.940  11.722  18.277  0.00  0.00    +0.000 A 
ATOM     25  C   UNL     1      -4.432  12.320  19.421  0.00  0.00    +0.000 A 
ATOM     26  S   UNL     1      -5.985  12.962  19.137  0.00  0.00    +0.000 S 
ATOM     27  C   UNL     1      -5.906  12.415  17.511  0.00  0.00    +0.000 A 
ATOM     28  N   UNL     1      -6.947  12.605  16.686  0.00  0.00    +0.000 N 
ATOM     29  N   UNL     1      -4.794  11.797  17.170  0.00  0.00    +0.000 NA
ATOM     30  H   UNL     1      -7.851  12.783  17.107  0.00  0.00    +0.000 HD
ATOM     31  H   UNL     1      -6.985  12.025  15.857  0.00  0.00    +0.000 HD
ENDBRANCH   6  24
TORSDOF 5
ENDMDL
MODEL 9
REMARK VINA RESULT:      -7.3      4.150      6.089
REMARK  Name = 
REMARK  6 active torsions:
REMARK  status: ('A' for Active; 'I' for Inactive)
REMARK    1  A    between atoms: C_1  and  C_2
REMARK    2  A    between atoms: C_2  and  O_3
REMARK    3  A    between atoms: O_3  and  C_4
REMARK    4  A    between atoms: C_4  and  C_6
REMARK    5  A    between atoms: C_11  and  C_13
REMARK    6  A    between atoms: C_18  and  C_20
REMARK                            x       y       z     vdW  Elec       q    Type
REMARK                         _______ _______ _______ _____ _____    ______ ____
ROOT
ATOM      1  C   UNL     1       0.710   9.940  19.198  0.00  0.00    +0.000 A 
ATOM      2  C   UNL     1       0.898  10.360  20.506  0.00  0.00    +0.000 A 
ATOM      3  S   UNL     1      -0.398  11.371  20.997  0.00  0.00    +0.000 S 
ATOM      4  C   UNL     1      -1.141  11.119  19.483  0.00  0.00    +0.000 A 
ATOM      5  N   UNL     1      -2.381  11.680  19.350  0.00  0.00    +0.000 N 
ATOM      6  C   UNL     1      -3.180  11.375  18.278  0.00  0.00    +0.000 C 
ATOM      7  O   UNL     1      -2.888  10.621  17.352  0.00  0.00    +0.000 OA
ATOM      8  N   UNL     1      -0.466  10.406  18.614  0.00  0.00    +0.000 NA
ATOM      9  H   UNL     1      -2.761  12.243  20.100  0.00  0.00    +0.000 HD
ENDROOT
BRANCH   1  15
ATOM     10  C   UNL     1       4.308   5.927  17.411  0.00  0.00    +0.000 A 
ATOM     11  C   UNL     1       4.009   4.930  18.327  0.00  0.00    +0.000 A 
ATOM     12  S   UNL     1       2.915   5.527  19.512  0.00  0.00    +0.000 S 
ATOM     13  C   UNL     1       2.842   7.009  18.674  0.00  0.00    +0.000 A 
ATOM     14  N   UNL     1       1.990   7.941  19.193  0.00  0.00    +0.000 N 
ATOM     15  C   UNL     1       1.660   9.076  18.486  0.00  0.00    +0.000 C 
ATOM     16  O   UNL     1       2.044   9.377  17.359  0.00  0.00    +0.000 OA
ATOM     17  N   UNL     1       3.599   7.108  17.615  0.00  0.00    +0.000 NA
ATOM     18  H   UNL     1       1.540   7.772  20.085  0.00  0.00    +0.000 HD
BRANCH  10  19
ATOM     19  C   UNL     1       5.321   5.798  16.363  0.00  0.00    +0.000 C 
ATOM     20  O   UNL     1       5.614   6.708  15.594  0.00  0.00    +0.000 OA
BRANCH  19  21
ATOM     21  O   UNL     1       5.805   4.526  16.275  0.00  0.00    +0.000 OA
BRANCH  21  23
ATOM     22  C   UNL     1       7.671   4.647  17.765  0.00  0.00    +0.000 C 
ATOM     23  C   UNL     1       7.228   4.389  16.334  0.00  0.00    +0.000 C 
ENDBRANCH  21  23
ENDBRANCH  19  21
ENDBRANCH  10  19
ENDBRANCH   1  15
BRANCH   6  24
ATOM     24  C   UNL     1      -4.499  12.017  18.323  0.00  0.00    +0.000 A 
ATOM     25  C   UNL     1      -5.050  12.482  19.502  0.00  0.00    +0.000 A 
ATOM     26  S   UNL     1      -6.598  13.136  19.218  0.00  0.00    +0.000 S 
ATOM     27  C   UNL     1      -6.439  12.770  17.548  0.00  0.00    +0.000 A 
ATOM     28  N   UNL     1      -7.445  13.039  16.702  0.00  0.00    +0.000 N 
ATOM     29  N   UNL     1      -5.304  12.203  17.193  0.00  0.00    +0.000 NA
ATOM     30  H   UNL     1      -8.370  13.161  17.098  0.00  0.00    +0.000 HD
ATOM     31  H   UNL     1      -7.437  12.552  15.815  0.00  0.00    +0.000 HD
ENDBRANCH   6  24
TORSDOF 5
ENDMDL
