MODEL 1
REMARK VINA RESULT:      -8.0      0.000      0.000
REMARK  Name = 
REMARK  7 active torsions:
REMARK  status: ('A' for Active; 'I' for Inactive)
REMARK    1  A    between atoms: N_4  and  C_5
REMARK    2  A    between atoms: C_5  and  C_6
REMARK    3  A    between atoms: C_6  and  C_7
REMARK    4  A    between atoms: C_7  and  N_8
REMARK    5  A    between atoms: N_8  and  C_9
REMARK    6  A    between atoms: N_8  and  C_16
REMARK    7  A    between atoms: C_9  and  C_10
REMARK                            x       y       z     vdW  Elec       q    Type
REMARK                         _______ _______ _______ _____ _____    ______ ____
ROOT
ATOM      1  N   UNL     1       4.477   5.298  17.280  0.00  0.00    +0.000 N 
ENDROOT
BRANCH   1   2
ATOM      2  C   UNL     1       5.671   5.802  17.797  0.00  0.00    +0.000 A 
ATOM      3  C   UNL     1       6.362   6.856  17.173  0.00  0.00    +0.000 A 
ATOM      4  C   UNL     1       7.588   7.339  17.650  0.00  0.00    +0.000 A 
ATOM      5  C   UNL     1       8.174   6.772  18.772  0.00  0.00    +0.000 A 
ATOM      6  C   UNL     1       7.516   5.744  19.429  0.00  0.00    +0.000 A 
ATOM      7  C   UNL     1       6.280   5.279  18.953  0.00  0.00    +0.000 A 
ENDBRANCH   1   2
BRANCH   1   8
ATOM      8  C   UNL     1       4.472   4.084  16.448  0.00  0.00    +0.000 C 
BRANCH   8   9
ATOM      9  C   UNL     1       5.801   3.832  15.727  0.00  0.00    +0.000 C 
BRANCH   9  10
ATOM     10  C   UNL     1       5.830   4.350  14.289  0.00  0.00    +0.000 C 
BRANCH  10  14
ATOM     11  N   UNL     1       6.518   2.047  11.526  0.00  0.00    +0.000 NA
ATOM     12  C   UNL     1       5.837   2.903  12.204  0.00  0.00    +0.000 C 
ATOM     13  N   UNL     1       4.664   3.396  11.774  0.00  0.00    +0.000 N 
ATOM     14  N   UNL     1       6.293   3.303  13.402  0.00  0.00    +0.000 N 
ATOM     15  H   UNL     1       6.018   1.819  10.665  0.00  0.00    +0.000 HD
ATOM     16  H   UNL     1       4.458   3.260  10.794  0.00  0.00    +0.000 HD
ATOM     17  H   UNL     1       4.440   4.329  12.088  0.00  0.00    +0.000 HD
ATOM     18  H   UNL     1       7.191   2.889  13.633  0.00  0.00    +0.000 HD
ENDBRANCH  10  14
ENDBRANCH   9  10
ENDBRANCH   8   9
ENDBRANCH   1   8
BRANCH   1  19
ATOM     19  C   UNL     1       3.172   5.825  17.733  0.00  0.00    +0.000 C 
BRANCH  19  20
ATOM     20  C   UNL     1       2.477   4.959  18.768  0.00  0.00    +0.000 A 
ATOM     21  C   UNL     1       1.550   3.970  18.404  0.00  0.00    +0.000 A 
ATOM     22  C   UNL     1       0.935   3.174  19.374  0.00  0.00    +0.000 A 
ATOM     23  C   UNL     1       1.246   3.342  20.721  0.00  0.00    +0.000 A 
ATOM     24  C   UNL     1       2.198   4.287  21.096  0.00  0.00    +0.000 A 
ATOM     25  C   UNL     1       2.813   5.084  20.127  0.00  0.00    +0.000 A 
ENDBRANCH  19  20
ENDBRANCH   1  19
TORSDOF 7
ENDMDL
MODEL 2
REMARK VINA RESULT:      -7.9      0.105      1.483
REMARK  Name = 
REMARK  7 active torsions:
REMARK  status: ('A' for Active; 'I' for Inactive)
REMARK    1  A    between atoms: N_4  and  C_5
REMARK    2  A    between atoms: C_5  and  C_6
REMARK    3  A    between atoms: C_6  and  C_7
REMARK    4  A    between atoms: C_7  and  N_8
REMARK    5  A    between atoms: N_8  and  C_9
REMARK    6  A    between atoms: N_8  and  C_16
REMARK    7  A    between atoms: C_9  and  C_10
REMARK                            x       y       z     vdW  Elec       q    Type
REMARK                         _______ _______ _______ _____ _____    ______ ____
ROOT
ATOM      1  N   UNL     1       4.509   5.271  17.212  0.00  0.00    +0.000 N 
ENDROOT
BRANCH   1   2
ATOM      2  C   UNL     1       5.721   5.774  17.686  0.00  0.00    +0.000 A 
ATOM      3  C   UNL     1       6.366   5.219  18.805  0.00  0.00    +0.000 A 
ATOM      4  C   UNL     1       7.557   5.745  19.326  0.00  0.00    +0.000 A 
ATOM      5  C   UNL     1       8.142   6.859  18.742  0.00  0.00    +0.000 A 
ATOM      6  C   UNL     1       7.550   7.425  17.624  0.00  0.00    +0.000 A 
ATOM      7  C   UNL     1       6.367   6.880  17.101  0.00  0.00    +0.000 A 
ENDBRANCH   1   2
BRANCH   1   8
ATOM      8  C   UNL     1       4.476   4.061  16.374  0.00  0.00    +0.000 C 
BRANCH   8   9
ATOM      9  C   UNL     1       5.801   3.778  15.657  0.00  0.00    +0.000 C 
BRANCH   9  10
ATOM     10  C   UNL     1       5.839   4.279  14.213  0.00  0.00    +0.000 C 
BRANCH  10  14
ATOM     11  N   UNL     1       6.385   1.923  11.463  0.00  0.00    +0.000 NA
ATOM     12  C   UNL     1       5.758   2.824  12.135  0.00  0.00    +0.000 C 
ATOM     13  N   UNL     1       4.619   3.388  11.701  0.00  0.00    +0.000 N 
ATOM     14  N   UNL     1       6.237   3.200  13.332  0.00  0.00    +0.000 N 
ATOM     15  H   UNL     1       5.873   1.722  10.603  0.00  0.00    +0.000 HD
ATOM     16  H   UNL     1       4.407   3.260  10.721  0.00  0.00    +0.000 HD
ATOM     17  H   UNL     1       4.454   4.335  12.010  0.00  0.00    +0.000 HD
ATOM     18  H   UNL     1       7.106   2.731  13.567  0.00  0.00    +0.000 HD
ENDBRANCH  10  14
ENDBRANCH   9  10
ENDBRANCH   8   9
ENDBRANCH   1   8
BRANCH   1  19
ATOM     19  C   UNL     1       3.221   5.791  17.717  0.00  0.00    +0.000 C 
BRANCH  19  20
ATOM     20  C   UNL     1       2.573   4.923  18.781  0.00  0.00    +0.000 A 
ATOM     21  C   UNL     1       2.891   5.061  20.141  0.00  0.00    +0.000 A 
ATOM     22  C   UNL     1       2.270   4.262  21.105  0.00  0.00    +0.000 A 
ATOM     23  C   UNL     1       1.312   3.323  20.728  0.00  0.00    +0.000 A 
ATOM     24  C   UNL     1       0.952   3.205  19.387  0.00  0.00    +0.000 A 
ATOM     25  C   UNL     1       1.573   4.004  18.423  0.00  0.00    +0.000 A 
ENDBRANCH  19  20
ENDBRANCH   1  19
TORSDOF 7
ENDMDL
MODEL 3
REMARK VINA RESULT:      -7.9      3.228      6.128
REMARK  Name = 
REMARK  7 active torsions:
REMARK  status: ('A' for Active; 'I' for Inactive)
REMARK    1  A    between atoms: N_4  and  C_5
REMARK    2  A    between atoms: C_5  and  C_6
REMARK    3  A    between atoms: C_6  and  C_7
REMARK    4  A    between atoms: C_7  and  N_8
REMARK    5  A    between atoms: N_8  and  C_9
REMARK    6  A    between atoms: N_8  and  C_16
REMARK    7  A    between atoms: C_9  and  C_10
REMARK                            x       y       z     vdW  Elec       q    Type
REMARK                         _______ _______ _______ _____ _____    ______ ____
ROOT
ATOM      1  N   UNL     1       2.848   6.017  19.298  0.00  0.00    +0.000 N 
ENDROOT
BRANCH   1   2
ATOM      2  C   UNL     1       2.276   7.286  19.207  0.00  0.00    +0.000 A 
ATOM      3  C   UNL     1       1.678   7.910  20.316  0.00  0.00    +0.000 A 
ATOM      4  C   UNL     1       1.053   9.162  20.229  0.00  0.00    +0.000 A 
ATOM      5  C   UNL     1       1.001   9.834  19.017  0.00  0.00    +0.000 A 
ATOM      6  C   UNL     1       1.597   9.264  17.903  0.00  0.00    +0.000 A 
ATOM      7  C   UNL     1       2.234   8.017  18.005  0.00  0.00    +0.000 A 
ENDBRANCH   1   2
BRANCH   1   8
ATOM      8  C   UNL     1       2.464   5.097  20.381  0.00  0.00    +0.000 C 
BRANCH   8   9
ATOM      9  C   UNL     1       1.249   4.226  20.042  0.00  0.00    +0.000 C 
BRANCH   9  10
ATOM     10  C   UNL     1       1.613   2.823  19.557  0.00  0.00    +0.000 C 
BRANCH  10  14
ATOM     11  N   UNL     1       5.105   1.855  20.090  0.00  0.00    +0.000 NA
ATOM     12  C   UNL     1       3.996   1.957  19.444  0.00  0.00    +0.000 C 
ATOM     13  N   UNL     1       3.865   1.558  18.169  0.00  0.00    +0.000 N 
ATOM     14  N   UNL     1       2.916   2.452  20.070  0.00  0.00    +0.000 N 
ATOM     15  H   UNL     1       5.811   1.426  19.490  0.00  0.00    +0.000 HD
ATOM     16  H   UNL     1       4.725   1.406  17.660  0.00  0.00    +0.000 HD
ATOM     17  H   UNL     1       3.179   2.058  17.622  0.00  0.00    +0.000 HD
ATOM     18  H   UNL     1       3.117   2.739  21.023  0.00  0.00    +0.000 HD
ENDBRANCH  10  14
ENDBRANCH   9  10
ENDBRANCH   8   9
ENDBRANCH   1   8
BRANCH   1  19
ATOM     19  C   UNL     1       3.672   5.473  18.197  0.00  0.00    +0.000 C 
BRANCH  19  20
ATOM     20  C   UNL     1       5.135   5.872  18.259  0.00  0.00    +0.000 A 
ATOM     21  C   UNL     1       6.018   5.300  19.188  0.00  0.00    +0.000 A 
ATOM     22  C   UNL     1       7.366   5.671  19.216  0.00  0.00    +0.000 A 
ATOM     23  C   UNL     1       7.855   6.608  18.308  0.00  0.00    +0.000 A 
ATOM     24  C   UNL     1       7.002   7.151  17.351  0.00  0.00    +0.000 A 
ATOM     25  C   UNL     1       5.655   6.781  17.322  0.00  0.00    +0.000 A 
ENDBRANCH  19  20
ENDBRANCH   1  19
TORSDOF 7
ENDMDL
MODEL 4
REMARK VINA RESULT:      -7.8      2.933      4.857
REMARK  Name = 
REMARK  7 active torsions:
REMARK  status: ('A' for Active; 'I' for Inactive)
REMARK    1  A    between atoms: N_4  and  C_5
REMARK    2  A    between atoms: C_5  and  C_6
REMARK    3  A    between atoms: C_6  and  C_7
REMARK    4  A    between atoms: C_7  and  N_8
REMARK    5  A    between atoms: N_8  and  C_9
REMARK    6  A    between atoms: N_8  and  C_16
REMARK    7  A    between atoms: C_9  and  C_10
REMARK                            x       y       z     vdW  Elec       q    Type
REMARK                         _______ _______ _______ _____ _____    ______ ____
ROOT
ATOM      1  N   UNL     1       3.296   5.261  18.264  0.00  0.00    +0.000 N 
ENDROOT
BRANCH   1   2
ATOM      2  C   UNL     1       4.581   5.061  17.759  0.00  0.00    +0.000 A 
ATOM      3  C   UNL     1       4.801   4.709  16.415  0.00  0.00    +0.000 A 
ATOM      4  C   UNL     1       6.082   4.454  15.905  0.00  0.00    +0.000 A 
ATOM      5  C   UNL     1       7.193   4.537  16.731  0.00  0.00    +0.000 A 
ATOM      6  C   UNL     1       7.021   4.902  18.058  0.00  0.00    +0.000 A 
ATOM      7  C   UNL     1       5.737   5.171  18.554  0.00  0.00    +0.000 A 
ENDBRANCH   1   2
BRANCH   1   8
ATOM      8  C   UNL     1       2.150   4.517  17.715  0.00  0.00    +0.000 C 
BRANCH   8   9
ATOM      9  C   UNL     1       1.276   3.861  18.791  0.00  0.00    +0.000 C 
BRANCH   9  10
ATOM     10  C   UNL     1       1.543   2.367  18.974  0.00  0.00    +0.000 C 
BRANCH  10  14
ATOM     11  N   UNL     1       4.988   1.893  20.122  0.00  0.00    +0.000 NA
ATOM     12  C   UNL     1       4.006   1.844  19.291  0.00  0.00    +0.000 C 
ATOM     13  N   UNL     1       4.156   1.442  18.018  0.00  0.00    +0.000 N 
ATOM     14  N   UNL     1       2.775   2.178  19.711  0.00  0.00    +0.000 N 
ATOM     15  H   UNL     1       5.840   1.572  19.661  0.00  0.00    +0.000 HD
ATOM     16  H   UNL     1       5.104   1.416  17.670  0.00  0.00    +0.000 HD
ATOM     17  H   UNL     1       3.513   1.846  17.353  0.00  0.00    +0.000 HD
ATOM     18  H   UNL     1       2.764   2.482  20.680  0.00  0.00    +0.000 HD
ENDBRANCH  10  14
ENDBRANCH   9  10
ENDBRANCH   8   9
ENDBRANCH   1   8
BRANCH   1  19
ATOM     19  C   UNL     1       3.078   6.040  19.501  0.00  0.00    +0.000 C 
BRANCH  19  20
ATOM     20  C   UNL     1       2.389   7.376  19.283  0.00  0.00    +0.000 A 
ATOM     21  C   UNL     1       2.398   8.017  18.035  0.00  0.00    +0.000 A 
ATOM     22  C   UNL     1       1.743   9.238  17.853  0.00  0.00    +0.000 A 
ATOM     23  C   UNL     1       1.057   9.832  18.911  0.00  0.00    +0.000 A 
ATOM     24  C   UNL     1       1.001   9.187  20.144  0.00  0.00    +0.000 A 
ATOM     25  C   UNL     1       1.656   7.965  20.326  0.00  0.00    +0.000 A 
ENDBRANCH  19  20
ENDBRANCH   1  19
TORSDOF 7
ENDMDL
MODEL 5
REMARK VINA RESULT:      -7.7      3.261      6.077
REMARK  Name = 
REMARK  7 active torsions:
REMARK  status: ('A' for Active; 'I' for Inactive)
REMARK    1  A    between atoms: N_4  and  C_5
REMARK    2  A    between atoms: C_5  and  C_6
REMARK    3  A    between atoms: C_6  and  C_7
REMARK    4  A    between atoms: C_7  and  N_8
REMARK    5  A    between atoms: N_8  and  C_9
REMARK    6  A    between atoms: N_8  and  C_16
REMARK    7  A    between atoms: C_9  and  C_10
REMARK                            x       y       z     vdW  Elec       q    Type
REMARK                         _______ _______ _______ _____ _____    ______ ____
ROOT
ATOM      1  N   UNL     1       2.699   6.191  19.268  0.00  0.00    +0.000 N 
ENDROOT
BRANCH   1   2
ATOM      2  C   UNL     1       2.175   7.480  19.170  0.00  0.00    +0.000 A 
ATOM      3  C   UNL     1       1.576   8.121  20.270  0.00  0.00    +0.000 A 
ATOM      4  C   UNL     1       0.999   9.395  20.175  0.00  0.00    +0.000 A 
ATOM      5  C   UNL     1       0.994  10.072  18.964  0.00  0.00    +0.000 A 
ATOM      6  C   UNL     1       1.592   9.484  17.860  0.00  0.00    +0.000 A 
ATOM      7  C   UNL     1       2.182   8.216  17.970  0.00  0.00    +0.000 A 
ENDBRANCH   1   2
BRANCH   1   8
ATOM      8  C   UNL     1       2.319   5.309  20.384  0.00  0.00    +0.000 C 
BRANCH   8   9
ATOM      9  C   UNL     1       1.418   4.143  19.961  0.00  0.00    +0.000 C 
BRANCH   9  10
ATOM     10  C   UNL     1       1.915   2.777  20.434  0.00  0.00    +0.000 C 
BRANCH  10  14
ATOM     11  N   UNL     1       4.013   0.892  18.098  0.00  0.00    +0.000 NA
ATOM     12  C   UNL     1       3.763   1.667  19.096  0.00  0.00    +0.000 C 
ATOM     13  N   UNL     1       4.725   2.127  19.911  0.00  0.00    +0.000 N 
ATOM     14  N   UNL     1       2.498   2.058  19.321  0.00  0.00    +0.000 N 
ATOM     15  H   UNL     1       5.018   0.723  18.042  0.00  0.00    +0.000 HD
ATOM     16  H   UNL     1       5.614   1.649  19.863  0.00  0.00    +0.000 HD
ATOM     17  H   UNL     1       4.441   2.315  20.861  0.00  0.00    +0.000 HD
ATOM     18  H   UNL     1       1.842   1.648  18.664  0.00  0.00    +0.000 HD
ENDBRANCH  10  14
ENDBRANCH   9  10
ENDBRANCH   8   9
ENDBRANCH   1   8
BRANCH   1  19
ATOM     19  C   UNL     1       3.461   5.594  18.150  0.00  0.00    +0.000 C 
BRANCH  19  20
ATOM     20  C   UNL     1       4.947   5.901  18.176  0.00  0.00    +0.000 A 
ATOM     21  C   UNL     1       5.531   6.804  17.275  0.00  0.00    +0.000 A 
ATOM     22  C   UNL     1       6.900   7.084  17.327  0.00  0.00    +0.000 A 
ATOM     23  C   UNL     1       7.704   6.477  18.289  0.00  0.00    +0.000 A 
ATOM     24  C   UNL     1       7.133   5.613  19.220  0.00  0.00    +0.000 A 
ATOM     25  C   UNL     1       5.764   5.333  19.168  0.00  0.00    +0.000 A 
ENDBRANCH  19  20
ENDBRANCH   1  19
TORSDOF 7
ENDMDL
MODEL 6
REMARK VINA RESULT:      -7.7      3.230      5.265
REMARK  Name = 
REMARK  7 active torsions:
REMARK  status: ('A' for Active; 'I' for Inactive)
REMARK    1  A    between atoms: N_4  and  C_5
REMARK    2  A    between atoms: C_5  and  C_6
REMARK    3  A    between atoms: C_6  and  C_7
REMARK    4  A    between atoms: C_7  and  N_8
REMARK    5  A    between atoms: N_8  and  C_9
REMARK    6  A    between atoms: N_8  and  C_16
REMARK    7  A    between atoms: C_9  and  C_10
REMARK                            x       y       z     vdW  Elec       q    Type
REMARK                         _______ _______ _______ _____ _____    ______ ____
ROOT
ATOM      1  N   UNL     1       3.943   5.439  18.292  0.00  0.00    +0.000 N 
ENDROOT
BRANCH   1   2
ATOM      2  C   UNL     1       5.278   5.845  18.284  0.00  0.00    +0.000 A 
ATOM      3  C   UNL     1       6.202   5.370  19.232  0.00  0.00    +0.000 A 
ATOM      4  C   UNL     1       7.533   5.807  19.270  0.00  0.00    +0.000 A 
ATOM      5  C   UNL     1       7.987   6.747  18.356  0.00  0.00    +0.000 A 
ATOM      6  C   UNL     1       7.114   7.225  17.391  0.00  0.00    +0.000 A 
ATOM      7  C   UNL     1       5.788   6.769  17.352  0.00  0.00    +0.000 A 
ENDBRANCH   1   2
BRANCH   1   8
ATOM      8  C   UNL     1       3.458   4.435  17.332  0.00  0.00    +0.000 C 
BRANCH   8   9
ATOM      9  C   UNL     1       2.135   3.782  17.747  0.00  0.00    +0.000 C 
BRANCH   9  10
ATOM     10  C   UNL     1       2.292   2.361  18.289  0.00  0.00    +0.000 C 
BRANCH  10  14
ATOM     11  N   UNL     1       2.003   2.500  21.938  0.00  0.00    +0.000 NA
ATOM     12  C   UNL     1       1.630   2.680  20.719  0.00  0.00    +0.000 C 
ATOM     13  N   UNL     1       0.419   3.162  20.398  0.00  0.00    +0.000 N 
ATOM     14  N   UNL     1       2.490   2.406  19.724  0.00  0.00    +0.000 N 
ATOM     15  H   UNL     1       1.255   2.792  22.569  0.00  0.00    +0.000 HD
ATOM     16  H   UNL     1      -0.275   3.145  21.133  0.00  0.00    +0.000 HD
ATOM     17  H   UNL     1       0.047   2.856  19.511  0.00  0.00    +0.000 HD
ATOM     18  H   UNL     1       3.371   2.034  20.063  0.00  0.00    +0.000 HD
ENDBRANCH  10  14
ENDBRANCH   9  10
ENDBRANCH   8   9
ENDBRANCH   1   8
BRANCH   1  19
ATOM     19  C   UNL     1       3.039   5.825  19.397  0.00  0.00    +0.000 C 
BRANCH  19  20
ATOM     20  C   UNL     1       2.393   7.188  19.225  0.00  0.00    +0.000 A 
ATOM     21  C   UNL     1       2.348   7.833  17.980  0.00  0.00    +0.000 A 
ATOM     22  C   UNL     1       1.733   9.081  17.842  0.00  0.00    +0.000 A 
ATOM     23  C   UNL     1       1.141   9.697  18.943  0.00  0.00    +0.000 A 
ATOM     24  C   UNL     1       1.137   9.050  20.176  0.00  0.00    +0.000 A 
ATOM     25  C   UNL     1       1.751   7.802  20.314  0.00  0.00    +0.000 A 
ENDBRANCH  19  20
ENDBRANCH   1  19
TORSDOF 7
ENDMDL
MODEL 7
REMARK VINA RESULT:      -7.7      3.064      4.909
REMARK  Name = 
REMARK  7 active torsions:
REMARK  status: ('A' for Active; 'I' for Inactive)
REMARK    1  A    between atoms: N_4  and  C_5
REMARK    2  A    between atoms: C_5  and  C_6
REMARK    3  A    between atoms: C_6  and  C_7
REMARK    4  A    between atoms: C_7  and  N_8
REMARK    5  A    between atoms: N_8  and  C_9
REMARK    6  A    between atoms: N_8  and  C_16
REMARK    7  A    between atoms: C_9  and  C_10
REMARK                            x       y       z     vdW  Elec       q    Type
REMARK                         _______ _______ _______ _____ _____    ______ ____
ROOT
ATOM      1  N   UNL     1       3.535   5.805  17.698  0.00  0.00    +0.000 N 
ENDROOT
BRANCH   1   2
ATOM      2  C   UNL     1       2.840   6.850  18.308  0.00  0.00    +0.000 A 
ATOM      3  C   UNL     1       2.520   6.826  19.678  0.00  0.00    +0.000 A 
ATOM      4  C   UNL     1       1.779   7.843  20.294  0.00  0.00    +0.000 A 
ATOM      5  C   UNL     1       1.321   8.923  19.553  0.00  0.00    +0.000 A 
ATOM      6  C   UNL     1       1.632   8.995  18.204  0.00  0.00    +0.000 A 
ATOM      7  C   UNL     1       2.390   7.980  17.600  0.00  0.00    +0.000 A 
ENDBRANCH   1   2
BRANCH   1   8
ATOM      8  C   UNL     1       4.966   5.938  17.384  0.00  0.00    +0.000 C 
BRANCH   8   9
ATOM      9  C   UNL     1       5.665   4.595  17.139  0.00  0.00    +0.000 C 
BRANCH   9  10
ATOM     10  C   UNL     1       7.191   4.677  17.191  0.00  0.00    +0.000 C 
BRANCH  10  14
ATOM     11  N   UNL     1       8.219   5.337  20.644  0.00  0.00    +0.000 NA
ATOM     12  C   UNL     1       8.018   5.609  19.402  0.00  0.00    +0.000 C 
ATOM     13  N   UNL     1       8.205   6.838  18.893  0.00  0.00    +0.000 N 
ATOM     14  N   UNL     1       7.635   4.628  18.569  0.00  0.00    +0.000 N 
ATOM     15  H   UNL     1       8.543   6.175  21.128  0.00  0.00    +0.000 HD
ATOM     16  H   UNL     1       8.269   7.591  19.564  0.00  0.00    +0.000 HD
ATOM     17  H   UNL     1       7.625   7.077  18.102  0.00  0.00    +0.000 HD
ATOM     18  H   UNL     1       7.506   3.742  19.047  0.00  0.00    +0.000 HD
ENDBRANCH  10  14
ENDBRANCH   9  10
ENDBRANCH   8   9
ENDBRANCH   1   8
BRANCH   1  19
ATOM     19  C   UNL     1       2.924   4.465  17.561  0.00  0.00    +0.000 C 
BRANCH  19  20
ATOM     20  C   UNL     1       2.527   3.824  18.878  0.00  0.00    +0.000 A 
ATOM     21  C   UNL     1       3.483   3.354  19.790  0.00  0.00    +0.000 A 
ATOM     22  C   UNL     1       3.095   2.781  21.005  0.00  0.00    +0.000 A 
ATOM     23  C   UNL     1       1.744   2.683  21.334  0.00  0.00    +0.000 A 
ATOM     24  C   UNL     1       0.783   3.186  20.460  0.00  0.00    +0.000 A 
ATOM     25  C   UNL     1       1.172   3.758  19.246  0.00  0.00    +0.000 A 
ENDBRANCH  19  20
ENDBRANCH   1  19
TORSDOF 7
ENDMDL
MODEL 8
REMARK VINA RESULT:      -7.7      3.384      5.214
REMARK  Name = 
REMARK  7 active torsions:
REMARK  status: ('A' for Active; 'I' for Inactive)
REMARK    1  A    between atoms: N_4  and  C_5
REMARK    2  A    between atoms: C_5  and  C_6
REMARK    3  A    between atoms: C_6  and  C_7
REMARK    4  A    between atoms: C_7  and  N_8
REMARK    5  A    between atoms: N_8  and  C_9
REMARK    6  A    between atoms: N_8  and  C_16
REMARK    7  A    between atoms: C_9  and  C_10
REMARK                            x       y       z     vdW  Elec       q    Type
REMARK                         _______ _______ _______ _____ _____    ______ ____
ROOT
ATOM      1  N   UNL     1       3.608   5.490  18.482  0.00  0.00    +0.000 N 
ENDROOT
BRANCH   1   2
ATOM      2  C   UNL     1       4.963   5.808  18.385  0.00  0.00    +0.000 A 
ATOM      3  C   UNL     1       5.468   6.581  17.323  0.00  0.00    +0.000 A 
ATOM      4  C   UNL     1       6.833   6.866  17.183  0.00  0.00    +0.000 A 
ATOM      5  C   UNL     1       7.748   6.376  18.105  0.00  0.00    +0.000 A 
ATOM      6  C   UNL     1       7.289   5.628  19.177  0.00  0.00    +0.000 A 
ATOM      7  C   UNL     1       5.918   5.363  19.318  0.00  0.00    +0.000 A 
ENDBRANCH   1   2
BRANCH   1   8
ATOM      8  C   UNL     1       3.011   4.475  17.600  0.00  0.00    +0.000 C 
BRANCH   8   9
ATOM      9  C   UNL     1       3.589   3.070  17.807  0.00  0.00    +0.000 C 
BRANCH   9  10
ATOM     10  C   UNL     1       2.627   2.103  18.499  0.00  0.00    +0.000 C 
BRANCH  10  14
ATOM     11  N   UNL     1       1.885   2.723  22.031  0.00  0.00    +0.000 NA
ATOM     12  C   UNL     1       1.671   2.740  20.762  0.00  0.00    +0.000 C 
ATOM     13  N   UNL     1       0.516   3.172  20.230  0.00  0.00    +0.000 N 
ATOM     14  N   UNL     1       2.644   2.338  19.928  0.00  0.00    +0.000 N 
ATOM     15  H   UNL     1       1.068   3.094  22.519  0.00  0.00    +0.000 HD
ATOM     16  H   UNL     1      -0.264   3.250  20.867  0.00  0.00    +0.000 HD
ATOM     17  H   UNL     1       0.254   2.750  19.351  0.00  0.00    +0.000 HD
ATOM     18  H   UNL     1       3.470   2.017  20.422  0.00  0.00    +0.000 HD
ENDBRANCH  10  14
ENDBRANCH   9  10
ENDBRANCH   8   9
ENDBRANCH   1   8
BRANCH   1  19
ATOM     19  C   UNL     1       2.790   5.986  19.609  0.00  0.00    +0.000 C 
BRANCH  19  20
ATOM     20  C   UNL     1       2.198   7.367  19.389  0.00  0.00    +0.000 A 
ATOM     21  C   UNL     1       2.208   7.983  18.129  0.00  0.00    +0.000 A 
ATOM     22  C   UNL     1       1.642   9.248  17.946  0.00  0.00    +0.000 A 
ATOM     23  C   UNL     1       1.044   9.911  19.016  0.00  0.00    +0.000 A 
ATOM     24  C   UNL     1       0.986   9.294  20.264  0.00  0.00    +0.000 A 
ATOM     25  C   UNL     1       1.551   8.029  20.446  0.00  0.00    +0.000 A 
ENDBRANCH  19  20
ENDBRANCH   1  19
TORSDOF 7
ENDMDL
MODEL 9
REMARK VINA RESULT:      -7.7      3.301      5.295
REMARK  Name = 
REMARK  7 active torsions:
REMARK  status: ('A' for Active; 'I' for Inactive)
REMARK    1  A    between atoms: N_4  and  C_5
REMARK    2  A    between atoms: C_5  and  C_6
REMARK    3  A    between atoms: C_6  and  C_7
REMARK    4  A    between atoms: C_7  and  N_8
REMARK    5  A    between atoms: N_8  and  C_9
REMARK    6  A    between atoms: N_8  and  C_16
REMARK    7  A    between atoms: C_9  and  C_10
REMARK                            x       y       z     vdW  Elec       q    Type
REMARK                         _______ _______ _______ _____ _____    ______ ____
ROOT
ATOM      1  N   UNL     1       3.903   5.449  18.360  0.00  0.00    +0.000 N 
ENDROOT
BRANCH   1   2
ATOM      2  C   UNL     1       5.244   5.831  18.316  0.00  0.00    +0.000 A 
ATOM      3  C   UNL     1       6.178   5.362  19.258  0.00  0.00    +0.000 A 
ATOM      4  C   UNL     1       7.517   5.775  19.260  0.00  0.00    +0.000 A 
ATOM      5  C   UNL     1       7.969   6.686  18.316  0.00  0.00    +0.000 A 
ATOM      6  C   UNL     1       7.086   7.158  17.357  0.00  0.00    +0.000 A 
ATOM      7  C   UNL     1       5.751   6.725  17.354  0.00  0.00    +0.000 A 
ENDBRANCH   1   2
BRANCH   1   8
ATOM      8  C   UNL     1       3.373   4.459  17.408  0.00  0.00    +0.000 C 
BRANCH   8   9
ATOM      9  C   UNL     1       3.751   3.015  17.756  0.00  0.00    +0.000 C 
BRANCH   9  10
ATOM     10  C   UNL     1       2.651   2.251  18.493  0.00  0.00    +0.000 C 
BRANCH  10  14
ATOM     11  N   UNL     1       2.322   2.611  22.123  0.00  0.00    +0.000 NA
ATOM     12  C   UNL     1       1.956   2.704  20.892  0.00  0.00    +0.000 C 
ATOM     13  N   UNL     1       0.735   3.129  20.531  0.00  0.00    +0.000 N 
ATOM     14  N   UNL     1       2.833   2.392  19.923  0.00  0.00    +0.000 N 
ATOM     15  H   UNL     1       1.560   2.921  22.728  0.00  0.00    +0.000 HD
ATOM     16  H   UNL     1       0.035   3.138  21.260  0.00  0.00    +0.000 HD
ATOM     17  H   UNL     1       0.380   2.756  19.662  0.00  0.00    +0.000 HD
ATOM     18  H   UNL     1       3.721   2.068  20.293  0.00  0.00    +0.000 HD
ENDBRANCH  10  14
ENDBRANCH   9  10
ENDBRANCH   8   9
ENDBRANCH   1   8
BRANCH   1  19
ATOM     19  C   UNL     1       3.037   5.845  19.491  0.00  0.00    +0.000 C 
BRANCH  19  20
ATOM     20  C   UNL     1       2.339   7.181  19.303  0.00  0.00    +0.000 A 
ATOM     21  C   UNL     1       1.717   7.846  20.369  0.00  0.00    +0.000 A 
ATOM     22  C   UNL     1       1.094   9.083  20.176  0.00  0.00    +0.000 A 
ATOM     23  C   UNL     1       1.097   9.681  18.918  0.00  0.00    +0.000 A 
ATOM     24  C   UNL     1       1.749   9.055  17.858  0.00  0.00    +0.000 A 
ATOM     25  C   UNL     1       2.372   7.818  18.051  0.00  0.00    +0.000 A 
ENDBRANCH  19  20
ENDBRANCH   1  19
TORSDOF 7
ENDMDL
