MODEL 1
REMARK VINA RESULT:      -7.2      0.000      0.000
REMARK  Name = 
REMARK  11 active torsions:
REMARK  status: ('A' for Active; 'I' for Inactive)
REMARK    1  A    between atoms: C_1  and  O_2
REMARK    2  A    between atoms: O_2  and  C_3
REMARK    3  A    between atoms: C_7  and  N_8
REMARK    4  A    between atoms: C_14  and  O_15
REMARK    5  A    between atoms: O_15  and  C_16
REMARK    6  A    between atoms: C_16  and  C_17
REMARK    7  A    between atoms: C_17  and  C_18
REMARK    8  A    between atoms: C_18  and  C_19
REMARK    9  A    between atoms: C_19  and  C_20
REMARK   10  A    between atoms: C_20  and  O_21
REMARK   11  A    between atoms: O_21  and  C_22
REMARK                            x       y       z     vdW  Elec       q    Type
REMARK                         _______ _______ _______ _____ _____    ______ ____
ROOT
ATOM      1  C   UNL     1       2.129   7.769  18.709  0.00  0.00    +0.000 A 
ATOM      2  C   UNL     1       1.654   9.092  18.709  0.00  0.00    +0.000 A 
ATOM      3  C   UNL     1       1.081   9.645  19.855  0.00  0.00    +0.000 A 
ATOM      4  C   UNL     1       0.461  10.960  19.858  0.00  0.00    +0.000 A 
ATOM      5  C   UNL     1      -0.185  11.414  20.942  0.00  0.00    +0.000 A 
ATOM      6  C   UNL     1      -0.157  10.614  22.222  0.00  0.00    +0.000 A 
ATOM      7  O   UNL     1      -0.652  11.063  23.253  0.00  0.00    +0.000 OA
ATOM      8  O   UNL     1       0.472   9.377  22.192  0.00  0.00    +0.000 OA
ATOM      9  C   UNL     1       1.041   8.877  21.007  0.00  0.00    +0.000 A 
ATOM     10  C   UNL     1       1.540   7.575  21.045  0.00  0.00    +0.000 A 
ATOM     11  C   UNL     1       2.080   7.000  19.888  0.00  0.00    +0.000 A 
ENDROOT
BRANCH   5  12
ATOM     12  N   UNL     1      -0.894  12.607  20.959  0.00  0.00    +0.000 N 
ATOM     13  H   UNL     1      -1.276  12.874  21.860  0.00  0.00    +0.000 HD
ATOM     14  H   UNL     1      -1.559  12.667  20.184  0.00  0.00    +0.000 HD
ENDBRANCH   5  12
BRANCH   1  16
ATOM     15  C   UNL     1       4.066   7.235  17.433  0.00  0.00    +0.000 C 
ATOM     16  O   UNL     1       2.651   7.382  17.499  0.00  0.00    +0.000 OA
ENDBRANCH   1  16
BRANCH  11  17
ATOM     17  O   UNL     1       2.585   5.730  19.843  0.00  0.00    +0.000 OA
BRANCH  17  18
ATOM     18  C   UNL     1       2.173   4.806  20.849  0.00  0.00    +0.000 C 
BRANCH  18  19
ATOM     19  C   UNL     1       0.970   4.033  20.315  0.00  0.00    +0.000 C 
BRANCH  19  20
ATOM     20  C   UNL     1       1.239   3.518  18.902  0.00  0.00    +0.000 C 
BRANCH  20  21
ATOM     21  C   UNL     1       1.812   2.105  18.911  0.00  0.00    +0.000 C 
BRANCH  21  22
ATOM     22  C   UNL     1       3.224   2.082  18.328  0.00  0.00    +0.000 C 
BRANCH  22  23
ATOM     23  O   UNL     1       3.477   3.353  17.724  0.00  0.00    +0.000 OA
BRANCH  23  24
ATOM     24  C   UNL     1       4.766   3.748  17.776  0.00  0.00    +0.000 A 
ATOM     25  C   UNL     1       5.589   3.943  16.669  0.00  0.00    +0.000 A 
ATOM     26  N   UNL     1       6.774   4.309  17.152  0.00  0.00    +0.000 N 
ATOM     27  O   UNL     1       7.873   4.611  16.638  0.00  0.00    +0.000 OA
ATOM     28  O   UNL     1       6.689   4.350  18.584  0.00  0.00    +0.000 OA
ATOM     29  N   UNL     1       5.386   3.982  18.933  0.00  0.00    +0.000 NA
ENDBRANCH  23  24
ENDBRANCH  22  23
ENDBRANCH  21  22
ENDBRANCH  20  21
ENDBRANCH  19  20
ENDBRANCH  18  19
ENDBRANCH  17  18
ENDBRANCH  11  17
TORSDOF 10
ENDMDL
MODEL 2
REMARK VINA RESULT:      -7.2      6.181      8.988
REMARK  Name = 
REMARK  11 active torsions:
REMARK  status: ('A' for Active; 'I' for Inactive)
REMARK    1  A    between atoms: C_1  and  O_2
REMARK    2  A    between atoms: O_2  and  C_3
REMARK    3  A    between atoms: C_7  and  N_8
REMARK    4  A    between atoms: C_14  and  O_15
REMARK    5  A    between atoms: O_15  and  C_16
REMARK    6  A    between atoms: C_16  and  C_17
REMARK    7  A    between atoms: C_17  and  C_18
REMARK    8  A    between atoms: C_18  and  C_19
REMARK    9  A    between atoms: C_19  and  C_20
REMARK   10  A    between atoms: C_20  and  O_21
REMARK   11  A    between atoms: O_21  and  C_22
REMARK                            x       y       z     vdW  Elec       q    Type
REMARK                         _______ _______ _______ _____ _____    ______ ____
ROOT
ATOM      1  C   UNL     1       6.058   5.600  16.190  0.00  0.00    +0.000 A 
ATOM      2  C   UNL     1       5.235   4.461  16.199  0.00  0.00    +0.000 A 
ATOM      3  C   UNL     1       4.150   4.371  17.071  0.00  0.00    +0.000 A 
ATOM      4  C   UNL     1       3.355   3.161  17.203  0.00  0.00    +0.000 A 
ATOM      5  C   UNL     1       2.394   3.066  18.133  0.00  0.00    +0.000 A 
ATOM      6  C   UNL     1       2.036   4.271  18.968  0.00  0.00    +0.000 A 
ATOM      7  O   UNL     1       1.089   4.234  19.750  0.00  0.00    +0.000 OA
ATOM      8  O   UNL     1       2.795   5.421  18.794  0.00  0.00    +0.000 OA
ATOM      9  C   UNL     1       3.872   5.454  17.890  0.00  0.00    +0.000 A 
ATOM     10  C   UNL     1       4.649   6.611  17.874  0.00  0.00    +0.000 A 
ATOM     11  C   UNL     1       5.764   6.692  17.030  0.00  0.00    +0.000 A 
ENDROOT
BRANCH   5  12
ATOM     12  N   UNL     1       1.689   1.896  18.381  0.00  0.00    +0.000 N 
ATOM     13  H   UNL     1       0.754   2.021  18.752  0.00  0.00    +0.000 HD
ATOM     14  H   UNL     1       2.256   1.207  18.883  0.00  0.00    +0.000 HD
ENDBRANCH   5  12
BRANCH   1  16
ATOM     15  C   UNL     1       6.886   4.647  14.173  0.00  0.00    +0.000 C 
ATOM     16  O   UNL     1       7.084   5.519  15.281  0.00  0.00    +0.000 OA
ENDBRANCH   1  16
BRANCH  11  17
ATOM     17  O   UNL     1       6.578   7.789  16.960  0.00  0.00    +0.000 OA
BRANCH  17  18
ATOM     18  C   UNL     1       7.795   7.774  17.705  0.00  0.00    +0.000 C 
BRANCH  18  19
ATOM     19  C   UNL     1       8.280   9.214  17.844  0.00  0.00    +0.000 C 
BRANCH  19  20
ATOM     20  C   UNL     1       8.994   9.420  19.179  0.00  0.00    +0.000 C 
BRANCH  20  21
ATOM     21  C   UNL     1       9.707  10.766  19.241  0.00  0.00    +0.000 C 
BRANCH  21  22
ATOM     22  C   UNL     1       9.694  11.457  17.879  0.00  0.00    +0.000 C 
BRANCH  22  23
ATOM     23  O   UNL     1      10.993  12.007  17.646  0.00  0.00    +0.000 OA
BRANCH  23  24
ATOM     24  C   UNL     1      11.015  13.350  17.517  0.00  0.00    +0.000 A 
ATOM     25  C   UNL     1      12.134  14.103  17.166  0.00  0.00    +0.000 A 
ATOM     26  N   UNL     1      11.737  15.373  17.168  0.00  0.00    +0.000 N 
ATOM     27  O   UNL     1      12.298  16.465  16.932  0.00  0.00    +0.000 OA
ATOM     28  O   UNL     1      10.346  15.414  17.517  0.00  0.00    +0.000 OA
ATOM     29  N   UNL     1       9.932  14.097  17.732  0.00  0.00    +0.000 NA
ENDBRANCH  23  24
ENDBRANCH  22  23
ENDBRANCH  21  22
ENDBRANCH  20  21
ENDBRANCH  19  20
ENDBRANCH  18  19
ENDBRANCH  17  18
ENDBRANCH  11  17
TORSDOF 10
ENDMDL
MODEL 3
REMARK VINA RESULT:      -7.0      5.944      8.729
REMARK  Name = 
REMARK  11 active torsions:
REMARK  status: ('A' for Active; 'I' for Inactive)
REMARK    1  A    between atoms: C_1  and  O_2
REMARK    2  A    between atoms: O_2  and  C_3
REMARK    3  A    between atoms: C_7  and  N_8
REMARK    4  A    between atoms: C_14  and  O_15
REMARK    5  A    between atoms: O_15  and  C_16
REMARK    6  A    between atoms: C_16  and  C_17
REMARK    7  A    between atoms: C_17  and  C_18
REMARK    8  A    between atoms: C_18  and  C_19
REMARK    9  A    between atoms: C_19  and  C_20
REMARK   10  A    between atoms: C_20  and  O_21
REMARK   11  A    between atoms: O_21  and  C_22
REMARK                            x       y       z     vdW  Elec       q    Type
REMARK                         _______ _______ _______ _____ _____    ______ ____
ROOT
ATOM      1  C   UNL     1       5.549   5.163  16.231  0.00  0.00    +0.000 A 
ATOM      2  C   UNL     1       4.612   4.116  16.277  0.00  0.00    +0.000 A 
ATOM      3  C   UNL     1       3.597   4.107  17.234  0.00  0.00    +0.000 A 
ATOM      4  C   UNL     1       2.691   2.982  17.398  0.00  0.00    +0.000 A 
ATOM      5  C   UNL     1       1.803   2.953  18.402  0.00  0.00    +0.000 A 
ATOM      6  C   UNL     1       1.644   4.158  19.297  0.00  0.00    +0.000 A 
ATOM      7  O   UNL     1       0.764   4.190  20.155  0.00  0.00    +0.000 OA
ATOM      8  O   UNL     1       2.504   5.227  19.093  0.00  0.00    +0.000 OA
ATOM      9  C   UNL     1       3.503   5.182  18.104  0.00  0.00    +0.000 A 
ATOM     10  C   UNL     1       4.395   6.252  18.055  0.00  0.00    +0.000 A 
ATOM     11  C   UNL     1       5.441   6.247  17.123  0.00  0.00    +0.000 A 
ENDROOT
BRANCH   5  12
ATOM     12  N   UNL     1       1.000   1.854  18.675  0.00  0.00    +0.000 N 
ATOM     13  H   UNL     1       1.303   1.275  19.450  0.00  0.00    +0.000 HD
ATOM     14  H   UNL     1       0.762   1.335  17.825  0.00  0.00    +0.000 HD
ENDBRANCH   5  12
BRANCH   1  16
ATOM     15  C   UNL     1       6.309   3.897  14.365  0.00  0.00    +0.000 C 
ATOM     16  O   UNL     1       6.484   5.009  15.237  0.00  0.00    +0.000 OA
ENDBRANCH   1  16
BRANCH  11  17
ATOM     17  O   UNL     1       6.359   7.256  17.016  0.00  0.00    +0.000 OA
BRANCH  17  18
ATOM     18  C   UNL     1       7.709   6.979  17.383  0.00  0.00    +0.000 C 
BRANCH  18  19
ATOM     19  C   UNL     1       8.121   7.984  18.456  0.00  0.00    +0.000 C 
BRANCH  19  20
ATOM     20  C   UNL     1       8.024   9.413  17.927  0.00  0.00    +0.000 C 
BRANCH  20  21
ATOM     21  C   UNL     1       9.138  10.300  18.475  0.00  0.00    +0.000 C 
BRANCH  21  22
ATOM     22  C   UNL     1       8.906  11.763  18.106  0.00  0.00    +0.000 C 
BRANCH  22  23
ATOM     23  O   UNL     1       9.656  12.576  19.011  0.00  0.00    +0.000 OA
BRANCH  23  24
ATOM     24  C   UNL     1      10.461  13.479  18.415  0.00  0.00    +0.000 A 
ATOM     25  C   UNL     1      10.028  14.637  17.771  0.00  0.00    +0.000 A 
ATOM     26  N   UNL     1      11.124  15.233  17.309  0.00  0.00    +0.000 N 
ATOM     27  O   UNL     1      11.344  16.283  16.667  0.00  0.00    +0.000 OA
ATOM     28  O   UNL     1      12.262  14.440  17.676  0.00  0.00    +0.000 OA
ATOM     29  N   UNL     1      11.785  13.330  18.379  0.00  0.00    +0.000 NA
ENDBRANCH  23  24
ENDBRANCH  22  23
ENDBRANCH  21  22
ENDBRANCH  20  21
ENDBRANCH  19  20
ENDBRANCH  18  19
ENDBRANCH  17  18
ENDBRANCH  11  17
TORSDOF 10
ENDMDL
MODEL 4
REMARK VINA RESULT:      -6.9      6.185      9.051
REMARK  Name = 
REMARK  11 active torsions:
REMARK  status: ('A' for Active; 'I' for Inactive)
REMARK    1  A    between atoms: C_1  and  O_2
REMARK    2  A    between atoms: O_2  and  C_3
REMARK    3  A    between atoms: C_7  and  N_8
REMARK    4  A    between atoms: C_14  and  O_15
REMARK    5  A    between atoms: O_15  and  C_16
REMARK    6  A    between atoms: C_16  and  C_17
REMARK    7  A    between atoms: C_17  and  C_18
REMARK    8  A    between atoms: C_18  and  C_19
REMARK    9  A    between atoms: C_19  and  C_20
REMARK   10  A    between atoms: C_20  and  O_21
REMARK   11  A    between atoms: O_21  and  C_22
REMARK                            x       y       z     vdW  Elec       q    Type
REMARK                         _______ _______ _______ _____ _____    ______ ____
ROOT
ATOM      1  C   UNL     1       5.833   4.832  16.442  0.00  0.00    +0.000 A 
ATOM      2  C   UNL     1       4.606   4.150  16.381  0.00  0.00    +0.000 A 
ATOM      3  C   UNL     1       3.941   3.770  17.547  0.00  0.00    +0.000 A 
ATOM      4  C   UNL     1       2.740   2.951  17.528  0.00  0.00    +0.000 A 
ATOM      5  C   UNL     1       2.192   2.504  18.667  0.00  0.00    +0.000 A 
ATOM      6  C   UNL     1       2.743   2.963  19.994  0.00  0.00    +0.000 A 
ATOM      7  O   UNL     1       2.190   2.649  21.046  0.00  0.00    +0.000 OA
ATOM      8  O   UNL     1       3.872   3.770  19.976  0.00  0.00    +0.000 OA
ATOM      9  C   UNL     1       4.493   4.129  18.767  0.00  0.00    +0.000 A 
ATOM     10  C   UNL     1       5.689   4.840  18.855  0.00  0.00    +0.000 A 
ATOM     11  C   UNL     1       6.382   5.188  17.689  0.00  0.00    +0.000 A 
ENDROOT
BRANCH   5  12
ATOM     12  N   UNL     1       1.119   1.623  18.699  0.00  0.00    +0.000 N 
ATOM     13  H   UNL     1       1.006   1.108  19.565  0.00  0.00    +0.000 HD
ATOM     14  H   UNL     1       1.072   1.048  17.855  0.00  0.00    +0.000 HD
ENDBRANCH   5  12
BRANCH   1  16
ATOM     15  C   UNL     1       6.362   4.059  14.255  0.00  0.00    +0.000 C 
ATOM     16  O   UNL     1       6.354   5.120  15.204  0.00  0.00    +0.000 OA
ENDBRANCH   1  16
BRANCH  11  17
ATOM     17  O   UNL     1       7.563   5.880  17.693  0.00  0.00    +0.000 OA
BRANCH  17  18
ATOM     18  C   UNL     1       7.522   7.281  17.426  0.00  0.00    +0.000 C 
BRANCH  18  19
ATOM     19  C   UNL     1       8.377   7.986  18.475  0.00  0.00    +0.000 C 
BRANCH  19  20
ATOM     20  C   UNL     1       8.461   9.484  18.191  0.00  0.00    +0.000 C 
BRANCH  20  21
ATOM     21  C   UNL     1       9.330  10.210  19.213  0.00  0.00    +0.000 C 
BRANCH  21  22
ATOM     22  C   UNL     1      10.141  11.322  18.553  0.00  0.00    +0.000 C 
BRANCH  22  23
ATOM     23  O   UNL     1      11.206  11.682  19.436  0.00  0.00    +0.000 OA
BRANCH  23  24
ATOM     24  C   UNL     1      11.106  12.923  19.953  0.00  0.00    +0.000 A 
ATOM     25  C   UNL     1      11.869  14.020  19.557  0.00  0.00    +0.000 A 
ATOM     26  N   UNL     1      11.475  15.037  20.320  0.00  0.00    +0.000 N 
ATOM     27  O   UNL     1      11.799  16.242  20.408  0.00  0.00    +0.000 OA
ATOM     28  O   UNL     1      10.444  14.571  21.203  0.00  0.00    +0.000 OA
ATOM     29  N   UNL     1      10.247  13.214  20.930  0.00  0.00    +0.000 NA
ENDBRANCH  23  24
ENDBRANCH  22  23
ENDBRANCH  21  22
ENDBRANCH  20  21
ENDBRANCH  19  20
ENDBRANCH  18  19
ENDBRANCH  17  18
ENDBRANCH  11  17
TORSDOF 10
ENDMDL
MODEL 5
REMARK VINA RESULT:      -6.9      1.107      1.257
REMARK  Name = 
REMARK  11 active torsions:
REMARK  status: ('A' for Active; 'I' for Inactive)
REMARK    1  A    between atoms: C_1  and  O_2
REMARK    2  A    between atoms: O_2  and  C_3
REMARK    3  A    between atoms: C_7  and  N_8
REMARK    4  A    between atoms: C_14  and  O_15
REMARK    5  A    between atoms: O_15  and  C_16
REMARK    6  A    between atoms: C_16  and  C_17
REMARK    7  A    between atoms: C_17  and  C_18
REMARK    8  A    between atoms: C_18  and  C_19
REMARK    9  A    between atoms: C_19  and  C_20
REMARK   10  A    between atoms: C_20  and  O_21
REMARK   11  A    between atoms: O_21  and  C_22
REMARK                            x       y       z     vdW  Elec       q    Type
REMARK                         _______ _______ _______ _____ _____    ______ ____
ROOT
ATOM      1  C   UNL     1       2.333   7.342  18.975  0.00  0.00    +0.000 A 
ATOM      2  C   UNL     1       2.044   8.634  18.503  0.00  0.00    +0.000 A 
ATOM      3  C   UNL     1       1.245   9.503  19.245  0.00  0.00    +0.000 A 
ATOM      4  C   UNL     1       0.816  10.795  18.735  0.00  0.00    +0.000 A 
ATOM      5  C   UNL     1      -0.048  11.556  19.422  0.00  0.00    +0.000 A 
ATOM      6  C   UNL     1      -0.480  11.135  20.806  0.00  0.00    +0.000 A 
ATOM      7  O   UNL     1      -1.186  11.870  21.493  0.00  0.00    +0.000 OA
ATOM      8  O   UNL     1      -0.027   9.910  21.276  0.00  0.00    +0.000 OA
ATOM      9  C   UNL     1       0.787   9.081  20.483  0.00  0.00    +0.000 A 
ATOM     10  C   UNL     1       1.091   7.819  20.992  0.00  0.00    +0.000 A 
ATOM     11  C   UNL     1       1.859   6.927  20.234  0.00  0.00    +0.000 A 
ENDROOT
BRANCH   5  12
ATOM     12  N   UNL     1      -0.580  12.738  18.927  0.00  0.00    +0.000 N 
ATOM     13  H   UNL     1       0.089  13.377  18.512  0.00  0.00    +0.000 HD
ATOM     14  H   UNL     1      -1.226  13.174  19.591  0.00  0.00    +0.000 HD
ENDBRANCH   5  12
BRANCH   1  16
ATOM     15  C   UNL     1       4.008   7.359  17.284  0.00  0.00    +0.000 C 
ATOM     16  O   UNL     1       3.122   6.616  18.116  0.00  0.00    +0.000 OA
ENDBRANCH   1  16
BRANCH  11  17
ATOM     17  O   UNL     1       2.195   5.671  20.662  0.00  0.00    +0.000 OA
BRANCH  17  18
ATOM     18  C   UNL     1       1.236   4.627  20.503  0.00  0.00    +0.000 C 
BRANCH  18  19
ATOM     19  C   UNL     1       1.993   3.311  20.352  0.00  0.00    +0.000 C 
BRANCH  19  20
ATOM     20  C   UNL     1       1.698   2.666  18.999  0.00  0.00    +0.000 C 
BRANCH  20  21
ATOM     21  C   UNL     1       2.422   3.376  17.860  0.00  0.00    +0.000 C 
BRANCH  21  22
ATOM     22  C   UNL     1       3.852   2.862  17.714  0.00  0.00    +0.000 C 
BRANCH  22  23
ATOM     23  O   UNL     1       4.720   3.750  18.425  0.00  0.00    +0.000 OA
BRANCH  23  24
ATOM     24  C   UNL     1       5.778   4.185  17.712  0.00  0.00    +0.000 A 
ATOM     25  C   UNL     1       5.785   4.391  16.333  0.00  0.00    +0.000 A 
ATOM     26  N   UNL     1       7.014   4.800  16.029  0.00  0.00    +0.000 N 
ATOM     27  O   UNL     1       7.589   5.130  14.969  0.00  0.00    +0.000 OA
ATOM     28  O   UNL     1       7.786   4.859  17.237  0.00  0.00    +0.000 OA
ATOM     29  N   UNL     1       6.952   4.455  18.283  0.00  0.00    +0.000 NA
ENDBRANCH  23  24
ENDBRANCH  22  23
ENDBRANCH  21  22
ENDBRANCH  20  21
ENDBRANCH  19  20
ENDBRANCH  18  19
ENDBRANCH  17  18
ENDBRANCH  11  17
TORSDOF 10
ENDMDL
MODEL 6
REMARK VINA RESULT:      -6.8      2.655      7.115
REMARK  Name = 
REMARK  11 active torsions:
REMARK  status: ('A' for Active; 'I' for Inactive)
REMARK    1  A    between atoms: C_1  and  O_2
REMARK    2  A    between atoms: O_2  and  C_3
REMARK    3  A    between atoms: C_7  and  N_8
REMARK    4  A    between atoms: C_14  and  O_15
REMARK    5  A    between atoms: O_15  and  C_16
REMARK    6  A    between atoms: C_16  and  C_17
REMARK    7  A    between atoms: C_17  and  C_18
REMARK    8  A    between atoms: C_18  and  C_19
REMARK    9  A    between atoms: C_19  and  C_20
REMARK   10  A    between atoms: C_20  and  O_21
REMARK   11  A    between atoms: O_21  and  C_22
REMARK                            x       y       z     vdW  Elec       q    Type
REMARK                         _______ _______ _______ _____ _____    ______ ____
ROOT
ATOM      1  C   UNL     1       5.968   4.027  16.896  0.00  0.00    +0.000 A 
ATOM      2  C   UNL     1       4.665   3.545  16.684  0.00  0.00    +0.000 A 
ATOM      3  C   UNL     1       3.779   3.388  17.750  0.00  0.00    +0.000 A 
ATOM      4  C   UNL     1       2.471   2.772  17.593  0.00  0.00    +0.000 A 
ATOM      5  C   UNL     1       1.692   2.528  18.657  0.00  0.00    +0.000 A 
ATOM      6  C   UNL     1       2.111   3.019  20.021  0.00  0.00    +0.000 A 
ATOM      7  O   UNL     1       1.362   2.899  20.988  0.00  0.00    +0.000 OA
ATOM      8  O   UNL     1       3.352   3.632  20.130  0.00  0.00    +0.000 OA
ATOM      9  C   UNL     1       4.197   3.770  19.015  0.00  0.00    +0.000 A 
ATOM     10  C   UNL     1       5.471   4.287  19.247  0.00  0.00    +0.000 A 
ATOM     11  C   UNL     1       6.379   4.409  18.188  0.00  0.00    +0.000 A 
ENDROOT
BRANCH   5  12
ATOM     12  N   UNL     1       0.492   1.836  18.576  0.00  0.00    +0.000 N 
ATOM     13  H   UNL     1       0.410   1.196  17.794  0.00  0.00    +0.000 HD
ATOM     14  H   UNL     1      -0.314   2.453  18.704  0.00  0.00    +0.000 HD
ENDBRANCH   5  12
BRANCH   1  16
ATOM     15  C   UNL     1       5.986   4.055  14.516  0.00  0.00    +0.000 C 
ATOM     16  O   UNL     1       6.708   4.109  15.742  0.00  0.00    +0.000 OA
ENDBRANCH   1  16
BRANCH  11  17
ATOM     17  O   UNL     1       7.647   4.902  18.335  0.00  0.00    +0.000 OA
BRANCH  17  18
ATOM     18  C   UNL     1       7.798   6.286  18.649  0.00  0.00    +0.000 C 
BRANCH  18  19
ATOM     19  C   UNL     1       7.486   7.091  17.391  0.00  0.00    +0.000 C 
BRANCH  19  20
ATOM     20  C   UNL     1       6.171   7.854  17.545  0.00  0.00    +0.000 C 
BRANCH  20  21
ATOM     21  C   UNL     1       5.052   7.232  16.717  0.00  0.00    +0.000 C 
BRANCH  21  22
ATOM     22  C   UNL     1       3.762   7.129  17.527  0.00  0.00    +0.000 C 
BRANCH  22  23
ATOM     23  O   UNL     1       2.955   8.271  17.229  0.00  0.00    +0.000 OA
BRANCH  23  24
ATOM     24  C   UNL     1       2.117   8.636  18.220  0.00  0.00    +0.000 A 
ATOM     25  C   UNL     1       1.188   9.672  18.144  0.00  0.00    +0.000 A 
ATOM     26  N   UNL     1       0.583   9.711  19.328  0.00  0.00    +0.000 N 
ATOM     27  O   UNL     1      -0.320  10.419  19.826  0.00  0.00    +0.000 OA
ATOM     28  O   UNL     1       1.136   8.678  20.156  0.00  0.00    +0.000 OA
ATOM     29  N   UNL     1       2.113   8.021  19.403  0.00  0.00    +0.000 NA
ENDBRANCH  23  24
ENDBRANCH  22  23
ENDBRANCH  21  22
ENDBRANCH  20  21
ENDBRANCH  19  20
ENDBRANCH  18  19
ENDBRANCH  17  18
ENDBRANCH  11  17
TORSDOF 10
ENDMDL
MODEL 7
REMARK VINA RESULT:      -6.8      5.461      8.887
REMARK  Name = 
REMARK  11 active torsions:
REMARK  status: ('A' for Active; 'I' for Inactive)
REMARK    1  A    between atoms: C_1  and  O_2
REMARK    2  A    between atoms: O_2  and  C_3
REMARK    3  A    between atoms: C_7  and  N_8
REMARK    4  A    between atoms: C_14  and  O_15
REMARK    5  A    between atoms: O_15  and  C_16
REMARK    6  A    between atoms: C_16  and  C_17
REMARK    7  A    between atoms: C_17  and  C_18
REMARK    8  A    between atoms: C_18  and  C_19
REMARK    9  A    between atoms: C_19  and  C_20
REMARK   10  A    between atoms: C_20  and  O_21
REMARK   11  A    between atoms: O_21  and  C_22
REMARK                            x       y       z     vdW  Elec       q    Type
REMARK                         _______ _______ _______ _____ _____    ______ ____
ROOT
ATOM      1  C   UNL     1       6.136   4.974  16.068  0.00  0.00    +0.000 A 
ATOM      2  C   UNL     1       5.043   4.091  16.116  0.00  0.00    +0.000 A 
ATOM      3  C   UNL     1       4.391   3.828  17.321  0.00  0.00    +0.000 A 
ATOM      4  C   UNL     1       3.343   2.826  17.437  0.00  0.00    +0.000 A 
ATOM      5  C   UNL     1       2.819   2.513  18.630  0.00  0.00    +0.000 A 
ATOM      6  C   UNL     1       3.218   3.299  19.855  0.00  0.00    +0.000 A 
ATOM      7  O   UNL     1       2.670   3.098  20.936  0.00  0.00    +0.000 OA
ATOM      8  O   UNL     1       4.198   4.271  19.702  0.00  0.00    +0.000 OA
ATOM      9  C   UNL     1       4.813   4.498  18.458  0.00  0.00    +0.000 A 
ATOM     10  C   UNL     1       5.870   5.407  18.430  0.00  0.00    +0.000 A 
ATOM     11  C   UNL     1       6.555   5.645  17.233  0.00  0.00    +0.000 A 
ENDROOT
BRANCH   5  12
ATOM     12  N   UNL     1       1.906   1.484  18.812  0.00  0.00    +0.000 N 
ATOM     13  H   UNL     1       1.402   1.499  19.692  0.00  0.00    +0.000 HD
ATOM     14  H   UNL     1       2.303   0.573  18.568  0.00  0.00    +0.000 HD
ENDBRANCH   5  12
BRANCH   1  16
ATOM     15  C   UNL     1       6.352   4.084  13.871  0.00  0.00    +0.000 C 
ATOM     16  O   UNL     1       6.666   5.109  14.808  0.00  0.00    +0.000 OA
ENDBRANCH   1  16
BRANCH  11  17
ATOM     17  O   UNL     1       7.603   6.517  17.125  0.00  0.00    +0.000 OA
BRANCH  17  18
ATOM     18  C   UNL     1       7.980   7.263  18.282  0.00  0.00    +0.000 C 
BRANCH  18  19
ATOM     19  C   UNL     1       8.116   8.727  17.874  0.00  0.00    +0.000 C 
BRANCH  19  20
ATOM     20  C   UNL     1       9.016   9.481  18.851  0.00  0.00    +0.000 C 
BRANCH  20  21
ATOM     21  C   UNL     1       9.477  10.820  18.283  0.00  0.00    +0.000 C 
BRANCH  21  22
ATOM     22  C   UNL     1       9.197  11.957  19.263  0.00  0.00    +0.000 C 
BRANCH  22  23
ATOM     23  O   UNL     1       9.293  11.435  20.591  0.00  0.00    +0.000 OA
BRANCH  23  24
ATOM     24  C   UNL     1       8.944  12.306  21.559  0.00  0.00    +0.000 A 
ATOM     25  C   UNL     1       9.424  13.609  21.676  0.00  0.00    +0.000 A 
ATOM     26  N   UNL     1       8.849  14.116  22.764  0.00  0.00    +0.000 N 
ATOM     27  O   UNL     1       8.901  15.222  23.346  0.00  0.00    +0.000 OA
ATOM     28  O   UNL     1       7.990  13.117  23.332  0.00  0.00    +0.000 OA
ATOM     29  N   UNL     1       8.087  11.979  22.526  0.00  0.00    +0.000 NA
ENDBRANCH  23  24
ENDBRANCH  22  23
ENDBRANCH  21  22
ENDBRANCH  20  21
ENDBRANCH  19  20
ENDBRANCH  18  19
ENDBRANCH  17  18
ENDBRANCH  11  17
TORSDOF 10
ENDMDL
MODEL 8
REMARK VINA RESULT:      -6.8      5.539      8.524
REMARK  Name = 
REMARK  11 active torsions:
REMARK  status: ('A' for Active; 'I' for Inactive)
REMARK    1  A    between atoms: C_1  and  O_2
REMARK    2  A    between atoms: O_2  and  C_3
REMARK    3  A    between atoms: C_7  and  N_8
REMARK    4  A    between atoms: C_14  and  O_15
REMARK    5  A    between atoms: O_15  and  C_16
REMARK    6  A    between atoms: C_16  and  C_17
REMARK    7  A    between atoms: C_17  and  C_18
REMARK    8  A    between atoms: C_18  and  C_19
REMARK    9  A    between atoms: C_19  and  C_20
REMARK   10  A    between atoms: C_20  and  O_21
REMARK   11  A    between atoms: O_21  and  C_22
REMARK                            x       y       z     vdW  Elec       q    Type
REMARK                         _______ _______ _______ _____ _____    ______ ____
ROOT
ATOM      1  C   UNL     1       6.174   4.323  16.727  0.00  0.00    +0.000 A 
ATOM      2  C   UNL     1       4.873   3.809  16.597  0.00  0.00    +0.000 A 
ATOM      3  C   UNL     1       3.990   3.818  17.678  0.00  0.00    +0.000 A 
ATOM      4  C   UNL     1       2.685   3.180  17.623  0.00  0.00    +0.000 A 
ATOM      5  C   UNL     1       1.909   3.103  18.714  0.00  0.00    +0.000 A 
ATOM      6  C   UNL     1       2.329   3.802  19.983  0.00  0.00    +0.000 A 
ATOM      7  O   UNL     1       1.583   3.832  20.960  0.00  0.00    +0.000 OA
ATOM      8  O   UNL     1       3.568   4.429  19.991  0.00  0.00    +0.000 OA
ATOM      9  C   UNL     1       4.410   4.394  18.866  0.00  0.00    +0.000 A 
ATOM     10  C   UNL     1       5.683   4.945  19.010  0.00  0.00    +0.000 A 
ATOM     11  C   UNL     1       6.587   4.903  17.942  0.00  0.00    +0.000 A 
ENDROOT
BRANCH   5  12
ATOM     12  N   UNL     1       0.711   2.402  18.746  0.00  0.00    +0.000 N 
ATOM     13  H   UNL     1       0.774   1.448  19.082  0.00  0.00    +0.000 HD
ATOM     14  H   UNL     1       0.181   2.511  17.877  0.00  0.00    +0.000 HD
ENDBRANCH   5  12
BRANCH   1  16
ATOM     15  C   UNL     1       6.275   4.650  14.372  0.00  0.00    +0.000 C 
ATOM     16  O   UNL     1       6.912   4.225  15.573  0.00  0.00    +0.000 OA
ENDBRANCH   1  16
BRANCH  11  17
ATOM     17  O   UNL     1       7.853   5.418  18.006  0.00  0.00    +0.000 OA
BRANCH  17  18
ATOM     18  C   UNL     1       8.039   6.668  18.668  0.00  0.00    +0.000 C 
BRANCH  18  19
ATOM     19  C   UNL     1       7.428   7.759  17.793  0.00  0.00    +0.000 C 
BRANCH  19  20
ATOM     20  C   UNL     1       8.409   8.914  17.600  0.00  0.00    +0.000 C 
BRANCH  20  21
ATOM     21  C   UNL     1       8.662   9.670  18.900  0.00  0.00    +0.000 C 
BRANCH  21  22
ATOM     22  C   UNL     1       9.759  10.716  18.721  0.00  0.00    +0.000 C 
BRANCH  22  23
ATOM     23  O   UNL     1       9.325  11.652  17.731  0.00  0.00    +0.000 OA
BRANCH  23  24
ATOM     24  C   UNL     1       9.616  12.938  18.014  0.00  0.00    +0.000 A 
ATOM     25  C   UNL     1       9.004  13.698  19.009  0.00  0.00    +0.000 A 
ATOM     26  N   UNL     1       9.561  14.904  18.946  0.00  0.00    +0.000 N 
ATOM     27  O   UNL     1       9.414  15.971  19.582  0.00  0.00    +0.000 OA
ATOM     28  O   UNL     1      10.544  14.897  17.900  0.00  0.00    +0.000 OA
ATOM     29  N   UNL     1      10.539  13.619  17.335  0.00  0.00    +0.000 NA
ENDBRANCH  23  24
ENDBRANCH  22  23
ENDBRANCH  21  22
ENDBRANCH  20  21
ENDBRANCH  19  20
ENDBRANCH  18  19
ENDBRANCH  17  18
ENDBRANCH  11  17
TORSDOF 10
ENDMDL
MODEL 9
REMARK VINA RESULT:      -6.7      2.559      4.215
REMARK  Name = 
REMARK  11 active torsions:
REMARK  status: ('A' for Active; 'I' for Inactive)
REMARK    1  A    between atoms: C_1  and  O_2
REMARK    2  A    between atoms: O_2  and  C_3
REMARK    3  A    between atoms: C_7  and  N_8
REMARK    4  A    between atoms: C_14  and  O_15
REMARK    5  A    between atoms: O_15  and  C_16
REMARK    6  A    between atoms: C_16  and  C_17
REMARK    7  A    between atoms: C_17  and  C_18
REMARK    8  A    between atoms: C_18  and  C_19
REMARK    9  A    between atoms: C_19  and  C_20
REMARK   10  A    between atoms: C_20  and  O_21
REMARK   11  A    between atoms: O_21  and  C_22
REMARK                            x       y       z     vdW  Elec       q    Type
REMARK                         _______ _______ _______ _____ _____    ______ ____
ROOT
ATOM      1  C   UNL     1       2.238   6.236  20.000  0.00  0.00    +0.000 A 
ATOM      2  C   UNL     1       1.472   6.991  20.906  0.00  0.00    +0.000 A 
ATOM      3  C   UNL     1       1.132   8.314  20.623  0.00  0.00    +0.000 A 
ATOM      4  C   UNL     1       0.456   9.167  21.587  0.00  0.00    +0.000 A 
ATOM      5  C   UNL     1       0.248  10.467  21.330  0.00  0.00    +0.000 A 
ATOM      6  C   UNL     1       0.596  11.027  19.973  0.00  0.00    +0.000 A 
ATOM      7  O   UNL     1       0.316  12.189  19.684  0.00  0.00    +0.000 OA
ATOM      8  O   UNL     1       1.212  10.177  19.065  0.00  0.00    +0.000 OA
ATOM      9  C   UNL     1       1.521   8.848  19.405  0.00  0.00    +0.000 A 
ATOM     10  C   UNL     1       2.247   8.108  18.473  0.00  0.00    +0.000 A 
ATOM     11  C   UNL     1       2.627   6.793  18.767  0.00  0.00    +0.000 A 
ENDROOT
BRANCH   5  12
ATOM     12  N   UNL     1      -0.282  11.349  22.261  0.00  0.00    +0.000 N 
ATOM     13  H   UNL     1      -1.208  11.116  22.603  0.00  0.00    +0.000 HD
ATOM     14  H   UNL     1      -0.173  12.324  21.969  0.00  0.00    +0.000 HD
ENDBRANCH   5  12
BRANCH   1  16
ATOM     15  C   UNL     1       1.504   3.976  20.144  0.00  0.00    +0.000 C 
ATOM     16  O   UNL     1       2.491   4.959  20.440  0.00  0.00    +0.000 OA
ENDBRANCH   1  16
BRANCH  11  17
ATOM     17  O   UNL     1       3.344   6.005  17.908  0.00  0.00    +0.000 OA
BRANCH  17  18
ATOM     18  C   UNL     1       4.751   5.892  18.114  0.00  0.00    +0.000 C 
BRANCH  18  19
ATOM     19  C   UNL     1       5.430   7.034  17.363  0.00  0.00    +0.000 C 
BRANCH  19  20
ATOM     20  C   UNL     1       6.949   6.882  17.401  0.00  0.00    +0.000 C 
BRANCH  20  21
ATOM     21  C   UNL     1       7.371   5.439  17.656  0.00  0.00    +0.000 C 
BRANCH  21  22
ATOM     22  C   UNL     1       7.223   4.593  16.394  0.00  0.00    +0.000 C 
BRANCH  22  23
ATOM     23  O   UNL     1       7.564   5.408  15.269  0.00  0.00    +0.000 OA
BRANCH  23  24
ATOM     24  C   UNL     1       7.251   4.867  14.074  0.00  0.00    +0.000 A 
ATOM     25  C   UNL     1       6.329   3.841  13.875  0.00  0.00    +0.000 A 
ATOM     26  N   UNL     1       6.331   3.593  12.568  0.00  0.00    +0.000 N 
ATOM     27  O   UNL     1       5.715   2.795  11.828  0.00  0.00    +0.000 OA
ATOM     28  O   UNL     1       7.263   4.484  11.937  0.00  0.00    +0.000 OA
ATOM     29  N   UNL     1       7.825   5.276  12.942  0.00  0.00    +0.000 NA
ENDBRANCH  23  24
ENDBRANCH  22  23
ENDBRANCH  21  22
ENDBRANCH  20  21
ENDBRANCH  19  20
ENDBRANCH  18  19
ENDBRANCH  17  18
ENDBRANCH  11  17
TORSDOF 10
ENDMDL
