MODEL 1
REMARK VINA RESULT:      -7.2      0.000      0.000
REMARK  Name = 
REMARK  8 active torsions:
REMARK  status: ('A' for Active; 'I' for Inactive)
REMARK    1  A    between atoms: C_1  and  O_2
REMARK    2  A    between atoms: O_2  and  C_3
REMARK    3  A    between atoms: C_3  and  C_4
REMARK    4  A    between atoms: C_4  and  N_5
REMARK    5  A    between atoms: C_8  and  O_9
REMARK    6  A    between atoms: C_10  and  C_11
REMARK    7  A    between atoms: C_11  and  C_12
REMARK    8  A    between atoms: C_14  and  C_15
REMARK                            x       y       z     vdW  Elec       q    Type
REMARK                         _______ _______ _______ _____ _____    ______ ____
ROOT
ATOM      1  N   UNL     1       3.012   4.262  18.227  0.00  0.00    +0.000 N 
ATOM      2  C   UNL     1       4.133   3.592  18.651  0.00  0.00    +0.000 C 
ATOM      3  O   UNL     1       4.236   2.556  19.287  0.00  0.00    +0.000 OA
ATOM      4  C   UNL     1       5.311   4.366  18.200  0.00  0.00    +0.000 C 
ATOM      5  C   UNL     1       4.852   5.428  17.529  0.00  0.00    +0.000 C 
ATOM      6  C   UNL     1       3.346   5.485  17.512  0.00  0.00    +0.000 C 
ENDROOT
BRANCH   6   7
ATOM      7  C   UNL     1       2.769   6.735  18.174  0.00  0.00    +0.000 A 
ATOM      8  C   UNL     1       2.557   6.756  19.565  0.00  0.00    +0.000 A 
ATOM      9  C   UNL     1       1.931   7.844  20.177  0.00  0.00    +0.000 A 
ATOM     10  C   UNL     1       1.500   8.913  19.402  0.00  0.00    +0.000 A 
ATOM     11  F   UNL     1       0.854   9.932  19.983  0.00  0.00    +0.000 F 
ATOM     12  C   UNL     1       1.723   8.936  18.034  0.00  0.00    +0.000 A 
ATOM     13  C   UNL     1       2.378   7.864  17.425  0.00  0.00    +0.000 A 
ENDBRANCH   6   7
BRANCH   5  14
ATOM     14  C   UNL     1       5.611   6.503  16.859  0.00  0.00    +0.000 C 
ATOM     15  C   UNL     1       6.690   7.263  17.587  0.00  0.00    +0.000 C 
ATOM     16  O   UNL     1       5.301   6.818  15.708  0.00  0.00    +0.000 OA
ENDBRANCH   5  14
BRANCH   4  17
ATOM     17  O   UNL     1       6.587   3.970  18.449  0.00  0.00    +0.000 OA
ATOM     18  H   UNL     1       7.153   4.612  17.968  0.00  0.00    +0.000 HD
ENDBRANCH   4  17
BRANCH   1  19
ATOM     19  C   UNL     1       1.659   3.740  18.390  0.00  0.00    +0.000 C 
BRANCH  19  20
ATOM     20  C   UNL     1       1.097   3.818  19.815  0.00  0.00    +0.000 C 
BRANCH  20  22
ATOM     21  C   UNL     1       1.741   2.697  21.780  0.00  0.00    +0.000 C 
ATOM     22  O   UNL     1       1.182   2.556  20.477  0.00  0.00    +0.000 OA
ENDBRANCH  20  22
ENDBRANCH  19  20
ENDBRANCH   1  19
TORSDOF 6
ENDMDL
MODEL 2
REMARK VINA RESULT:      -7.0      1.475      4.337
REMARK  Name = 
REMARK  8 active torsions:
REMARK  status: ('A' for Active; 'I' for Inactive)
REMARK    1  A    between atoms: C_1  and  O_2
REMARK    2  A    between atoms: O_2  and  C_3
REMARK    3  A    between atoms: C_3  and  C_4
REMARK    4  A    between atoms: C_4  and  N_5
REMARK    5  A    between atoms: C_8  and  O_9
REMARK    6  A    between atoms: C_10  and  C_11
REMARK    7  A    between atoms: C_11  and  C_12
REMARK    8  A    between atoms: C_14  and  C_15
REMARK                            x       y       z     vdW  Elec       q    Type
REMARK                         _______ _______ _______ _____ _____    ______ ____
ROOT
ATOM      1  N   UNL     1       4.410   4.733  18.359  0.00  0.00    +0.000 N 
ATOM      2  C   UNL     1       4.144   3.648  17.561  0.00  0.00    +0.000 C 
ATOM      3  O   UNL     1       4.716   3.250  16.560  0.00  0.00    +0.000 OA
ATOM      4  C   UNL     1       2.956   2.964  18.120  0.00  0.00    +0.000 C 
ATOM      5  C   UNL     1       2.586   3.646  19.211  0.00  0.00    +0.000 C 
ATOM      6  C   UNL     1       3.452   4.856  19.449  0.00  0.00    +0.000 C 
ENDROOT
BRANCH   6   7
ATOM      7  C   UNL     1       2.686   6.177  19.417  0.00  0.00    +0.000 A 
ATOM      8  C   UNL     1       2.605   6.911  18.219  0.00  0.00    +0.000 A 
ATOM      9  C   UNL     1       2.004   8.171  18.191  0.00  0.00    +0.000 A 
ATOM     10  C   UNL     1       1.492   8.714  19.362  0.00  0.00    +0.000 A 
ATOM     11  F   UNL     1       0.963   9.943  19.345  0.00  0.00    +0.000 F 
ATOM     12  C   UNL     1       1.529   8.002  20.552  0.00  0.00    +0.000 A 
ATOM     13  C   UNL     1       2.099   6.729  20.574  0.00  0.00    +0.000 A 
ENDBRANCH   6   7
BRANCH   5  14
ATOM     14  C   UNL     1       1.475   3.373  20.144  0.00  0.00    +0.000 C 
ATOM     15  C   UNL     1       1.723   3.209  21.622  0.00  0.00    +0.000 C 
ATOM     16  O   UNL     1       0.342   3.213  19.684  0.00  0.00    +0.000 OA
ENDBRANCH   5  14
BRANCH   4  17
ATOM     17  O   UNL     1       2.430   1.839  17.569  0.00  0.00    +0.000 OA
ATOM     18  H   UNL     1       1.589   1.687  18.052  0.00  0.00    +0.000 HD
ENDBRANCH   4  17
BRANCH   1  19
ATOM     19  C   UNL     1       5.581   5.587  18.184  0.00  0.00    +0.000 C 
BRANCH  19  20
ATOM     20  C   UNL     1       6.633   5.488  19.296  0.00  0.00    +0.000 C 
BRANCH  20  22
ATOM     21  C   UNL     1       7.747   4.571  17.439  0.00  0.00    +0.000 C 
ATOM     22  O   UNL     1       7.813   4.828  18.839  0.00  0.00    +0.000 OA
ENDBRANCH  20  22
ENDBRANCH  19  20
ENDBRANCH   1  19
TORSDOF 6
ENDMDL
MODEL 3
REMARK VINA RESULT:      -7.0      0.178      1.068
REMARK  Name = 
REMARK  8 active torsions:
REMARK  status: ('A' for Active; 'I' for Inactive)
REMARK    1  A    between atoms: C_1  and  O_2
REMARK    2  A    between atoms: O_2  and  C_3
REMARK    3  A    between atoms: C_3  and  C_4
REMARK    4  A    between atoms: C_4  and  N_5
REMARK    5  A    between atoms: C_8  and  O_9
REMARK    6  A    between atoms: C_10  and  C_11
REMARK    7  A    between atoms: C_11  and  C_12
REMARK    8  A    between atoms: C_14  and  C_15
REMARK                            x       y       z     vdW  Elec       q    Type
REMARK                         _______ _______ _______ _____ _____    ______ ____
ROOT
ATOM      1  N   UNL     1       3.017   4.104  18.245  0.00  0.00    +0.000 N 
ATOM      2  C   UNL     1       4.171   3.500  18.678  0.00  0.00    +0.000 C 
ATOM      3  O   UNL     1       4.329   2.473  19.315  0.00  0.00    +0.000 OA
ATOM      4  C   UNL     1       5.306   4.342  18.236  0.00  0.00    +0.000 C 
ATOM      5  C   UNL     1       4.790   5.376  17.562  0.00  0.00    +0.000 C 
ATOM      6  C   UNL     1       3.283   5.345  17.532  0.00  0.00    +0.000 C 
ENDROOT
BRANCH   6   7
ATOM      7  C   UNL     1       2.629   6.559  18.189  0.00  0.00    +0.000 A 
ATOM      8  C   UNL     1       2.227   7.651  17.398  0.00  0.00    +0.000 A 
ATOM      9  C   UNL     1       1.727   8.814  17.987  0.00  0.00    +0.000 A 
ATOM     10  C   UNL     1       1.638   8.901  19.370  0.00  0.00    +0.000 A 
ATOM     11  F   UNL     1       1.207  10.036  19.935  0.00  0.00    +0.000 F 
ATOM     12  C   UNL     1       1.997   7.830  20.175  0.00  0.00    +0.000 A 
ATOM     13  C   UNL     1       2.465   6.654  19.586  0.00  0.00    +0.000 A 
ENDBRANCH   6   7
BRANCH   5  14
ATOM     14  C   UNL     1       5.490   6.494  16.898  0.00  0.00    +0.000 C 
ATOM     15  C   UNL     1       6.497   7.333  17.642  0.00  0.00    +0.000 C 
ATOM     16  O   UNL     1       5.187   6.776  15.736  0.00  0.00    +0.000 OA
ENDBRANCH   5  14
BRANCH   4  17
ATOM     17  O   UNL     1       6.601   4.022  18.496  0.00  0.00    +0.000 OA
ATOM     18  H   UNL     1       6.719   3.119  18.129  0.00  0.00    +0.000 HD
ENDBRANCH   4  17
BRANCH   1  19
ATOM     19  C   UNL     1       1.694   3.504  18.397  0.00  0.00    +0.000 C 
BRANCH  19  20
ATOM     20  C   UNL     1       1.065   3.657  19.787  0.00  0.00    +0.000 C 
BRANCH  20  22
ATOM     21  C   UNL     1       1.924   2.861  21.827  0.00  0.00    +0.000 C 
ATOM     22  O   UNL     1       1.302   2.504  20.596  0.00  0.00    +0.000 OA
ENDBRANCH  20  22
ENDBRANCH  19  20
ENDBRANCH   1  19
TORSDOF 6
ENDMDL
MODEL 4
REMARK VINA RESULT:      -7.0      2.234      4.812
REMARK  Name = 
REMARK  8 active torsions:
REMARK  status: ('A' for Active; 'I' for Inactive)
REMARK    1  A    between atoms: C_1  and  O_2
REMARK    2  A    between atoms: O_2  and  C_3
REMARK    3  A    between atoms: C_3  and  C_4
REMARK    4  A    between atoms: C_4  and  N_5
REMARK    5  A    between atoms: C_8  and  O_9
REMARK    6  A    between atoms: C_10  and  C_11
REMARK    7  A    between atoms: C_11  and  C_12
REMARK    8  A    between atoms: C_14  and  C_15
REMARK                            x       y       z     vdW  Elec       q    Type
REMARK                         _______ _______ _______ _____ _____    ______ ____
ROOT
ATOM      1  N   UNL     1       6.360   5.242  17.854  0.00  0.00    +0.000 N 
ATOM      2  C   UNL     1       6.734   4.649  16.673  0.00  0.00    +0.000 C 
ATOM      3  O   UNL     1       7.719   4.836  15.978  0.00  0.00    +0.000 OA
ATOM      4  C   UNL     1       5.685   3.669  16.316  0.00  0.00    +0.000 C 
ATOM      5  C   UNL     1       4.763   3.708  17.285  0.00  0.00    +0.000 C 
ATOM      6  C   UNL     1       5.085   4.736  18.339  0.00  0.00    +0.000 C 
ENDROOT
BRANCH   6   7
ATOM      7  C   UNL     1       4.027   5.830  18.475  0.00  0.00    +0.000 A 
ATOM      8  C   UNL     1       3.917   6.824  17.485  0.00  0.00    +0.000 A 
ATOM      9  C   UNL     1       3.033   7.894  17.641  0.00  0.00    +0.000 A 
ATOM     10  C   UNL     1       2.261   7.985  18.793  0.00  0.00    +0.000 A 
ATOM     11  F   UNL     1       1.452   9.037  18.964  0.00  0.00    +0.000 F 
ATOM     12  C   UNL     1       2.324   7.004  19.771  0.00  0.00    +0.000 A 
ATOM     13  C   UNL     1       3.183   5.917  19.601  0.00  0.00    +0.000 A 
ENDBRANCH   6   7
BRANCH   5  14
ATOM     14  C   UNL     1       3.525   2.915  17.421  0.00  0.00    +0.000 C 
ATOM     15  C   UNL     1       3.479   1.687  18.294  0.00  0.00    +0.000 C 
ATOM     16  O   UNL     1       2.540   3.236  16.752  0.00  0.00    +0.000 OA
ENDBRANCH   5  14
BRANCH   4  17
ATOM     17  O   UNL     1       5.751   2.898  15.199  0.00  0.00    +0.000 OA
ATOM     18  H   UNL     1       6.339   2.150  15.439  0.00  0.00    +0.000 HD
ENDBRANCH   4  17
BRANCH   1  19
ATOM     19  C   UNL     1       7.207   6.186  18.578  0.00  0.00    +0.000 C 
BRANCH  19  20
ATOM     20  C   UNL     1       7.550   7.472  17.815  0.00  0.00    +0.000 C 
BRANCH  20  22
ATOM     21  C   UNL     1       8.464   9.618  18.114  0.00  0.00    +0.000 C 
ATOM     22  O   UNL     1       8.515   8.253  18.520  0.00  0.00    +0.000 OA
ENDBRANCH  20  22
ENDBRANCH  19  20
ENDBRANCH   1  19
TORSDOF 6
ENDMDL
MODEL 5
REMARK VINA RESULT:      -6.9      2.116      4.750
REMARK  Name = 
REMARK  8 active torsions:
REMARK  status: ('A' for Active; 'I' for Inactive)
REMARK    1  A    between atoms: C_1  and  O_2
REMARK    2  A    between atoms: O_2  and  C_3
REMARK    3  A    between atoms: C_3  and  C_4
REMARK    4  A    between atoms: C_4  and  N_5
REMARK    5  A    between atoms: C_8  and  O_9
REMARK    6  A    between atoms: C_10  and  C_11
REMARK    7  A    between atoms: C_11  and  C_12
REMARK    8  A    between atoms: C_14  and  C_15
REMARK                            x       y       z     vdW  Elec       q    Type
REMARK                         _______ _______ _______ _____ _____    ______ ____
ROOT
ATOM      1  N   UNL     1       6.520   5.193  17.908  0.00  0.00    +0.000 N 
ATOM      2  C   UNL     1       6.839   4.558  16.734  0.00  0.00    +0.000 C 
ATOM      3  O   UNL     1       7.816   4.680  16.014  0.00  0.00    +0.000 OA
ATOM      4  C   UNL     1       5.736   3.622  16.420  0.00  0.00    +0.000 C 
ATOM      5  C   UNL     1       4.838   3.727  17.407  0.00  0.00    +0.000 C 
ATOM      6  C   UNL     1       5.231   4.761  18.430  0.00  0.00    +0.000 C 
ENDROOT
BRANCH   6   7
ATOM      7  C   UNL     1       4.231   5.908  18.562  0.00  0.00    +0.000 A 
ATOM      8  C   UNL     1       3.373   5.963  19.676  0.00  0.00    +0.000 A 
ATOM      9  C   UNL     1       2.378   6.939  19.765  0.00  0.00    +0.000 A 
ATOM     10  C   UNL     1       2.224   7.859  18.736  0.00  0.00    +0.000 A 
ATOM     11  F   UNL     1       1.237   8.761  18.798  0.00  0.00    +0.000 F 
ATOM     12  C   UNL     1       3.074   7.850  17.641  0.00  0.00    +0.000 A 
ATOM     13  C   UNL     1       4.090   6.896  17.566  0.00  0.00    +0.000 A 
ENDBRANCH   6   7
BRANCH   5  14
ATOM     14  C   UNL     1       3.565   2.999  17.586  0.00  0.00    +0.000 C 
ATOM     15  C   UNL     1       2.259   3.593  17.125  0.00  0.00    +0.000 C 
ATOM     16  O   UNL     1       3.579   1.921  18.183  0.00  0.00    +0.000 OA
ENDBRANCH   5  14
BRANCH   4  17
ATOM     17  O   UNL     1       5.741   2.825  15.320  0.00  0.00    +0.000 OA
ATOM     18  H   UNL     1       5.900   1.918  15.662  0.00  0.00    +0.000 HD
ENDBRANCH   4  17
BRANCH   1  19
ATOM     19  C   UNL     1       7.426   6.111  18.593  0.00  0.00    +0.000 C 
BRANCH  19  20
ATOM     20  C   UNL     1       7.717   7.418  17.847  0.00  0.00    +0.000 C 
BRANCH  20  22
ATOM     21  C   UNL     1       8.441   9.628  18.198  0.00  0.00    +0.000 C 
ATOM     22  O   UNL     1       8.577   8.270  18.605  0.00  0.00    +0.000 OA
ENDBRANCH  20  22
ENDBRANCH  19  20
ENDBRANCH   1  19
TORSDOF 6
ENDMDL
MODEL 6
REMARK VINA RESULT:      -6.7      1.421      4.511
REMARK  Name = 
REMARK  8 active torsions:
REMARK  status: ('A' for Active; 'I' for Inactive)
REMARK    1  A    between atoms: C_1  and  O_2
REMARK    2  A    between atoms: O_2  and  C_3
REMARK    3  A    between atoms: C_3  and  C_4
REMARK    4  A    between atoms: C_4  and  N_5
REMARK    5  A    between atoms: C_8  and  O_9
REMARK    6  A    between atoms: C_10  and  C_11
REMARK    7  A    between atoms: C_11  and  C_12
REMARK    8  A    between atoms: C_14  and  C_15
REMARK                            x       y       z     vdW  Elec       q    Type
REMARK                         _______ _______ _______ _____ _____    ______ ____
ROOT
ATOM      1  N   UNL     1       4.518   4.767  18.297  0.00  0.00    +0.000 N 
ATOM      2  C   UNL     1       4.266   3.652  17.535  0.00  0.00    +0.000 C 
ATOM      3  O   UNL     1       4.844   3.227  16.549  0.00  0.00    +0.000 OA
ATOM      4  C   UNL     1       3.086   2.974  18.117  0.00  0.00    +0.000 C 
ATOM      5  C   UNL     1       2.706   3.688  19.183  0.00  0.00    +0.000 C 
ATOM      6  C   UNL     1       3.557   4.916  19.380  0.00  0.00    +0.000 C 
ENDROOT
BRANCH   6   7
ATOM      7  C   UNL     1       2.775   6.226  19.303  0.00  0.00    +0.000 A 
ATOM      8  C   UNL     1       2.648   6.893  18.070  0.00  0.00    +0.000 A 
ATOM      9  C   UNL     1       2.033   8.145  17.995  0.00  0.00    +0.000 A 
ATOM     10  C   UNL     1       1.551   8.744  19.152  0.00  0.00    +0.000 A 
ATOM     11  F   UNL     1       1.007   9.966  19.086  0.00  0.00    +0.000 F 
ATOM     12  C   UNL     1       1.633   8.097  20.375  0.00  0.00    +0.000 A 
ATOM     13  C   UNL     1       2.218   6.832  20.447  0.00  0.00    +0.000 A 
ENDBRANCH   6   7
BRANCH   5  14
ATOM     14  C   UNL     1       1.597   3.434  20.124  0.00  0.00    +0.000 C 
ATOM     15  C   UNL     1       1.847   3.309  21.605  0.00  0.00    +0.000 C 
ATOM     16  O   UNL     1       0.464   3.257  19.670  0.00  0.00    +0.000 OA
ENDBRANCH   5  14
BRANCH   4  17
ATOM     17  O   UNL     1       2.574   1.825  17.603  0.00  0.00    +0.000 OA
ATOM     18  H   UNL     1       1.833   2.110  17.025  0.00  0.00    +0.000 HD
ENDBRANCH   4  17
BRANCH   1  19
ATOM     19  C   UNL     1       5.679   5.628  18.093  0.00  0.00    +0.000 C 
BRANCH  19  20
ATOM     20  C   UNL     1       5.858   6.155  16.664  0.00  0.00    +0.000 C 
BRANCH  20  22
ATOM     21  C   UNL     1       7.084   5.058  14.984  0.00  0.00    +0.000 C 
ATOM     22  O   UNL     1       7.161   5.858  16.160  0.00  0.00    +0.000 OA
ENDBRANCH  20  22
ENDBRANCH  19  20
ENDBRANCH   1  19
TORSDOF 6
ENDMDL
MODEL 7
REMARK VINA RESULT:      -6.7      2.577      5.190
REMARK  Name = 
REMARK  8 active torsions:
REMARK  status: ('A' for Active; 'I' for Inactive)
REMARK    1  A    between atoms: C_1  and  O_2
REMARK    2  A    between atoms: O_2  and  C_3
REMARK    3  A    between atoms: C_3  and  C_4
REMARK    4  A    between atoms: C_4  and  N_5
REMARK    5  A    between atoms: C_8  and  O_9
REMARK    6  A    between atoms: C_10  and  C_11
REMARK    7  A    between atoms: C_11  and  C_12
REMARK    8  A    between atoms: C_14  and  C_15
REMARK                            x       y       z     vdW  Elec       q    Type
REMARK                         _______ _______ _______ _____ _____    ______ ____
ROOT
ATOM      1  N   UNL     1       2.305   5.513  18.997  0.00  0.00    +0.000 N 
ATOM      2  C   UNL     1       1.955   5.283  20.305  0.00  0.00    +0.000 C 
ATOM      3  O   UNL     1       1.276   5.953  21.066  0.00  0.00    +0.000 OA
ATOM      4  C   UNL     1       2.572   4.001  20.712  0.00  0.00    +0.000 C 
ATOM      5  C   UNL     1       3.232   3.527  19.650  0.00  0.00    +0.000 C 
ATOM      6  C   UNL     1       3.157   4.459  18.467  0.00  0.00    +0.000 C 
ENDROOT
BRANCH   6   7
ATOM      7  C   UNL     1       4.518   4.974  18.002  0.00  0.00    +0.000 A 
ATOM      8  C   UNL     1       5.490   5.341  18.952  0.00  0.00    +0.000 A 
ATOM      9  C   UNL     1       6.698   5.916  18.553  0.00  0.00    +0.000 A 
ATOM     10  C   UNL     1       6.940   6.141  17.204  0.00  0.00    +0.000 A 
ATOM     11  F   UNL     1       8.077   6.739  16.827  0.00  0.00    +0.000 F 
ATOM     12  C   UNL     1       6.015   5.762  16.243  0.00  0.00    +0.000 A 
ATOM     13  C   UNL     1       4.821   5.157  16.637  0.00  0.00    +0.000 A 
ENDBRANCH   6   7
BRANCH   5  14
ATOM     14  C   UNL     1       4.002   2.273  19.518  0.00  0.00    +0.000 C 
ATOM     15  C   UNL     1       3.732   1.310  18.390  0.00  0.00    +0.000 C 
ATOM     16  O   UNL     1       4.828   1.992  20.389  0.00  0.00    +0.000 OA
ENDBRANCH   5  14
BRANCH   4  17
ATOM     17  O   UNL     1       2.413   3.473  21.954  0.00  0.00    +0.000 OA
ATOM     18  H   UNL     1       2.486   2.502  21.830  0.00  0.00    +0.000 HD
ENDBRANCH   4  17
BRANCH   1  19
ATOM     19  C   UNL     1       1.788   6.632  18.216  0.00  0.00    +0.000 C 
BRANCH  19  20
ATOM     20  C   UNL     1       2.607   7.926  18.306  0.00  0.00    +0.000 C 
BRANCH  20  22
ATOM     21  C   UNL     1       1.645  10.060  18.081  0.00  0.00    +0.000 C 
ATOM     22  O   UNL     1       2.126   8.911  17.391  0.00  0.00    +0.000 OA
ENDBRANCH  20  22
ENDBRANCH  19  20
ENDBRANCH   1  19
TORSDOF 6
ENDMDL
MODEL 8
REMARK VINA RESULT:      -6.7      3.168      5.643
REMARK  Name = 
REMARK  8 active torsions:
REMARK  status: ('A' for Active; 'I' for Inactive)
REMARK    1  A    between atoms: C_1  and  O_2
REMARK    2  A    between atoms: O_2  and  C_3
REMARK    3  A    between atoms: C_3  and  C_4
REMARK    4  A    between atoms: C_4  and  N_5
REMARK    5  A    between atoms: C_8  and  O_9
REMARK    6  A    between atoms: C_10  and  C_11
REMARK    7  A    between atoms: C_11  and  C_12
REMARK    8  A    between atoms: C_14  and  C_15
REMARK                            x       y       z     vdW  Elec       q    Type
REMARK                         _______ _______ _______ _____ _____    ______ ____
ROOT
ATOM      1  N   UNL     1       2.668   6.666  18.636  0.00  0.00    +0.000 N 
ATOM      2  C   UNL     1       2.008   6.449  19.821  0.00  0.00    +0.000 C 
ATOM      3  O   UNL     1       1.631   7.242  20.667  0.00  0.00    +0.000 OA
ATOM      4  C   UNL     1       1.802   4.989  19.953  0.00  0.00    +0.000 C 
ATOM      5  C   UNL     1       2.321   4.417  18.861  0.00  0.00    +0.000 C 
ATOM      6  C   UNL     1       2.954   5.424  17.934  0.00  0.00    +0.000 C 
ENDROOT
BRANCH   6   7
ATOM      7  C   UNL     1       4.448   5.200  17.709  0.00  0.00    +0.000 A 
ATOM      8  C   UNL     1       4.903   4.707  16.472  0.00  0.00    +0.000 A 
ATOM      9  C   UNL     1       6.249   4.391  16.279  0.00  0.00    +0.000 A 
ATOM     10  C   UNL     1       7.149   4.554  17.325  0.00  0.00    +0.000 A 
ATOM     11  F   UNL     1       8.430   4.203  17.155  0.00  0.00    +0.000 F 
ATOM     12  C   UNL     1       6.737   5.067  18.545  0.00  0.00    +0.000 A 
ATOM     13  C   UNL     1       5.397   5.413  18.729  0.00  0.00    +0.000 A 
ENDBRANCH   6   7
BRANCH   5  14
ATOM     14  C   UNL     1       2.361   2.988  18.490  0.00  0.00    +0.000 C 
ATOM     15  C   UNL     1       3.312   2.035  19.167  0.00  0.00    +0.000 C 
ATOM     16  O   UNL     1       1.645   2.597  17.565  0.00  0.00    +0.000 OA
ENDBRANCH   5  14
BRANCH   4  17
ATOM     17  O   UNL     1       1.166   4.432  21.017  0.00  0.00    +0.000 OA
ATOM     18  H   UNL     1       0.242   4.291  20.717  0.00  0.00    +0.000 HD
ENDBRANCH   4  17
BRANCH   1  19
ATOM     19  C   UNL     1       2.946   7.999  18.109  0.00  0.00    +0.000 C 
BRANCH  19  20
ATOM     20  C   UNL     1       1.711   8.806  17.689  0.00  0.00    +0.000 C 
BRANCH  20  22
ATOM     21  C   UNL     1       0.301  10.107  19.049  0.00  0.00    +0.000 C 
ATOM     22  O   UNL     1       1.591  10.007  18.452  0.00  0.00    +0.000 OA
ENDBRANCH  20  22
ENDBRANCH  19  20
ENDBRANCH   1  19
TORSDOF 6
ENDMDL
MODEL 9
REMARK VINA RESULT:      -6.7      1.542      4.331
REMARK  Name = 
REMARK  8 active torsions:
REMARK  status: ('A' for Active; 'I' for Inactive)
REMARK    1  A    between atoms: C_1  and  O_2
REMARK    2  A    between atoms: O_2  and  C_3
REMARK    3  A    between atoms: C_3  and  C_4
REMARK    4  A    between atoms: C_4  and  N_5
REMARK    5  A    between atoms: C_8  and  O_9
REMARK    6  A    between atoms: C_10  and  C_11
REMARK    7  A    between atoms: C_11  and  C_12
REMARK    8  A    between atoms: C_14  and  C_15
REMARK                            x       y       z     vdW  Elec       q    Type
REMARK                         _______ _______ _______ _____ _____    ______ ____
ROOT
ATOM      1  N   UNL     1       4.475   5.309  17.999  0.00  0.00    +0.000 N 
ATOM      2  C   UNL     1       4.162   4.249  17.183  0.00  0.00    +0.000 C 
ATOM      3  O   UNL     1       4.674   3.885  16.138  0.00  0.00    +0.000 OA
ATOM      4  C   UNL     1       3.010   3.546  17.789  0.00  0.00    +0.000 C 
ATOM      5  C   UNL     1       2.705   4.192  18.921  0.00  0.00    +0.000 C 
ATOM      6  C   UNL     1       3.583   5.396  19.146  0.00  0.00    +0.000 C 
ENDROOT
BRANCH   6   7
ATOM      7  C   UNL     1       2.816   6.715  19.202  0.00  0.00    +0.000 A 
ATOM      8  C   UNL     1       2.222   7.129  20.409  0.00  0.00    +0.000 A 
ATOM      9  C   UNL     1       1.425   8.274  20.458  0.00  0.00    +0.000 A 
ATOM     10  C   UNL     1       1.205   9.009  19.299  0.00  0.00    +0.000 A 
ATOM     11  F   UNL     1       0.400  10.077  19.337  0.00  0.00    +0.000 F 
ATOM     12  C   UNL     1       1.802   8.644  18.102  0.00  0.00    +0.000 A 
ATOM     13  C   UNL     1       2.625   7.518  18.058  0.00  0.00    +0.000 A 
ENDBRANCH   6   7
BRANCH   5  14
ATOM     14  C   UNL     1       1.651   3.887  19.909  0.00  0.00    +0.000 C 
ATOM     15  C   UNL     1       1.981   3.715  21.370  0.00  0.00    +0.000 C 
ATOM     16  O   UNL     1       0.499   3.707  19.509  0.00  0.00    +0.000 OA
ENDBRANCH   5  14
BRANCH   4  17
ATOM     17  O   UNL     1       2.453   2.438  17.234  0.00  0.00    +0.000 OA
ATOM     18  H   UNL     1       2.144   2.724  16.347  0.00  0.00    +0.000 HD
ENDBRANCH   4  17
BRANCH   1  19
ATOM     19  C   UNL     1       5.633   6.171  17.782  0.00  0.00    +0.000 C 
BRANCH  19  20
ATOM     20  C   UNL     1       6.939   5.680  18.419  0.00  0.00    +0.000 C 
BRANCH  20  22
ATOM     21  C   UNL     1       7.674   7.742  17.560  0.00  0.00    +0.000 C 
ATOM     22  O   UNL     1       7.884   6.743  18.553  0.00  0.00    +0.000 OA
ENDBRANCH  20  22
ENDBRANCH  19  20
ENDBRANCH   1  19
TORSDOF 6
ENDMDL
