MODEL 1
REMARK VINA RESULT:      -8.9      0.000      0.000
REMARK  Name = 
REMARK  7 active torsions:
REMARK  status: ('A' for Active; 'I' for Inactive)
REMARK    1  A    between atoms: C_1  and  C_2
REMARK    2  A    between atoms: C_2  and  C_3
REMARK    3  A    between atoms: C_7  and  C_8
REMARK    4  A    between atoms: C_13  and  C_14
REMARK    5  A    between atoms: N_16  and  C_17
REMARK    6  A    between atoms: C_19  and  C_20
REMARK    7  A    between atoms: C_21  and  C_22
REMARK                            x       y       z     vdW  Elec       q    Type
REMARK                         _______ _______ _______ _____ _____    ______ ____
ROOT
ATOM      1  C   UNL     1       3.545   2.789  20.238  0.00  0.00    +0.000 A 
ATOM      2  N   UNL     1       2.824   2.435  21.328  0.00  0.00    +0.000 NA
ATOM      3  C   UNL     1       1.965   3.346  21.803  0.00  0.00    +0.000 A 
ATOM      4  N   UNL     1       1.735   4.558  21.282  0.00  0.00    +0.000 NA
ATOM      5  C   UNL     1       2.456   4.899  20.185  0.00  0.00    +0.000 A 
ATOM      6  C   UNL     1       3.415   4.035  19.634  0.00  0.00    +0.000 A 
ENDROOT
BRANCH   5   7
ATOM      7  C   UNL     1       2.158   6.259  19.664  0.00  0.00    +0.000 A 
ATOM      8  C   UNL     1       2.414   6.619  18.333  0.00  0.00    +0.000 A 
ATOM      9  C   UNL     1       2.307   7.940  17.899  0.00  0.00    +0.000 A 
ATOM     10  C   UNL     1       1.861   8.936  18.767  0.00  0.00    +0.000 A 
ATOM     11 CL   UNL     1       1.895  10.549  18.141  0.00  0.00    +0.000 Cl
ATOM     12  C   UNL     1       1.466   8.599  20.068  0.00  0.00    +0.000 A 
ATOM     13  C   UNL     1       1.624   7.263  20.501  0.00  0.00    +0.000 A 
BRANCH  12  14
ATOM     14  C   UNL     1       0.926   9.565  21.070  0.00  0.00    +0.000 C 
ATOM     15  O   UNL     1       1.518   9.727  22.133  0.00  0.00    +0.000 OA
ATOM     16  N   UNL     1      -0.239  10.226  20.756  0.00  0.00    +0.000 N 
ATOM     17  C   UNL     1      -0.812  11.249  21.595  0.00  0.00    +0.000 C 
ATOM     18  H   UNL     1      -0.658  10.083  19.845  0.00  0.00    +0.000 HD
ENDBRANCH  12  14
ENDBRANCH   5   7
BRANCH   1  20
ATOM     19  C   UNL     1       3.837   1.057  18.466  0.00  0.00    +0.000 C 
ATOM     20  C   UNL     1       4.454   1.712  19.694  0.00  0.00    +0.000 C 
ENDBRANCH   1  20
BRANCH   6  21
ATOM     21  C   UNL     1       4.230   4.402  18.505  0.00  0.00    +0.000 C 
ATOM     22  C   UNL     1       4.895   4.632  17.530  0.00  0.00    +0.000 C 
BRANCH  22  23
ATOM     23  C   UNL     1       5.661   4.808  16.335  0.00  0.00    +0.000 A 
ATOM     24  C   UNL     1       5.264   4.226  15.136  0.00  0.00    +0.000 A 
ATOM     25  C   UNL     1       6.054   4.400  13.997  0.00  0.00    +0.000 A 
ATOM     26  C   UNL     1       7.220   5.145  14.094  0.00  0.00    +0.000 A 
ATOM     27  N   UNL     1       8.008   5.379  12.971  0.00  0.00    +0.000 N 
ATOM     28  N   UNL     1       7.623   5.717  15.240  0.00  0.00    +0.000 NA
ATOM     29  C   UNL     1       6.839   5.538  16.333  0.00  0.00    +0.000 A 
ATOM     30  H   UNL     1       8.249   4.524  12.481  0.00  0.00    +0.000 HD
ATOM     31  H   UNL     1       8.828   5.890  13.277  0.00  0.00    +0.000 HD
ENDBRANCH  22  23
ENDBRANCH   6  21
TORSDOF 5
ENDMDL
MODEL 2
REMARK VINA RESULT:      -8.7      2.906      6.390
REMARK  Name = 
REMARK  7 active torsions:
REMARK  status: ('A' for Active; 'I' for Inactive)
REMARK    1  A    between atoms: C_1  and  C_2
REMARK    2  A    between atoms: C_2  and  C_3
REMARK    3  A    between atoms: C_7  and  C_8
REMARK    4  A    between atoms: C_13  and  C_14
REMARK    5  A    between atoms: N_16  and  C_17
REMARK    6  A    between atoms: C_19  and  C_20
REMARK    7  A    between atoms: C_21  and  C_22
REMARK                            x       y       z     vdW  Elec       q    Type
REMARK                         _______ _______ _______ _____ _____    ______ ____
ROOT
ATOM      1  C   UNL     1       2.016   3.045  19.504  0.00  0.00    +0.000 A 
ATOM      2  N   UNL     1       2.143   1.699  19.413  0.00  0.00    +0.000 NA
ATOM      3  C   UNL     1       3.082   1.239  18.576  0.00  0.00    +0.000 A 
ATOM      4  N   UNL     1       3.922   1.987  17.849  0.00  0.00    +0.000 NA
ATOM      5  C   UNL     1       3.793   3.333  17.955  0.00  0.00    +0.000 A 
ATOM      6  C   UNL     1       2.811   3.918  18.770  0.00  0.00    +0.000 A 
ENDROOT
BRANCH   5   7
ATOM      7  C   UNL     1       4.750   4.100  17.116  0.00  0.00    +0.000 A 
ATOM      8  C   UNL     1       4.886   3.868  15.740  0.00  0.00    +0.000 A 
ATOM      9  C   UNL     1       5.908   4.455  14.995  0.00  0.00    +0.000 A 
ATOM     10  C   UNL     1       6.785   5.362  15.591  0.00  0.00    +0.000 A 
ATOM     11 CL   UNL     1       8.082   5.919  14.590  0.00  0.00    +0.000 Cl
ATOM     12  C   UNL     1       6.604   5.727  16.931  0.00  0.00    +0.000 A 
ATOM     13  C   UNL     1       5.590   5.086  17.678  0.00  0.00    +0.000 A 
BRANCH  12  14
ATOM     14  C   UNL     1       7.444   6.721  17.663  0.00  0.00    +0.000 C 
ATOM     15  O   UNL     1       8.138   6.350  18.604  0.00  0.00    +0.000 OA
ATOM     16  N   UNL     1       7.385   8.032  17.249  0.00  0.00    +0.000 N 
ATOM     17  C   UNL     1       8.214   9.070  17.811  0.00  0.00    +0.000 C 
ATOM     18  H   UNL     1       6.827   8.270  16.438  0.00  0.00    +0.000 HD
ENDBRANCH  12  14
ENDBRANCH   5   7
BRANCH   1  20
ATOM     19  C   UNL     1       1.214   2.866  21.861  0.00  0.00    +0.000 C 
ATOM     20  C   UNL     1       0.992   3.524  20.506  0.00  0.00    +0.000 C 
ENDBRANCH   1  20
BRANCH   6  21
ATOM     21  C   UNL     1       2.621   5.343  18.852  0.00  0.00    +0.000 C 
ATOM     22  C   UNL     1       2.401   6.525  18.863  0.00  0.00    +0.000 C 
BRANCH  22  23
ATOM     23  C   UNL     1       2.063   7.913  18.805  0.00  0.00    +0.000 A 
ATOM     24  C   UNL     1       1.398   8.535  19.856  0.00  0.00    +0.000 A 
ATOM     25  C   UNL     1       1.062   9.886  19.750  0.00  0.00    +0.000 A 
ATOM     26  C   UNL     1       1.394  10.573  18.591  0.00  0.00    +0.000 A 
ATOM     27  N   UNL     1       1.116  11.930  18.467  0.00  0.00    +0.000 N 
ATOM     28  N   UNL     1       2.034   9.994  17.562  0.00  0.00    +0.000 NA
ATOM     29  C   UNL     1       2.355   8.682  17.689  0.00  0.00    +0.000 A 
ATOM     30  H   UNL     1       0.146  12.149  18.666  0.00  0.00    +0.000 HD
ATOM     31  H   UNL     1       1.389  12.212  17.532  0.00  0.00    +0.000 HD
ENDBRANCH  22  23
ENDBRANCH   6  21
TORSDOF 5
ENDMDL
MODEL 3
REMARK VINA RESULT:      -8.1      2.862      7.015
REMARK  Name = 
REMARK  7 active torsions:
REMARK  status: ('A' for Active; 'I' for Inactive)
REMARK    1  A    between atoms: C_1  and  C_2
REMARK    2  A    between atoms: C_2  and  C_3
REMARK    3  A    between atoms: C_7  and  C_8
REMARK    4  A    between atoms: C_13  and  C_14
REMARK    5  A    between atoms: N_16  and  C_17
REMARK    6  A    between atoms: C_19  and  C_20
REMARK    7  A    between atoms: C_21  and  C_22
REMARK                            x       y       z     vdW  Elec       q    Type
REMARK                         _______ _______ _______ _____ _____    ______ ____
ROOT
ATOM      1  C   UNL     1       2.148   2.756  19.601  0.00  0.00    +0.000 A 
ATOM      2  N   UNL     1       2.414   1.443  19.404  0.00  0.00    +0.000 NA
ATOM      3  C   UNL     1       3.570   1.149  18.792  0.00  0.00    +0.000 A 
ATOM      4  N   UNL     1       4.493   2.031  18.389  0.00  0.00    +0.000 NA
ATOM      5  C   UNL     1       4.220   3.343  18.600  0.00  0.00    +0.000 A 
ATOM      6  C   UNL     1       3.018   3.761  19.192  0.00  0.00    +0.000 A 
ENDROOT
BRANCH   5   7
ATOM      7  C   UNL     1       5.282   4.266  18.121  0.00  0.00    +0.000 A 
ATOM      8  C   UNL     1       5.850   5.243  18.952  0.00  0.00    +0.000 A 
ATOM      9  C   UNL     1       6.707   6.223  18.450  0.00  0.00    +0.000 A 
ATOM     10  C   UNL     1       7.088   6.209  17.109  0.00  0.00    +0.000 A 
ATOM     11 CL   UNL     1       8.050   7.550  16.589  0.00  0.00    +0.000 Cl
ATOM     12  C   UNL     1       6.652   5.174  16.272  0.00  0.00    +0.000 A 
ATOM     13  C   UNL     1       5.749   4.217  16.790  0.00  0.00    +0.000 A 
BRANCH  12  14
ATOM     14  C   UNL     1       7.032   5.023  14.837  0.00  0.00    +0.000 C 
ATOM     15  O   UNL     1       7.994   5.645  14.396  0.00  0.00    +0.000 OA
ATOM     16  N   UNL     1       6.260   4.193  14.057  0.00  0.00    +0.000 N 
ATOM     17  C   UNL     1       6.574   3.890  12.683  0.00  0.00    +0.000 C 
ATOM     18  H   UNL     1       5.504   3.672  14.487  0.00  0.00    +0.000 HD
ENDBRANCH  12  14
ENDBRANCH   5   7
BRANCH   1  20
ATOM     19  C   UNL     1       1.052   2.802  21.842  0.00  0.00    +0.000 C 
ATOM     20  C   UNL     1       0.868   3.044  20.350  0.00  0.00    +0.000 C 
ENDBRANCH   1  20
BRANCH   6  21
ATOM     21  C   UNL     1       2.685   5.150  19.372  0.00  0.00    +0.000 C 
ATOM     22  C   UNL     1       2.367   6.307  19.449  0.00  0.00    +0.000 C 
BRANCH  22  23
ATOM     23  C   UNL     1       1.938   7.671  19.448  0.00  0.00    +0.000 A 
ATOM     24  C   UNL     1       2.042   8.455  18.304  0.00  0.00    +0.000 A 
ATOM     25  C   UNL     1       1.637   9.791  18.352  0.00  0.00    +0.000 A 
ATOM     26  C   UNL     1       1.147  10.305  19.544  0.00  0.00    +0.000 A 
ATOM     27  N   UNL     1       0.692  11.617  19.617  0.00  0.00    +0.000 N 
ATOM     28  N   UNL     1       1.039   9.568  20.661  0.00  0.00    +0.000 NA
ATOM     29  C   UNL     1       1.434   8.271  20.591  0.00  0.00    +0.000 A 
ATOM     30  H   UNL     1       1.372  12.285  19.271  0.00  0.00    +0.000 HD
ATOM     31  H   UNL     1       0.435  11.796  20.582  0.00  0.00    +0.000 HD
ENDBRANCH  22  23
ENDBRANCH   6  21
TORSDOF 5
ENDMDL
MODEL 4
REMARK VINA RESULT:      -8.1      2.628      6.682
REMARK  Name = 
REMARK  7 active torsions:
REMARK  status: ('A' for Active; 'I' for Inactive)
REMARK    1  A    between atoms: C_1  and  C_2
REMARK    2  A    between atoms: C_2  and  C_3
REMARK    3  A    between atoms: C_7  and  C_8
REMARK    4  A    between atoms: C_13  and  C_14
REMARK    5  A    between atoms: N_16  and  C_17
REMARK    6  A    between atoms: C_19  and  C_20
REMARK    7  A    between atoms: C_21  and  C_22
REMARK                            x       y       z     vdW  Elec       q    Type
REMARK                         _______ _______ _______ _____ _____    ______ ____
ROOT
ATOM      1  C   UNL     1       2.680   3.182  20.550  0.00  0.00    +0.000 A 
ATOM      2  N   UNL     1       3.163   1.955  20.858  0.00  0.00    +0.000 NA
ATOM      3  C   UNL     1       4.424   1.695  20.488  0.00  0.00    +0.000 A 
ATOM      4  N   UNL     1       5.253   2.546  19.871  0.00  0.00    +0.000 NA
ATOM      5  C   UNL     1       4.763   3.775  19.575  0.00  0.00    +0.000 A 
ATOM      6  C   UNL     1       3.440   4.134  19.879  0.00  0.00    +0.000 A 
ENDROOT
BRANCH   5   7
ATOM      7  C   UNL     1       5.733   4.664  18.884  0.00  0.00    +0.000 A 
ATOM      8  C   UNL     1       6.661   5.444  19.589  0.00  0.00    +0.000 A 
ATOM      9  C   UNL     1       7.439   6.410  18.951  0.00  0.00    +0.000 A 
ATOM     10  C   UNL     1       7.372   6.572  17.567  0.00  0.00    +0.000 A 
ATOM     11 CL   UNL     1       8.292   7.887  16.920  0.00  0.00    +0.000 Cl
ATOM     12  C   UNL     1       6.558   5.724  16.806  0.00  0.00    +0.000 A 
ATOM     13  C   UNL     1       5.745   4.782  17.477  0.00  0.00    +0.000 A 
BRANCH  12  14
ATOM     14  C   UNL     1       6.440   5.766  15.319  0.00  0.00    +0.000 C 
ATOM     15  O   UNL     1       5.480   6.331  14.804  0.00  0.00    +0.000 OA
ATOM     16  N   UNL     1       7.423   5.144  14.584  0.00  0.00    +0.000 N 
ATOM     17  C   UNL     1       7.475   5.193  13.143  0.00  0.00    +0.000 C 
ATOM     18  H   UNL     1       8.214   4.732  15.064  0.00  0.00    +0.000 HD
ENDBRANCH  12  14
ENDBRANCH   5   7
BRANCH   1  20
ATOM     19  C   UNL     1       0.264   3.242  19.926  0.00  0.00    +0.000 C 
ATOM     20  C   UNL     1       1.278   3.460  21.041  0.00  0.00    +0.000 C 
ENDBRANCH   1  20
BRANCH   6  21
ATOM     21  C   UNL     1       2.883   5.413  19.522  0.00  0.00    +0.000 C 
ATOM     22  C   UNL     1       2.470   6.516  19.280  0.00  0.00    +0.000 C 
BRANCH  22  23
ATOM     23  C   UNL     1       2.045   7.864  19.066  0.00  0.00    +0.000 A 
ATOM     24  C   UNL     1       2.346   8.532  17.884  0.00  0.00    +0.000 A 
ATOM     25  C   UNL     1       1.937   9.857  17.724  0.00  0.00    +0.000 A 
ATOM     26  C   UNL     1       1.246  10.479  18.755  0.00  0.00    +0.000 A 
ATOM     27  N   UNL     1       0.783  11.782  18.614  0.00  0.00    +0.000 N 
ATOM     28  N   UNL     1       0.945   9.855  19.905  0.00  0.00    +0.000 NA
ATOM     29  C   UNL     1       1.349   8.566  20.038  0.00  0.00    +0.000 A 
ATOM     30  H   UNL     1       1.512  12.425  18.325  0.00  0.00    +0.000 HD
ATOM     31  H   UNL     1       0.362  12.052  19.496  0.00  0.00    +0.000 HD
ENDBRANCH  22  23
ENDBRANCH   6  21
TORSDOF 5
ENDMDL
MODEL 5
REMARK VINA RESULT:      -8.0      2.952      6.767
REMARK  Name = 
REMARK  7 active torsions:
REMARK  status: ('A' for Active; 'I' for Inactive)
REMARK    1  A    between atoms: C_1  and  C_2
REMARK    2  A    between atoms: C_2  and  C_3
REMARK    3  A    between atoms: C_7  and  C_8
REMARK    4  A    between atoms: C_13  and  C_14
REMARK    5  A    between atoms: N_16  and  C_17
REMARK    6  A    between atoms: C_19  and  C_20
REMARK    7  A    between atoms: C_21  and  C_22
REMARK                            x       y       z     vdW  Elec       q    Type
REMARK                         _______ _______ _______ _____ _____    ______ ____
ROOT
ATOM      1  C   UNL     1       2.679   3.180  20.528  0.00  0.00    +0.000 A 
ATOM      2  N   UNL     1       3.134   1.942  20.835  0.00  0.00    +0.000 NA
ATOM      3  C   UNL     1       4.377   1.642  20.437  0.00  0.00    +0.000 A 
ATOM      4  N   UNL     1       5.216   2.463  19.793  0.00  0.00    +0.000 NA
ATOM      5  C   UNL     1       4.754   3.704  19.499  0.00  0.00    +0.000 A 
ATOM      6  C   UNL     1       3.450   4.104  19.831  0.00  0.00    +0.000 A 
ENDROOT
BRANCH   5   7
ATOM      7  C   UNL     1       5.733   4.559  18.777  0.00  0.00    +0.000 A 
ATOM      8  C   UNL     1       6.451   5.576  19.423  0.00  0.00    +0.000 A 
ATOM      9  C   UNL     1       7.225   6.491  18.710  0.00  0.00    +0.000 A 
ATOM     10  C   UNL     1       7.370   6.370  17.328  0.00  0.00    +0.000 A 
ATOM     11 CL   UNL     1       8.250   7.641  16.552  0.00  0.00    +0.000 Cl
ATOM     12  C   UNL     1       6.779   5.291  16.659  0.00  0.00    +0.000 A 
ATOM     13  C   UNL     1       5.963   4.401  17.394  0.00  0.00    +0.000 A 
BRANCH  12  14
ATOM     14  C   UNL     1       6.903   5.027  15.195  0.00  0.00    +0.000 C 
ATOM     15  O   UNL     1       7.801   5.567  14.556  0.00  0.00    +0.000 OA
ATOM     16  N   UNL     1       5.978   4.188  14.618  0.00  0.00    +0.000 N 
ATOM     17  C   UNL     1       6.042   3.779  13.237  0.00  0.00    +0.000 C 
ATOM     18  H   UNL     1       5.286   3.736  15.205  0.00  0.00    +0.000 HD
ENDBRANCH  12  14
ENDBRANCH   5   7
BRANCH   1  20
ATOM     19  C   UNL     1       0.240   3.202  19.996  0.00  0.00    +0.000 C 
ATOM     20  C   UNL     1       1.298   3.502  21.049  0.00  0.00    +0.000 C 
ENDBRANCH   1  20
BRANCH   6  21
ATOM     21  C   UNL     1       2.922   5.395  19.476  0.00  0.00    +0.000 C 
ATOM     22  C   UNL     1       2.525   6.506  19.244  0.00  0.00    +0.000 C 
BRANCH  22  23
ATOM     23  C   UNL     1       2.112   7.861  19.049  0.00  0.00    +0.000 A 
ATOM     24  C   UNL     1       1.380   8.535  20.021  0.00  0.00    +0.000 A 
ATOM     25  C   UNL     1       0.972   9.849  19.781  0.00  0.00    +0.000 A 
ATOM     26  C   UNL     1       1.303  10.448  18.573  0.00  0.00    +0.000 A 
ATOM     27  N   UNL     1       0.955  11.770  18.318  0.00  0.00    +0.000 N 
ATOM     28  N   UNL     1       2.008   9.817  17.620  0.00  0.00    +0.000 NA
ATOM     29  C   UNL     1       2.397   8.542  17.876  0.00  0.00    +0.000 A 
ATOM     30  H   UNL     1      -0.032  11.948  18.470  0.00  0.00    +0.000 HD
ATOM     31  H   UNL     1       1.241  11.981  17.368  0.00  0.00    +0.000 HD
ENDBRANCH  22  23
ENDBRANCH   6  21
TORSDOF 5
ENDMDL
MODEL 6
REMARK VINA RESULT:      -7.6      2.580      7.034
REMARK  Name = 
REMARK  7 active torsions:
REMARK  status: ('A' for Active; 'I' for Inactive)
REMARK    1  A    between atoms: C_1  and  C_2
REMARK    2  A    between atoms: C_2  and  C_3
REMARK    3  A    between atoms: C_7  and  C_8
REMARK    4  A    between atoms: C_13  and  C_14
REMARK    5  A    between atoms: N_16  and  C_17
REMARK    6  A    between atoms: C_19  and  C_20
REMARK    7  A    between atoms: C_21  and  C_22
REMARK                            x       y       z     vdW  Elec       q    Type
REMARK                         _______ _______ _______ _____ _____    ______ ____
ROOT
ATOM      1  C   UNL     1       2.397   2.921  20.041  0.00  0.00    +0.000 A 
ATOM      2  N   UNL     1       2.732   1.613  19.939  0.00  0.00    +0.000 NA
ATOM      3  C   UNL     1       3.915   1.337  19.373  0.00  0.00    +0.000 A 
ATOM      4  N   UNL     1       4.803   2.236  18.930  0.00  0.00    +0.000 NA
ATOM      5  C   UNL     1       4.462   3.543  19.045  0.00  0.00    +0.000 A 
ATOM      6  C   UNL     1       3.227   3.939  19.582  0.00  0.00    +0.000 A 
ENDROOT
BRANCH   5   7
ATOM      7  C   UNL     1       5.489   4.484  18.526  0.00  0.00    +0.000 A 
ATOM      8  C   UNL     1       6.309   5.236  19.380  0.00  0.00    +0.000 A 
ATOM      9  C   UNL     1       7.137   6.248  18.895  0.00  0.00    +0.000 A 
ATOM     10  C   UNL     1       7.232   6.489  17.525  0.00  0.00    +0.000 A 
ATOM     11 CL   UNL     1       8.194   7.852  17.068  0.00  0.00    +0.000 Cl
ATOM     12  C   UNL     1       6.532   5.675  16.625  0.00  0.00    +0.000 A 
ATOM     13  C   UNL     1       5.665   4.684  17.140  0.00  0.00    +0.000 A 
BRANCH  12  14
ATOM     14  C   UNL     1       6.591   5.802  15.140  0.00  0.00    +0.000 C 
ATOM     15  O   UNL     1       5.653   6.317  14.538  0.00  0.00    +0.000 OA
ATOM     16  N   UNL     1       7.708   5.312  14.502  0.00  0.00    +0.000 N 
ATOM     17  C   UNL     1       7.929   5.456  13.084  0.00  0.00    +0.000 C 
ATOM     18  H   UNL     1       8.469   4.937  15.055  0.00  0.00    +0.000 HD
ENDBRANCH  12  14
ENDBRANCH   5   7
BRANCH   1  20
ATOM     19  C   UNL     1       1.090   2.593  22.141  0.00  0.00    +0.000 C 
ATOM     20  C   UNL     1       1.087   3.194  20.742  0.00  0.00    +0.000 C 
ENDBRANCH   1  20
BRANCH   6  21
ATOM     21  C   UNL     1       2.823   5.319  19.660  0.00  0.00    +0.000 C 
ATOM     22  C   UNL     1       2.416   6.445  19.765  0.00  0.00    +0.000 C 
BRANCH  22  23
ATOM     23  C   UNL     1       1.848   7.746  19.941  0.00  0.00    +0.000 A 
ATOM     24  C   UNL     1       1.283   8.124  21.155  0.00  0.00    +0.000 A 
ATOM     25  C   UNL     1       0.714   9.393  21.278  0.00  0.00    +0.000 A 
ATOM     26  C   UNL     1       0.720  10.244  20.181  0.00  0.00    +0.000 A 
ATOM     27  N   UNL     1       0.205  11.532  20.280  0.00  0.00    +0.000 N 
ATOM     28  N   UNL     1       1.258   9.901  19.000  0.00  0.00    +0.000 NA
ATOM     29  C   UNL     1       1.809   8.664  18.904  0.00  0.00    +0.000 A 
ATOM     30  H   UNL     1      -0.739  11.545  20.653  0.00  0.00    +0.000 HD
ATOM     31  H   UNL     1       0.259  11.952  19.358  0.00  0.00    +0.000 HD
ENDBRANCH  22  23
ENDBRANCH   6  21
TORSDOF 5
ENDMDL
MODEL 7
REMARK VINA RESULT:      -7.5      6.673     11.166
REMARK  Name = 
REMARK  7 active torsions:
REMARK  status: ('A' for Active; 'I' for Inactive)
REMARK    1  A    between atoms: C_1  and  C_2
REMARK    2  A    between atoms: C_2  and  C_3
REMARK    3  A    between atoms: C_7  and  C_8
REMARK    4  A    between atoms: C_13  and  C_14
REMARK    5  A    between atoms: N_16  and  C_17
REMARK    6  A    between atoms: C_19  and  C_20
REMARK    7  A    between atoms: C_21  and  C_22
REMARK                            x       y       z     vdW  Elec       q    Type
REMARK                         _______ _______ _______ _____ _____    ______ ____
ROOT
ATOM      1  C   UNL     1      -2.763  15.167  23.753  0.00  0.00    +0.000 A 
ATOM      2  N   UNL     1      -3.448  16.316  23.965  0.00  0.00    +0.000 NA
ATOM      3  C   UNL     1      -4.621  16.442  23.331  0.00  0.00    +0.000 A 
ATOM      4  N   UNL     1      -5.187  15.527  22.534  0.00  0.00    +0.000 NA
ATOM      5  C   UNL     1      -4.497  14.376  22.337  0.00  0.00    +0.000 A 
ATOM      6  C   UNL     1      -3.238  14.162  22.919  0.00  0.00    +0.000 A 
ENDROOT
BRANCH   5   7
ATOM      7  C   UNL     1      -5.179  13.409  21.437  0.00  0.00    +0.000 A 
ATOM      8  C   UNL     1      -6.362  12.753  21.808  0.00  0.00    +0.000 A 
ATOM      9  C   UNL     1      -6.894  11.715  21.044  0.00  0.00    +0.000 A 
ATOM     10  C   UNL     1      -6.300  11.350  19.835  0.00  0.00    +0.000 A 
ATOM     11 CL   UNL     1      -6.983   9.968  19.051  0.00  0.00    +0.000 Cl
ATOM     12  C   UNL     1      -5.195  12.066  19.359  0.00  0.00    +0.000 A 
ATOM     13  C   UNL     1      -4.645  13.085  20.171  0.00  0.00    +0.000 A 
BRANCH  12  14
ATOM     14  C   UNL     1      -4.506  11.804  18.062  0.00  0.00    +0.000 C 
ATOM     15  O   UNL     1      -5.108  11.989  17.008  0.00  0.00    +0.000 OA
ATOM     16  N   UNL     1      -3.210  11.343  18.110  0.00  0.00    +0.000 N 
ATOM     17  C   UNL     1      -2.404  11.140  16.931  0.00  0.00    +0.000 C 
ATOM     18  H   UNL     1      -2.751  11.252  19.008  0.00  0.00    +0.000 HD
ENDBRANCH  12  14
ENDBRANCH   5   7
BRANCH   1  20
ATOM     19  C   UNL     1      -1.678  15.479  25.979  0.00  0.00    +0.000 C 
ATOM     20  C   UNL     1      -1.478  15.035  24.536  0.00  0.00    +0.000 C 
ENDBRANCH   1  20
BRANCH   6  21
ATOM     21  C   UNL     1      -2.465  12.971  22.675  0.00  0.00    +0.000 C 
ATOM     22  C   UNL     1      -1.769  12.024  22.423  0.00  0.00    +0.000 C 
BRANCH  22  23
ATOM     23  C   UNL     1      -0.881  10.962  22.063  0.00  0.00    +0.000 A 
ATOM     24  C   UNL     1      -0.510  10.754  20.739  0.00  0.00    +0.000 A 
ATOM     25  C   UNL     1       0.337   9.689  20.426  0.00  0.00    +0.000 A 
ATOM     26  C   UNL     1       0.783   8.860  21.446  0.00  0.00    +0.000 A 
ATOM     27  N   UNL     1       1.664   7.818  21.178  0.00  0.00    +0.000 N 
ATOM     28  N   UNL     1       0.438   9.041  22.731  0.00  0.00    +0.000 NA
ATOM     29  C   UNL     1      -0.383  10.084  23.013  0.00  0.00    +0.000 A 
ATOM     30  H   UNL     1       1.336   7.212  20.434  0.00  0.00    +0.000 HD
ATOM     31  H   UNL     1       1.811   7.314  22.046  0.00  0.00    +0.000 HD
ENDBRANCH  22  23
ENDBRANCH   6  21
TORSDOF 5
ENDMDL
MODEL 8
REMARK VINA RESULT:      -7.4      4.860     11.516
REMARK  Name = 
REMARK  7 active torsions:
REMARK  status: ('A' for Active; 'I' for Inactive)
REMARK    1  A    between atoms: C_1  and  C_2
REMARK    2  A    between atoms: C_2  and  C_3
REMARK    3  A    between atoms: C_7  and  C_8
REMARK    4  A    between atoms: C_13  and  C_14
REMARK    5  A    between atoms: N_16  and  C_17
REMARK    6  A    between atoms: C_19  and  C_20
REMARK    7  A    between atoms: C_21  and  C_22
REMARK                            x       y       z     vdW  Elec       q    Type
REMARK                         _______ _______ _______ _____ _____    ______ ____
ROOT
ATOM      1  C   UNL     1      -5.417  12.143  19.769  0.00  0.00    +0.000 A 
ATOM      2  N   UNL     1      -5.949  11.720  18.598  0.00  0.00    +0.000 NA
ATOM      3  C   UNL     1      -5.088  11.464  17.604  0.00  0.00    +0.000 A 
ATOM      4  N   UNL     1      -3.755  11.559  17.675  0.00  0.00    +0.000 NA
ATOM      5  C   UNL     1      -3.232  11.974  18.856  0.00  0.00    +0.000 A 
ATOM      6  C   UNL     1      -4.048  12.311  19.947  0.00  0.00    +0.000 A 
ENDROOT
BRANCH   5   7
ATOM      7  C   UNL     1      -1.748  12.065  18.862  0.00  0.00    +0.000 A 
ATOM      8  C   UNL     1      -1.076  13.285  18.699  0.00  0.00    +0.000 A 
ATOM      9  C   UNL     1       0.306  13.341  18.519  0.00  0.00    +0.000 A 
ATOM     10  C   UNL     1       1.074  12.179  18.578  0.00  0.00    +0.000 A 
ATOM     11 CL   UNL     1       2.755  12.372  18.214  0.00  0.00    +0.000 Cl
ATOM     12  C   UNL     1       0.462  10.954  18.872  0.00  0.00    +0.000 A 
ATOM     13  C   UNL     1      -0.944  10.913  19.006  0.00  0.00    +0.000 A 
BRANCH  12  14
ATOM     14  C   UNL     1       1.183   9.655  19.010  0.00  0.00    +0.000 C 
ATOM     15  O   UNL     1       1.205   9.087  20.098  0.00  0.00    +0.000 OA
ATOM     16  N   UNL     1       1.813   9.154  17.894  0.00  0.00    +0.000 N 
ATOM     17  C   UNL     1       2.463   7.866  17.871  0.00  0.00    +0.000 C 
ATOM     18  H   UNL     1       1.724   9.645  17.013  0.00  0.00    +0.000 HD
ENDBRANCH  12  14
ENDBRANCH   5   7
BRANCH   1  20
ATOM     19  C   UNL     1      -7.454  11.245  20.900  0.00  0.00    +0.000 C 
ATOM     20  C   UNL     1      -6.414  12.358  20.884  0.00  0.00    +0.000 C 
ENDBRANCH   1  20
BRANCH   6  21
ATOM     21  C   UNL     1      -3.515  12.808  21.189  0.00  0.00    +0.000 C 
ATOM     22  C   UNL     1      -3.092  13.300  22.200  0.00  0.00    +0.000 C 
BRANCH  22  23
ATOM     23  C   UNL     1      -2.617  13.979  23.366  0.00  0.00    +0.000 A 
ATOM     24  C   UNL     1      -3.490  14.358  24.381  0.00  0.00    +0.000 A 
ATOM     25  C   UNL     1      -2.991  15.044  25.490  0.00  0.00    +0.000 A 
ATOM     26  C   UNL     1      -1.636  15.337  25.548  0.00  0.00    +0.000 A 
ATOM     27  N   UNL     1      -1.096  15.978  26.658  0.00  0.00    +0.000 N 
ATOM     28  N   UNL     1      -0.775  14.983  24.580  0.00  0.00    +0.000 NA
ATOM     29  C   UNL     1      -1.281  14.314  23.513  0.00  0.00    +0.000 A 
ATOM     30  H   UNL     1      -1.588  16.834  26.891  0.00  0.00    +0.000 HD
ATOM     31  H   UNL     1      -0.114  16.141  26.466  0.00  0.00    +0.000 HD
ENDBRANCH  22  23
ENDBRANCH   6  21
TORSDOF 5
ENDMDL
MODEL 9
REMARK VINA RESULT:      -7.3      8.872     12.612
REMARK  Name = 
REMARK  7 active torsions:
REMARK  status: ('A' for Active; 'I' for Inactive)
REMARK    1  A    between atoms: C_1  and  C_2
REMARK    2  A    between atoms: C_2  and  C_3
REMARK    3  A    between atoms: C_7  and  C_8
REMARK    4  A    between atoms: C_13  and  C_14
REMARK    5  A    between atoms: N_16  and  C_17
REMARK    6  A    between atoms: C_19  and  C_20
REMARK    7  A    between atoms: C_21  and  C_22
REMARK                            x       y       z     vdW  Elec       q    Type
REMARK                         _______ _______ _______ _____ _____    ______ ____
ROOT
ATOM      1  C   UNL     1      -6.169  12.822  23.364  0.00  0.00    +0.000 A 
ATOM      2  N   UNL     1      -5.754  12.352  24.565  0.00  0.00    +0.000 NA
ATOM      3  C   UNL     1      -4.446  12.093  24.689  0.00  0.00    +0.000 A 
ATOM      4  N   UNL     1      -3.513  12.284  23.748  0.00  0.00    +0.000 NA
ATOM      5  C   UNL     1      -3.938  12.764  22.553  0.00  0.00    +0.000 A 
ATOM      6  C   UNL     1      -5.294  13.026  22.303  0.00  0.00    +0.000 A 
ENDROOT
BRANCH   5   7
ATOM      7  C   UNL     1      -2.853  12.944  21.553  0.00  0.00    +0.000 A 
ATOM      8  C   UNL     1      -1.893  13.960  21.671  0.00  0.00    +0.000 A 
ATOM      9  C   UNL     1      -0.995  14.241  20.642  0.00  0.00    +0.000 A 
ATOM     10  C   UNL     1      -0.974  13.458  19.487  0.00  0.00    +0.000 A 
ATOM     11 CL   UNL     1       0.099  13.991  18.239  0.00  0.00    +0.000 Cl
ATOM     12  C   UNL     1      -1.824  12.350  19.383  0.00  0.00    +0.000 A 
ATOM     13  C   UNL     1      -2.757  12.111  20.418  0.00  0.00    +0.000 A 
BRANCH  12  14
ATOM     14  C   UNL     1      -1.860  11.412  18.223  0.00  0.00    +0.000 C 
ATOM     15  O   UNL     1      -1.282  10.332  18.300  0.00  0.00    +0.000 OA
ATOM     16  N   UNL     1      -2.538  11.817  17.096  0.00  0.00    +0.000 N 
ATOM     17  C   UNL     1      -2.726  10.968  15.945  0.00  0.00    +0.000 C 
ATOM     18  H   UNL     1      -3.033  12.700  17.108  0.00  0.00    +0.000 HD
ENDBRANCH  12  14
ENDBRANCH   5   7
BRANCH   1  20
ATOM     19  C   UNL     1      -7.908  14.532  23.897  0.00  0.00    +0.000 C 
ATOM     20  C   UNL     1      -7.638  13.164  23.284  0.00  0.00    +0.000 C 
ENDBRANCH   1  20
BRANCH   6  21
ATOM     21  C   UNL     1      -5.772  13.482  21.023  0.00  0.00    +0.000 C 
ATOM     22  C   UNL     1      -6.127  13.933  19.967  0.00  0.00    +0.000 C 
BRANCH  22  23
ATOM     23  C   UNL     1      -6.492  14.555  18.732  0.00  0.00    +0.000 A 
ATOM     24  C   UNL     1      -6.608  15.937  18.632  0.00  0.00    +0.000 A 
ATOM     25  C   UNL     1      -6.993  16.505  17.416  0.00  0.00    +0.000 A 
ATOM     26  C   UNL     1      -7.257  15.672  16.337  0.00  0.00    +0.000 A 
ATOM     27  N   UNL     1      -7.597  16.204  15.098  0.00  0.00    +0.000 N 
ATOM     28  N   UNL     1      -7.152  14.336  16.410  0.00  0.00    +0.000 NA
ATOM     29  C   UNL     1      -6.773  13.806  17.601  0.00  0.00    +0.000 A 
ATOM     30  H   UNL     1      -8.370  16.859  15.155  0.00  0.00    +0.000 HD
ATOM     31  H   UNL     1      -7.799  15.426  14.479  0.00  0.00    +0.000 HD
ENDBRANCH  22  23
ENDBRANCH   6  21
TORSDOF 5
ENDMDL
