MODEL 1
REMARK VINA RESULT:      -8.3      0.000      0.000
REMARK  Name = 
REMARK  6 active torsions:
REMARK  status: ('A' for Active; 'I' for Inactive)
REMARK    1  A    between atoms: C_1  and  S_2
REMARK    2  A    between atoms: S_2  and  C_3
REMARK    3  A    between atoms: C_6  and  C_7
REMARK    4  A    between atoms: C_10  and  C_11
REMARK    5  A    between atoms: C_11  and  C_12
REMARK    6  A    between atoms: C_12  and  N_13
REMARK                            x       y       z     vdW  Elec       q    Type
REMARK                         _______ _______ _______ _____ _____    ______ ____
ROOT
ATOM      1  C   UNL     1       3.041   7.109  18.312  0.00  0.00    +0.000 C 
ATOM      2  C   UNL     1       3.288   5.876  18.787  0.00  0.00    +0.000 C 
ATOM      3  C   UNL     1       4.616   5.609  19.353  0.00  0.00    +0.000 C 
ATOM      4  C   UNL     1       4.856   4.285  19.215  0.00  0.00    +0.000 C 
ATOM      5  C   UNL     1       3.511   3.654  19.144  0.00  0.00    +0.000 A 
ATOM      6  C   UNL     1       3.213   2.308  19.290  0.00  0.00    +0.000 A 
ATOM      7  C   UNL     1       1.909   1.899  19.031  0.00  0.00    +0.000 A 
ATOM      8  C   UNL     1       0.949   2.830  18.598  0.00  0.00    +0.000 A 
ATOM      9  C   UNL     1       1.258   4.198  18.469  0.00  0.00    +0.000 A 
ATOM     10  C   UNL     1       2.539   4.611  18.790  0.00  0.00    +0.000 A 
ENDROOT
BRANCH   1  14
ATOM     11  C   UNL     1       0.422   9.640  20.498  0.00  0.00    +0.000 A 
ATOM     12  C   UNL     1       0.701   9.900  19.166  0.00  0.00    +0.000 A 
ATOM     13  C   UNL     1       1.531   9.033  18.456  0.00  0.00    +0.000 A 
ATOM     14  C   UNL     1       2.098   7.916  19.091  0.00  0.00    +0.000 A 
ATOM     15  C   UNL     1       1.791   7.631  20.414  0.00  0.00    +0.000 A 
ATOM     16  C   UNL     1       0.961   8.505  21.119  0.00  0.00    +0.000 A 
BRANCH  11  18
ATOM     17  C   UNL     1      -0.611  10.007  23.006  0.00  0.00    +0.000 C 
ATOM     18  S   UNL     1      -0.604  10.799  21.380  0.00  0.00    +0.000 S 
ENDBRANCH  11  18
ENDBRANCH   1  14
BRANCH   4  19
ATOM     19  C   UNL     1       5.755   3.871  18.069  0.00  0.00    +0.000 C 
BRANCH  19  20
ATOM     20  C   UNL     1       7.122   4.579  18.111  0.00  0.00    +0.000 C 
BRANCH  20  21
ATOM     21  N   UNL     1       7.547   5.127  16.813  0.00  0.00    +0.000 NA
ATOM     22  C   UNL     1       7.578   6.607  16.867  0.00  0.00    +0.000 C 
ATOM     23  C   UNL     1       6.190   7.268  16.835  0.00  0.00    +0.000 C 
ATOM     24  O   UNL     1       5.443   6.860  15.682  0.00  0.00    +0.000 OA
ATOM     25  C   UNL     1       5.306   5.434  15.641  0.00  0.00    +0.000 C 
ATOM     26  C   UNL     1       6.674   4.733  15.681  0.00  0.00    +0.000 C 
ENDBRANCH  20  21
ENDBRANCH  19  20
ENDBRANCH   4  19
TORSDOF 5
ENDMDL
MODEL 2
REMARK VINA RESULT:      -8.2      2.446      4.715
REMARK  Name = 
REMARK  6 active torsions:
REMARK  status: ('A' for Active; 'I' for Inactive)
REMARK    1  A    between atoms: C_1  and  S_2
REMARK    2  A    between atoms: S_2  and  C_3
REMARK    3  A    between atoms: C_6  and  C_7
REMARK    4  A    between atoms: C_10  and  C_11
REMARK    5  A    between atoms: C_11  and  C_12
REMARK    6  A    between atoms: C_12  and  N_13
REMARK                            x       y       z     vdW  Elec       q    Type
REMARK                         _______ _______ _______ _____ _____    ______ ____
ROOT
ATOM      1  C   UNL     1       2.631   6.380  19.333  0.00  0.00    +0.000 C 
ATOM      2  C   UNL     1       3.228   5.835  18.260  0.00  0.00    +0.000 C 
ATOM      3  C   UNL     1       2.524   4.760  17.551  0.00  0.00    +0.000 C 
ATOM      4  C   UNL     1       3.460   3.992  16.947  0.00  0.00    +0.000 C 
ATOM      5  C   UNL     1       4.633   4.886  16.763  0.00  0.00    +0.000 A 
ATOM      6  C   UNL     1       5.730   4.664  15.944  0.00  0.00    +0.000 A 
ATOM      7  C   UNL     1       6.798   5.551  16.034  0.00  0.00    +0.000 A 
ATOM      8  C   UNL     1       6.763   6.608  16.958  0.00  0.00    +0.000 A 
ATOM      9  C   UNL     1       5.637   6.834  17.774  0.00  0.00    +0.000 A 
ATOM     10  C   UNL     1       4.550   5.989  17.636  0.00  0.00    +0.000 A 
ENDROOT
BRANCH   1  14
ATOM     11  C   UNL     1       1.048  10.304  18.951  0.00  0.00    +0.000 A 
ATOM     12  C   UNL     1       0.960   9.624  20.155  0.00  0.00    +0.000 A 
ATOM     13  C   UNL     1       1.522   8.354  20.271  0.00  0.00    +0.000 A 
ATOM     14  C   UNL     1       2.155   7.756  19.168  0.00  0.00    +0.000 A 
ATOM     15  C   UNL     1       2.279   8.447  17.972  0.00  0.00    +0.000 A 
ATOM     16  C   UNL     1       1.712   9.719  17.863  0.00  0.00    +0.000 A 
BRANCH  11  18
ATOM     17  C   UNL     1      -1.417  11.387  18.461  0.00  0.00    +0.000 C 
ATOM     18  S   UNL     1       0.276  11.904  18.833  0.00  0.00    +0.000 S 
ENDBRANCH  11  18
ENDBRANCH   1  14
BRANCH   4  19
ATOM     19  C   UNL     1       3.821   2.691  17.634  0.00  0.00    +0.000 C 
BRANCH  19  20
ATOM     20  C   UNL     1       4.008   2.863  19.154  0.00  0.00    +0.000 C 
BRANCH  20  21
ATOM     21  N   UNL     1       3.216   1.921  19.960  0.00  0.00    +0.000 NA
ATOM     22  C   UNL     1       1.847   1.801  19.407  0.00  0.00    +0.000 C 
ATOM     23  C   UNL     1       0.941   3.009  19.698  0.00  0.00    +0.000 C 
ATOM     24  O   UNL     1       0.854   3.270  21.105  0.00  0.00    +0.000 OA
ATOM     25  C   UNL     1       2.154   3.489  21.664  0.00  0.00    +0.000 C 
ATOM     26  C   UNL     1       3.096   2.305  21.386  0.00  0.00    +0.000 C 
ENDBRANCH  20  21
ENDBRANCH  19  20
ENDBRANCH   4  19
TORSDOF 5
ENDMDL
MODEL 3
REMARK VINA RESULT:      -8.1      4.000      7.393
REMARK  Name = 
REMARK  6 active torsions:
REMARK  status: ('A' for Active; 'I' for Inactive)
REMARK    1  A    between atoms: C_1  and  S_2
REMARK    2  A    between atoms: S_2  and  C_3
REMARK    3  A    between atoms: C_6  and  C_7
REMARK    4  A    between atoms: C_10  and  C_11
REMARK    5  A    between atoms: C_11  and  C_12
REMARK    6  A    between atoms: C_12  and  N_13
REMARK                            x       y       z     vdW  Elec       q    Type
REMARK                         _______ _______ _______ _____ _____    ______ ____
ROOT
ATOM      1  C   UNL     1       5.027   6.197  18.095  0.00  0.00    +0.000 C 
ATOM      2  C   UNL     1       3.802   5.856  18.528  0.00  0.00    +0.000 C 
ATOM      3  C   UNL     1       2.738   6.865  18.448  0.00  0.00    +0.000 C 
ATOM      4  C   UNL     1       1.832   6.575  19.410  0.00  0.00    +0.000 C 
ATOM      5  C   UNL     1       1.990   5.119  19.664  0.00  0.00    +0.000 A 
ATOM      6  C   UNL     1       1.110   4.291  20.344  0.00  0.00    +0.000 A 
ATOM      7  C   UNL     1       1.519   2.989  20.612  0.00  0.00    +0.000 A 
ATOM      8  C   UNL     1       2.801   2.557  20.231  0.00  0.00    +0.000 A 
ATOM      9  C   UNL     1       3.681   3.401  19.526  0.00  0.00    +0.000 A 
ATOM     10  C   UNL     1       3.247   4.675  19.205  0.00  0.00    +0.000 A 
ENDROOT
BRANCH   1  14
ATOM     11  C   UNL     1       6.095   4.342  14.425  0.00  0.00    +0.000 A 
ATOM     12  C   UNL     1       5.447   5.567  14.431  0.00  0.00    +0.000 A 
ATOM     13  C   UNL     1       5.142   6.178  15.647  0.00  0.00    +0.000 A 
ATOM     14  C   UNL     1       5.470   5.546  16.858  0.00  0.00    +0.000 A 
ATOM     15  C   UNL     1       6.153   4.338  16.857  0.00  0.00    +0.000 A 
ATOM     16  C   UNL     1       6.453   3.732  15.635  0.00  0.00    +0.000 A 
BRANCH  11  18
ATOM     17  C   UNL     1       4.733   3.487  12.210  0.00  0.00    +0.000 C 
ATOM     18  S   UNL     1       6.422   3.577  12.851  0.00  0.00    +0.000 S 
ENDBRANCH  11  18
ENDBRANCH   1  14
BRANCH   4  19
ATOM     19  C   UNL     1       1.899   7.399  20.679  0.00  0.00    +0.000 C 
BRANCH  19  20
ATOM     20  C   UNL     1       1.396   8.840  20.470  0.00  0.00    +0.000 C 
BRANCH  20  21
ATOM     21  N   UNL     1      -0.032   9.021  20.777  0.00  0.00    +0.000 NA
ATOM     22  C   UNL     1      -0.418  10.440  20.600  0.00  0.00    +0.000 C 
ATOM     23  C   UNL     1       0.071  11.371  21.721  0.00  0.00    +0.000 C 
ATOM     24  O   UNL     1      -0.378  10.924  23.006  0.00  0.00    +0.000 OA
ATOM     25  C   UNL     1       0.058   9.583  23.260  0.00  0.00    +0.000 C 
ATOM     26  C   UNL     1      -0.404   8.619  22.155  0.00  0.00    +0.000 C 
ENDBRANCH  20  21
ENDBRANCH  19  20
ENDBRANCH   4  19
TORSDOF 5
ENDMDL
MODEL 4
REMARK VINA RESULT:      -8.1      1.237      1.828
REMARK  Name = 
REMARK  6 active torsions:
REMARK  status: ('A' for Active; 'I' for Inactive)
REMARK    1  A    between atoms: C_1  and  S_2
REMARK    2  A    between atoms: S_2  and  C_3
REMARK    3  A    between atoms: C_6  and  C_7
REMARK    4  A    between atoms: C_10  and  C_11
REMARK    5  A    between atoms: C_11  and  C_12
REMARK    6  A    between atoms: C_12  and  N_13
REMARK                            x       y       z     vdW  Elec       q    Type
REMARK                         _______ _______ _______ _____ _____    ______ ____
ROOT
ATOM      1  C   UNL     1       2.529   7.156  18.399  0.00  0.00    +0.000 C 
ATOM      2  C   UNL     1       2.926   6.099  19.128  0.00  0.00    +0.000 C 
ATOM      3  C   UNL     1       4.364   5.933  19.375  0.00  0.00    +0.000 C 
ATOM      4  C   UNL     1       4.593   4.614  19.567  0.00  0.00    +0.000 C 
ATOM      5  C   UNL     1       3.295   4.061  20.039  0.00  0.00    +0.000 A 
ATOM      6  C   UNL     1       3.082   2.831  20.641  0.00  0.00    +0.000 A 
ATOM      7  C   UNL     1       1.768   2.435  20.864  0.00  0.00    +0.000 A 
ATOM      8  C   UNL     1       0.703   3.254  20.451  0.00  0.00    +0.000 A 
ATOM      9  C   UNL     1       0.930   4.510  19.855  0.00  0.00    +0.000 A 
ATOM     10  C   UNL     1       2.239   4.929  19.693  0.00  0.00    +0.000 A 
ENDROOT
BRANCH   1  14
ATOM     11  C   UNL     1       0.316  10.016  20.629  0.00  0.00    +0.000 A 
ATOM     12  C   UNL     1       0.892   8.925  21.260  0.00  0.00    +0.000 A 
ATOM     13  C   UNL     1       1.649   8.021  20.517  0.00  0.00    +0.000 A 
ATOM     14  C   UNL     1       1.809   8.201  19.132  0.00  0.00    +0.000 A 
ATOM     15  C   UNL     1       1.266   9.311  18.502  0.00  0.00    +0.000 A 
ATOM     16  C   UNL     1       0.507  10.212  19.254  0.00  0.00    +0.000 A 
BRANCH  11  18
ATOM     17  C   UNL     1      -0.764  10.160  23.139  0.00  0.00    +0.000 C 
ATOM     18  S   UNL     1      -0.681  11.120  21.608  0.00  0.00    +0.000 S 
ENDBRANCH  11  18
ENDBRANCH   1  14
BRANCH   4  19
ATOM     19  C   UNL     1       5.162   3.843  18.395  0.00  0.00    +0.000 C 
BRANCH  19  20
ATOM     20  C   UNL     1       5.416   4.742  17.170  0.00  0.00    +0.000 C 
BRANCH  20  21
ATOM     21  N   UNL     1       6.837   4.861  16.806  0.00  0.00    +0.000 NA
ATOM     22  C   UNL     1       7.692   4.582  17.983  0.00  0.00    +0.000 C 
ATOM     23  C   UNL     1       7.731   5.719  19.018  0.00  0.00    +0.000 C 
ATOM     24  O   UNL     1       8.147   6.955  18.422  0.00  0.00    +0.000 OA
ATOM     25  C   UNL     1       7.285   7.312  17.335  0.00  0.00    +0.000 C 
ATOM     26  C   UNL     1       7.212   6.196  16.280  0.00  0.00    +0.000 C 
ENDBRANCH  20  21
ENDBRANCH  19  20
ENDBRANCH   4  19
TORSDOF 5
ENDMDL
MODEL 5
REMARK VINA RESULT:      -8.0      0.999      1.558
REMARK  Name = 
REMARK  6 active torsions:
REMARK  status: ('A' for Active; 'I' for Inactive)
REMARK    1  A    between atoms: C_1  and  S_2
REMARK    2  A    between atoms: S_2  and  C_3
REMARK    3  A    between atoms: C_6  and  C_7
REMARK    4  A    between atoms: C_10  and  C_11
REMARK    5  A    between atoms: C_11  and  C_12
REMARK    6  A    between atoms: C_12  and  N_13
REMARK                            x       y       z     vdW  Elec       q    Type
REMARK                         _______ _______ _______ _____ _____    ______ ____
ROOT
ATOM      1  C   UNL     1       3.009   7.157  18.294  0.00  0.00    +0.000 C 
ATOM      2  C   UNL     1       3.265   5.932  18.781  0.00  0.00    +0.000 C 
ATOM      3  C   UNL     1       4.597   5.678  19.345  0.00  0.00    +0.000 C 
ATOM      4  C   UNL     1       4.844   4.354  19.220  0.00  0.00    +0.000 C 
ATOM      5  C   UNL     1       3.502   3.714  19.160  0.00  0.00    +0.000 A 
ATOM      6  C   UNL     1       3.213   2.368  19.321  0.00  0.00    +0.000 A 
ATOM      7  C   UNL     1       1.911   1.949  19.071  0.00  0.00    +0.000 A 
ATOM      8  C   UNL     1       0.944   2.869  18.632  0.00  0.00    +0.000 A 
ATOM      9  C   UNL     1       1.245   4.238  18.487  0.00  0.00    +0.000 A 
ATOM     10  C   UNL     1       2.524   4.662  18.799  0.00  0.00    +0.000 A 
ENDROOT
BRANCH   1  14
ATOM     11  C   UNL     1       0.383   9.697  20.462  0.00  0.00    +0.000 A 
ATOM     12  C   UNL     1       0.656   9.943  19.127  0.00  0.00    +0.000 A 
ATOM     13  C   UNL     1       1.488   9.075  18.423  0.00  0.00    +0.000 A 
ATOM     14  C   UNL     1       2.064   7.967  19.068  0.00  0.00    +0.000 A 
ATOM     15  C   UNL     1       1.764   7.694  20.394  0.00  0.00    +0.000 A 
ATOM     16  C   UNL     1       0.930   8.571  21.093  0.00  0.00    +0.000 A 
BRANCH  11  18
ATOM     17  C   UNL     1      -0.579  10.127  22.988  0.00  0.00    +0.000 C 
ATOM     18  S   UNL     1      -0.647  10.858  21.335  0.00  0.00    +0.000 S 
ENDBRANCH  11  18
ENDBRANCH   1  14
BRANCH   4  19
ATOM     19  C   UNL     1       5.741   3.933  18.075  0.00  0.00    +0.000 C 
BRANCH  19  20
ATOM     20  C   UNL     1       4.965   3.756  16.756  0.00  0.00    +0.000 C 
BRANCH  20  21
ATOM     21  N   UNL     1       4.985   4.947  15.892  0.00  0.00    +0.000 NA
ATOM     22  C   UNL     1       5.208   4.552  14.481  0.00  0.00    +0.000 C 
ATOM     23  C   UNL     1       6.654   4.140  14.163  0.00  0.00    +0.000 C 
ATOM     24  O   UNL     1       7.582   5.177  14.508  0.00  0.00    +0.000 OA
ATOM     25  C   UNL     1       7.466   5.524  15.892  0.00  0.00    +0.000 C 
ATOM     26  C   UNL     1       6.029   5.934  16.255  0.00  0.00    +0.000 C 
ENDBRANCH  20  21
ENDBRANCH  19  20
ENDBRANCH   4  19
TORSDOF 5
ENDMDL
MODEL 6
REMARK VINA RESULT:      -8.0      1.221      1.382
REMARK  Name = 
REMARK  6 active torsions:
REMARK  status: ('A' for Active; 'I' for Inactive)
REMARK    1  A    between atoms: C_1  and  S_2
REMARK    2  A    between atoms: S_2  and  C_3
REMARK    3  A    between atoms: C_6  and  C_7
REMARK    4  A    between atoms: C_10  and  C_11
REMARK    5  A    between atoms: C_11  and  C_12
REMARK    6  A    between atoms: C_12  and  N_13
REMARK                            x       y       z     vdW  Elec       q    Type
REMARK                         _______ _______ _______ _____ _____    ______ ____
ROOT
ATOM      1  C   UNL     1       2.594   6.788  18.226  0.00  0.00    +0.000 C 
ATOM      2  C   UNL     1       2.981   5.803  19.053  0.00  0.00    +0.000 C 
ATOM      3  C   UNL     1       4.421   5.610  19.269  0.00  0.00    +0.000 C 
ATOM      4  C   UNL     1       4.610   4.312  19.599  0.00  0.00    +0.000 C 
ATOM      5  C   UNL     1       3.313   3.865  20.172  0.00  0.00    +0.000 A 
ATOM      6  C   UNL     1       3.081   2.717  20.913  0.00  0.00    +0.000 A 
ATOM      7  C   UNL     1       1.763   2.399  21.223  0.00  0.00    +0.000 A 
ATOM      8  C   UNL     1       0.712   3.208  20.757  0.00  0.00    +0.000 A 
ATOM      9  C   UNL     1       0.960   4.381  20.019  0.00  0.00    +0.000 A 
ATOM     10  C   UNL     1       2.276   4.729  19.767  0.00  0.00    +0.000 A 
ENDROOT
BRANCH   1  14
ATOM     11  C   UNL     1       0.843  10.251  19.957  0.00  0.00    +0.000 A 
ATOM     12  C   UNL     1       1.065  10.183  18.591  0.00  0.00    +0.000 A 
ATOM     13  C   UNL     1       1.603   9.022  18.038  0.00  0.00    +0.000 A 
ATOM     14  C   UNL     1       1.938   7.934  18.862  0.00  0.00    +0.000 A 
ATOM     15  C   UNL     1       1.682   7.982  20.225  0.00  0.00    +0.000 A 
ATOM     16  C   UNL     1       1.145   9.150  20.771  0.00  0.00    +0.000 A 
BRANCH  11  18
ATOM     17  C   UNL     1      -0.521  11.134  22.159  0.00  0.00    +0.000 C 
ATOM     18  S   UNL     1       0.198  11.770  20.626  0.00  0.00    +0.000 S 
ENDBRANCH  11  18
ENDBRANCH   1  14
BRANCH   4  19
ATOM     19  C   UNL     1       5.108   3.396  18.501  0.00  0.00    +0.000 C 
BRANCH  19  20
ATOM     20  C   UNL     1       5.064   4.065  17.113  0.00  0.00    +0.000 C 
BRANCH  20  21
ATOM     21  N   UNL     1       6.359   4.067  16.414  0.00  0.00    +0.000 NA
ATOM     22  C   UNL     1       7.436   4.508  17.331  0.00  0.00    +0.000 C 
ATOM     23  C   UNL     1       7.443   6.020  17.613  0.00  0.00    +0.000 C 
ATOM     24  O   UNL     1       7.525   6.778  16.399  0.00  0.00    +0.000 OA
ATOM     25  C   UNL     1       6.443   6.450  15.520  0.00  0.00    +0.000 C 
ATOM     26  C   UNL     1       6.394   4.943  15.219  0.00  0.00    +0.000 C 
ENDBRANCH  20  21
ENDBRANCH  19  20
ENDBRANCH   4  19
TORSDOF 5
ENDMDL
MODEL 7
REMARK VINA RESULT:      -8.0      1.263      1.785
REMARK  Name = 
REMARK  6 active torsions:
REMARK  status: ('A' for Active; 'I' for Inactive)
REMARK    1  A    between atoms: C_1  and  S_2
REMARK    2  A    between atoms: S_2  and  C_3
REMARK    3  A    between atoms: C_6  and  C_7
REMARK    4  A    between atoms: C_10  and  C_11
REMARK    5  A    between atoms: C_11  and  C_12
REMARK    6  A    between atoms: C_12  and  N_13
REMARK                            x       y       z     vdW  Elec       q    Type
REMARK                         _______ _______ _______ _____ _____    ______ ____
ROOT
ATOM      1  C   UNL     1       2.701   6.852  18.168  0.00  0.00    +0.000 C 
ATOM      2  C   UNL     1       3.046   5.862  19.008  0.00  0.00    +0.000 C 
ATOM      3  C   UNL     1       4.473   5.671  19.300  0.00  0.00    +0.000 C 
ATOM      4  C   UNL     1       4.648   4.372  19.631  0.00  0.00    +0.000 C 
ATOM      5  C   UNL     1       3.323   3.917  20.130  0.00  0.00    +0.000 A 
ATOM      6  C   UNL     1       3.054   2.763  20.850  0.00  0.00    +0.000 A 
ATOM      7  C   UNL     1       1.722   2.440  21.086  0.00  0.00    +0.000 A 
ATOM      8  C   UNL     1       0.696   3.249  20.570  0.00  0.00    +0.000 A 
ATOM      9  C   UNL     1       0.980   4.428  19.853  0.00  0.00    +0.000 A 
ATOM     10  C   UNL     1       2.306   4.781  19.676  0.00  0.00    +0.000 A 
ENDROOT
BRANCH   1  14
ATOM     11  C   UNL     1       0.556  10.003  20.043  0.00  0.00    +0.000 A 
ATOM     12  C   UNL     1       1.052   8.947  20.791  0.00  0.00    +0.000 A 
ATOM     13  C   UNL     1       1.788   7.945  20.162  0.00  0.00    +0.000 A 
ATOM     14  C   UNL     1       2.009   7.992  18.775  0.00  0.00    +0.000 A 
ATOM     15  C   UNL     1       1.547   9.066  18.028  0.00  0.00    +0.000 A 
ATOM     16  C   UNL     1       0.809  10.065  18.666  0.00  0.00    +0.000 A 
BRANCH  11  18
ATOM     17  C   UNL     1      -1.608  11.609  19.569  0.00  0.00    +0.000 C 
ATOM     18  S   UNL     1      -0.419  11.237  20.879  0.00  0.00    +0.000 S 
ENDBRANCH  11  18
ENDBRANCH   1  14
BRANCH   4  19
ATOM     19  C   UNL     1       5.207   3.464  18.555  0.00  0.00    +0.000 C 
BRANCH  19  20
ATOM     20  C   UNL     1       4.683   3.826  17.152  0.00  0.00    +0.000 C 
BRANCH  20  21
ATOM     21  N   UNL     1       5.747   4.021  16.154  0.00  0.00    +0.000 NA
ATOM     22  C   UNL     1       7.013   4.402  16.823  0.00  0.00    +0.000 C 
ATOM     23  C   UNL     1       7.046   5.854  17.329  0.00  0.00    +0.000 C 
ATOM     24  O   UNL     1       6.780   6.783  16.271  0.00  0.00    +0.000 OA
ATOM     25  C   UNL     1       5.516   6.509  15.657  0.00  0.00    +0.000 C 
ATOM     26  C   UNL     1       5.438   5.061  15.144  0.00  0.00    +0.000 C 
ENDBRANCH  20  21
ENDBRANCH  19  20
ENDBRANCH   4  19
TORSDOF 5
ENDMDL
MODEL 8
REMARK VINA RESULT:      -7.9      2.505      4.727
REMARK  Name = 
REMARK  6 active torsions:
REMARK  status: ('A' for Active; 'I' for Inactive)
REMARK    1  A    between atoms: C_1  and  S_2
REMARK    2  A    between atoms: S_2  and  C_3
REMARK    3  A    between atoms: C_6  and  C_7
REMARK    4  A    between atoms: C_10  and  C_11
REMARK    5  A    between atoms: C_11  and  C_12
REMARK    6  A    between atoms: C_12  and  N_13
REMARK                            x       y       z     vdW  Elec       q    Type
REMARK                         _______ _______ _______ _____ _____    ______ ____
ROOT
ATOM      1  C   UNL     1       2.532   6.420  19.429  0.00  0.00    +0.000 C 
ATOM      2  C   UNL     1       3.128   5.915  18.336  0.00  0.00    +0.000 C 
ATOM      3  C   UNL     1       2.441   4.839  17.611  0.00  0.00    +0.000 C 
ATOM      4  C   UNL     1       3.387   4.109  16.978  0.00  0.00    +0.000 C 
ATOM      5  C   UNL     1       4.536   5.036  16.799  0.00  0.00    +0.000 A 
ATOM      6  C   UNL     1       5.627   4.860  15.961  0.00  0.00    +0.000 A 
ATOM      7  C   UNL     1       6.674   5.771  16.058  0.00  0.00    +0.000 A 
ATOM      8  C   UNL     1       6.625   6.806  17.007  0.00  0.00    +0.000 A 
ATOM      9  C   UNL     1       5.505   6.985  17.842  0.00  0.00    +0.000 A 
ATOM     10  C   UNL     1       4.438   6.116  17.699  0.00  0.00    +0.000 A 
ENDROOT
BRANCH   1  14
ATOM     11  C   UNL     1       1.255  10.446  18.965  0.00  0.00    +0.000 A 
ATOM     12  C   UNL     1       1.834   9.764  17.905  0.00  0.00    +0.000 A 
ATOM     13  C   UNL     1       2.208   8.431  18.067  0.00  0.00    +0.000 A 
ATOM     14  C   UNL     1       2.020   7.788  19.302  0.00  0.00    +0.000 A 
ATOM     15  C   UNL     1       1.408   8.453  20.353  0.00  0.00    +0.000 A 
ATOM     16  C   UNL     1       1.037   9.789  20.184  0.00  0.00    +0.000 A 
BRANCH  11  18
ATOM     17  C   UNL     1       2.452  12.791  18.220  0.00  0.00    +0.000 C 
ATOM     18  S   UNL     1       0.836  12.160  18.729  0.00  0.00    +0.000 S 
ENDBRANCH  11  18
ENDBRANCH   1  14
BRANCH   4  19
ATOM     19  C   UNL     1       3.790   2.802  17.630  0.00  0.00    +0.000 C 
BRANCH  19  20
ATOM     20  C   UNL     1       4.000   2.946  19.149  0.00  0.00    +0.000 C 
BRANCH  20  21
ATOM     21  N   UNL     1       3.250   1.962  19.947  0.00  0.00    +0.000 NA
ATOM     22  C   UNL     1       1.882   1.798  19.404  0.00  0.00    +0.000 C 
ATOM     23  C   UNL     1       0.933   2.967  19.721  0.00  0.00    +0.000 C 
ATOM     24  O   UNL     1       0.849   3.204  21.132  0.00  0.00    +0.000 OA
ATOM     25  C   UNL     1       2.145   3.463  21.684  0.00  0.00    +0.000 C 
ATOM     26  C   UNL     1       3.128   2.319  21.381  0.00  0.00    +0.000 C 
ENDBRANCH  20  21
ENDBRANCH  19  20
ENDBRANCH   4  19
TORSDOF 5
ENDMDL
MODEL 9
REMARK VINA RESULT:      -7.9      1.375      1.775
REMARK  Name = 
REMARK  6 active torsions:
REMARK  status: ('A' for Active; 'I' for Inactive)
REMARK    1  A    between atoms: C_1  and  S_2
REMARK    2  A    between atoms: S_2  and  C_3
REMARK    3  A    between atoms: C_6  and  C_7
REMARK    4  A    between atoms: C_10  and  C_11
REMARK    5  A    between atoms: C_11  and  C_12
REMARK    6  A    between atoms: C_12  and  N_13
REMARK                            x       y       z     vdW  Elec       q    Type
REMARK                         _______ _______ _______ _____ _____    ______ ____
ROOT
ATOM      1  C   UNL     1       2.494   7.140  18.453  0.00  0.00    +0.000 C 
ATOM      2  C   UNL     1       2.907   6.072  19.156  0.00  0.00    +0.000 C 
ATOM      3  C   UNL     1       4.348   5.916  19.390  0.00  0.00    +0.000 C 
ATOM      4  C   UNL     1       4.592   4.596  19.552  0.00  0.00    +0.000 C 
ATOM      5  C   UNL     1       3.303   4.019  20.020  0.00  0.00    +0.000 A 
ATOM      6  C   UNL     1       3.107   2.773  20.596  0.00  0.00    +0.000 A 
ATOM      7  C   UNL     1       1.799   2.359  20.819  0.00  0.00    +0.000 A 
ATOM      8  C   UNL     1       0.722   3.175  20.430  0.00  0.00    +0.000 A 
ATOM      9  C   UNL     1       0.933   4.446  19.860  0.00  0.00    +0.000 A 
ATOM     10  C   UNL     1       2.236   4.882  19.699  0.00  0.00    +0.000 A 
ENDROOT
BRANCH   1  14
ATOM     11  C   UNL     1       0.522  10.262  20.553  0.00  0.00    +0.000 A 
ATOM     12  C   UNL     1       0.705  10.343  19.182  0.00  0.00    +0.000 A 
ATOM     13  C   UNL     1       1.317   9.289  18.506  0.00  0.00    +0.000 A 
ATOM     14  C   UNL     1       1.767   8.161  19.213  0.00  0.00    +0.000 A 
ATOM     15  C   UNL     1       1.552   8.058  20.579  0.00  0.00    +0.000 A 
ATOM     16  C   UNL     1       0.939   9.120  21.249  0.00  0.00    +0.000 A 
BRANCH  11  18
ATOM     17  C   UNL     1       0.174  12.952  20.190  0.00  0.00    +0.000 C 
ATOM     18  S   UNL     1      -0.223  11.651  21.382  0.00  0.00    +0.000 S 
ENDBRANCH  11  18
ENDBRANCH   1  14
BRANCH   4  19
ATOM     19  C   UNL     1       5.162   3.856  18.360  0.00  0.00    +0.000 C 
BRANCH  19  20
ATOM     20  C   UNL     1       5.401   4.785  17.154  0.00  0.00    +0.000 C 
BRANCH  20  21
ATOM     21  N   UNL     1       6.817   4.913  16.775  0.00  0.00    +0.000 NA
ATOM     22  C   UNL     1       7.687   4.592  17.931  0.00  0.00    +0.000 C 
ATOM     23  C   UNL     1       7.743   5.693  19.003  0.00  0.00    +0.000 C 
ATOM     24  O   UNL     1       8.155   6.947  18.444  0.00  0.00    +0.000 OA
ATOM     25  C   UNL     1       7.280   7.344  17.381  0.00  0.00    +0.000 C 
ATOM     26  C   UNL     1       7.189   6.264  16.290  0.00  0.00    +0.000 C 
ENDBRANCH  20  21
ENDBRANCH  19  20
ENDBRANCH   4  19
TORSDOF 5
ENDMDL
