MODEL 1
REMARK VINA RESULT:      -8.4      0.000      0.000
REMARK  Name = 
REMARK  3 active torsions:
REMARK  status: ('A' for Active; 'I' for Inactive)
REMARK    1  A    between atoms: C_1  and  C_2
REMARK    2  A    between atoms: C_5  and  C_6
REMARK    3  A    between atoms: C_12  and  C_13
REMARK                            x       y       z     vdW  Elec       q    Type
REMARK                         _______ _______ _______ _____ _____    ______ ____
ROOT
ATOM      1  C   UNL     1       5.896   4.905  17.183  0.00  0.00    +0.000 C 
ATOM      2  C   UNL     1       7.190   4.412  17.839  0.00  0.00    +0.000 C 
ATOM      3  C   UNL     1       7.815   5.409  18.776  0.00  0.00    +0.000 C 
ATOM      4  O   UNL     1       8.349   5.107  19.838  0.00  0.00    +0.000 OA
ATOM      5  N   UNL     1       7.850   6.721  18.299  0.00  0.00    +0.000 N 
ATOM      6  N   UNL     1       8.506   7.695  18.962  0.00  0.00    +0.000 NA
ATOM      7  C   UNL     1       8.301   8.774  18.192  0.00  0.00    +0.000 A 
ATOM      8  N   UNL     1       7.560   8.522  17.058  0.00  0.00    +0.000 NA
ATOM      9  C   UNL     1       7.292   7.241  17.165  0.00  0.00    +0.000 A 
ATOM     10  S   UNL     1       6.368   6.285  16.063  0.00  0.00    +0.000 S 
ENDROOT
BRANCH   1  15
ATOM     11  C   UNL     1       1.346   5.921  20.757  0.00  0.00    +0.000 C 
ATOM     12  C   UNL     1       2.520   5.690  19.855  0.00  0.00    +0.000 A 
ATOM     13  C   UNL     1       2.845   6.591  18.842  0.00  0.00    +0.000 A 
ATOM     14  C   UNL     1       3.933   6.349  17.993  0.00  0.00    +0.000 A 
ATOM     15  C   UNL     1       4.748   5.213  18.146  0.00  0.00    +0.000 A 
ATOM     16  C   UNL     1       4.390   4.305  19.160  0.00  0.00    +0.000 A 
ATOM     17  C   UNL     1       3.300   4.543  20.005  0.00  0.00    +0.000 A 
ENDBRANCH   1  15
BRANCH   7  18
ATOM     18  C   UNL     1       8.799  10.095  18.562  0.00  0.00    +0.000 A 
ATOM     19  C   UNL     1       8.574  11.185  17.701  0.00  0.00    +0.000 A 
ATOM     20  C   UNL     1       9.088  12.449  17.990  0.00  0.00    +0.000 A 
ATOM     21  C   UNL     1       9.832  12.638  19.150  0.00  0.00    +0.000 A 
ATOM     22 CL   UNL     1      10.496  14.188  19.489  0.00  0.00    +0.000 Cl
ATOM     23  C   UNL     1      10.050  11.576  20.029  0.00  0.00    +0.000 A 
ATOM     24  C   UNL     1       9.532  10.305  19.737  0.00  0.00    +0.000 A 
ENDBRANCH   7  18
TORSDOF 2
ENDMDL
MODEL 2
REMARK VINA RESULT:      -8.4      0.262      1.014
REMARK  Name = 
REMARK  3 active torsions:
REMARK  status: ('A' for Active; 'I' for Inactive)
REMARK    1  A    between atoms: C_1  and  C_2
REMARK    2  A    between atoms: C_5  and  C_6
REMARK    3  A    between atoms: C_12  and  C_13
REMARK                            x       y       z     vdW  Elec       q    Type
REMARK                         _______ _______ _______ _____ _____    ______ ____
ROOT
ATOM      1  C   UNL     1       5.825   5.088  17.177  0.00  0.00    +0.000 C 
ATOM      2  C   UNL     1       7.097   4.532  17.826  0.00  0.00    +0.000 C 
ATOM      3  C   UNL     1       7.757   5.484  18.785  0.00  0.00    +0.000 C 
ATOM      4  O   UNL     1       8.276   5.140  19.842  0.00  0.00    +0.000 OA
ATOM      5  N   UNL     1       7.844   6.804  18.335  0.00  0.00    +0.000 N 
ATOM      6  N   UNL     1       8.536   7.737  19.019  0.00  0.00    +0.000 NA
ATOM      7  C   UNL     1       8.375   8.840  18.271  0.00  0.00    +0.000 A 
ATOM      8  N   UNL     1       7.628   8.640  17.130  0.00  0.00    +0.000 NA
ATOM      9  C   UNL     1       7.311   7.367  17.210  0.00  0.00    +0.000 A 
ATOM     10  S   UNL     1       6.354   6.472  16.087  0.00  0.00    +0.000 S 
ENDROOT
BRANCH   1  15
ATOM     11  C   UNL     1       1.314   6.189  20.777  0.00  0.00    +0.000 C 
ATOM     12  C   UNL     1       2.479   5.937  19.866  0.00  0.00    +0.000 A 
ATOM     13  C   UNL     1       2.763   6.789  18.800  0.00  0.00    +0.000 A 
ATOM     14  C   UNL     1       3.841   6.527  17.945  0.00  0.00    +0.000 A 
ATOM     15  C   UNL     1       4.686   5.421  18.144  0.00  0.00    +0.000 A 
ATOM     16  C   UNL     1       4.370   4.561  19.213  0.00  0.00    +0.000 A 
ATOM     17  C   UNL     1       3.289   4.819  20.063  0.00  0.00    +0.000 A 
ENDBRANCH   1  15
BRANCH   7  18
ATOM     18  C   UNL     1       8.923  10.132  18.669  0.00  0.00    +0.000 A 
ATOM     19  C   UNL     1       9.460  10.288  19.961  0.00  0.00    +0.000 A 
ATOM     20  C   UNL     1       9.935  11.523  20.399  0.00  0.00    +0.000 A 
ATOM     21  C   UNL     1       9.883  12.619  19.546  0.00  0.00    +0.000 A 
ATOM     22 CL   UNL     1      10.438  14.151  20.098  0.00  0.00    +0.000 Cl
ATOM     23  C   UNL     1       9.375  12.484  18.253  0.00  0.00    +0.000 A 
ATOM     24  C   UNL     1       8.897  11.240  17.813  0.00  0.00    +0.000 A 
ENDBRANCH   7  18
TORSDOF 2
ENDMDL
MODEL 3
REMARK VINA RESULT:      -8.3      0.253      1.009
REMARK  Name = 
REMARK  3 active torsions:
REMARK  status: ('A' for Active; 'I' for Inactive)
REMARK    1  A    between atoms: C_1  and  C_2
REMARK    2  A    between atoms: C_5  and  C_6
REMARK    3  A    between atoms: C_12  and  C_13
REMARK                            x       y       z     vdW  Elec       q    Type
REMARK                         _______ _______ _______ _____ _____    ______ ____
ROOT
ATOM      1  C   UNL     1       5.889   5.030  17.124  0.00  0.00    +0.000 C 
ATOM      2  C   UNL     1       7.129   4.507  17.857  0.00  0.00    +0.000 C 
ATOM      3  C   UNL     1       7.731   5.497  18.816  0.00  0.00    +0.000 C 
ATOM      4  O   UNL     1       8.197   5.193  19.910  0.00  0.00    +0.000 OA
ATOM      5  N   UNL     1       7.832   6.802  18.327  0.00  0.00    +0.000 N 
ATOM      6  N   UNL     1       8.480   7.764  19.015  0.00  0.00    +0.000 NA
ATOM      7  C   UNL     1       8.350   8.839  18.223  0.00  0.00    +0.000 A 
ATOM      8  N   UNL     1       7.665   8.595  17.052  0.00  0.00    +0.000 NA
ATOM      9  C   UNL     1       7.354   7.323  17.158  0.00  0.00    +0.000 A 
ATOM     10  S   UNL     1       6.463   6.382  16.017  0.00  0.00    +0.000 S 
ENDROOT
BRANCH   1  15
ATOM     11  C   UNL     1       1.461   6.566  20.666  0.00  0.00    +0.000 C 
ATOM     12  C   UNL     1       2.575   6.146  19.756  0.00  0.00    +0.000 A 
ATOM     13  C   UNL     1       3.322   4.996  20.007  0.00  0.00    +0.000 A 
ATOM     14  C   UNL     1       4.374   4.629  19.159  0.00  0.00    +0.000 A 
ATOM     15  C   UNL     1       4.699   5.384  18.019  0.00  0.00    +0.000 A 
ATOM     16  C   UNL     1       3.947   6.554  17.795  0.00  0.00    +0.000 A 
ATOM     17  C   UNL     1       2.900   6.924  18.645  0.00  0.00    +0.000 A 
ENDBRANCH   1  15
BRANCH   7  18
ATOM     18  C   UNL     1       8.867  10.149  18.605  0.00  0.00    +0.000 A 
ATOM     19  C   UNL     1       8.716  11.236  17.725  0.00  0.00    +0.000 A 
ATOM     20  C   UNL     1       9.251  12.488  18.027  0.00  0.00    +0.000 A 
ATOM     21  C   UNL     1       9.941  12.668  19.221  0.00  0.00    +0.000 A 
ATOM     22 CL   UNL     1      10.631  14.202  19.579  0.00  0.00    +0.000 Cl
ATOM     23  C   UNL     1      10.084  11.610  20.120  0.00  0.00    +0.000 A 
ATOM     24  C   UNL     1       9.545  10.351  19.814  0.00  0.00    +0.000 A 
ENDBRANCH   7  18
TORSDOF 2
ENDMDL
MODEL 4
REMARK VINA RESULT:      -7.8      0.876      1.360
REMARK  Name = 
REMARK  3 active torsions:
REMARK  status: ('A' for Active; 'I' for Inactive)
REMARK    1  A    between atoms: C_1  and  C_2
REMARK    2  A    between atoms: C_5  and  C_6
REMARK    3  A    between atoms: C_12  and  C_13
REMARK                            x       y       z     vdW  Elec       q    Type
REMARK                         _______ _______ _______ _____ _____    ______ ____
ROOT
ATOM      1  C   UNL     1       5.222   4.736  16.503  0.00  0.00    +0.000 C 
ATOM      2  C   UNL     1       6.623   4.154  16.720  0.00  0.00    +0.000 C 
ATOM      3  C   UNL     1       7.462   4.935  17.694  0.00  0.00    +0.000 C 
ATOM      4  O   UNL     1       8.219   4.421  18.511  0.00  0.00    +0.000 OA
ATOM      5  N   UNL     1       7.410   6.322  17.533  0.00  0.00    +0.000 N 
ATOM      6  N   UNL     1       8.216   7.144  18.234  0.00  0.00    +0.000 NA
ATOM      7  C   UNL     1       7.860   8.361  17.797  0.00  0.00    +0.000 A 
ATOM      8  N   UNL     1       6.876   8.345  16.832  0.00  0.00    +0.000 NA
ATOM      9  C   UNL     1       6.618   7.064  16.702  0.00  0.00    +0.000 A 
ATOM     10  S   UNL     1       5.451   6.349  15.650  0.00  0.00    +0.000 S 
ENDROOT
BRANCH   1  15
ATOM     11  C   UNL     1       1.625   4.756  21.148  0.00  0.00    +0.000 C 
ATOM     12  C   UNL     1       2.559   4.777  19.975  0.00  0.00    +0.000 A 
ATOM     13  C   UNL     1       2.647   5.888  19.138  0.00  0.00    +0.000 A 
ATOM     14  C   UNL     1       3.509   5.884  18.034  0.00  0.00    +0.000 A 
ATOM     15  C   UNL     1       4.329   4.779  17.744  0.00  0.00    +0.000 A 
ATOM     16  C   UNL     1       4.209   3.658  18.588  0.00  0.00    +0.000 A 
ATOM     17  C   UNL     1       3.344   3.660  19.688  0.00  0.00    +0.000 A 
ENDBRANCH   1  15
BRANCH   7  18
ATOM     18  C   UNL     1       8.452   9.581  18.335  0.00  0.00    +0.000 A 
ATOM     19  C   UNL     1       9.066   9.552  19.601  0.00  0.00    +0.000 A 
ATOM     20  C   UNL     1       9.587  10.710  20.176  0.00  0.00    +0.000 A 
ATOM     21  C   UNL     1       9.504  11.915  19.486  0.00  0.00    +0.000 A 
ATOM     22 CL   UNL     1      10.116  13.350  20.210  0.00  0.00    +0.000 Cl
ATOM     23  C   UNL     1       8.919  11.964  18.220  0.00  0.00    +0.000 A 
ATOM     24  C   UNL     1       8.396  10.797  17.642  0.00  0.00    +0.000 A 
ENDBRANCH   7  18
TORSDOF 2
ENDMDL
MODEL 5
REMARK VINA RESULT:      -7.7      1.142      1.620
REMARK  Name = 
REMARK  3 active torsions:
REMARK  status: ('A' for Active; 'I' for Inactive)
REMARK    1  A    between atoms: C_1  and  C_2
REMARK    2  A    between atoms: C_5  and  C_6
REMARK    3  A    between atoms: C_12  and  C_13
REMARK                            x       y       z     vdW  Elec       q    Type
REMARK                         _______ _______ _______ _____ _____    ______ ____
ROOT
ATOM      1  C   UNL     1       5.065   4.548  16.248  0.00  0.00    +0.000 C 
ATOM      2  C   UNL     1       6.497   4.002  16.278  0.00  0.00    +0.000 C 
ATOM      3  C   UNL     1       7.403   4.724  17.237  0.00  0.00    +0.000 C 
ATOM      4  O   UNL     1       8.250   4.168  17.928  0.00  0.00    +0.000 OA
ATOM      5  N   UNL     1       7.294   6.117  17.212  0.00  0.00    +0.000 N 
ATOM      6  N   UNL     1       8.141   6.902  17.909  0.00  0.00    +0.000 NA
ATOM      7  C   UNL     1       7.708   8.139  17.623  0.00  0.00    +0.000 A 
ATOM      8  N   UNL     1       6.635   8.173  16.758  0.00  0.00    +0.000 NA
ATOM      9  C   UNL     1       6.404   6.900  16.533  0.00  0.00    +0.000 A 
ATOM     10  S   UNL     1       5.162   6.239  15.533  0.00  0.00    +0.000 S 
ENDROOT
BRANCH   1  15
ATOM     11  C   UNL     1       2.267   4.314  21.408  0.00  0.00    +0.000 C 
ATOM     12  C   UNL     1       2.967   4.345  20.083  0.00  0.00    +0.000 A 
ATOM     13  C   UNL     1       3.846   3.332  19.703  0.00  0.00    +0.000 A 
ATOM     14  C   UNL     1       4.509   3.387  18.471  0.00  0.00    +0.000 A 
ATOM     15  C   UNL     1       4.296   4.443  17.567  0.00  0.00    +0.000 A 
ATOM     16  C   UNL     1       3.421   5.467  17.978  0.00  0.00    +0.000 A 
ATOM     17  C   UNL     1       2.763   5.415  19.211  0.00  0.00    +0.000 A 
ENDBRANCH   1  15
BRANCH   7  18
ATOM     18  C   UNL     1       8.313   9.328  18.216  0.00  0.00    +0.000 A 
ATOM     19  C   UNL     1       8.198  10.565  17.556  0.00  0.00    +0.000 A 
ATOM     20  C   UNL     1       8.815  11.709  18.059  0.00  0.00    +0.000 A 
ATOM     21  C   UNL     1       9.553  11.630  19.235  0.00  0.00    +0.000 A 
ATOM     22 CL   UNL     1      10.344  13.034  19.836  0.00  0.00    +0.000 Cl
ATOM     23  C   UNL     1       9.663  10.418  19.918  0.00  0.00    +0.000 A 
ATOM     24  C   UNL     1       9.041   9.267  19.411  0.00  0.00    +0.000 A 
ENDBRANCH   7  18
TORSDOF 2
ENDMDL
MODEL 6
REMARK VINA RESULT:      -7.0      5.972      8.626
REMARK  Name = 
REMARK  3 active torsions:
REMARK  status: ('A' for Active; 'I' for Inactive)
REMARK    1  A    between atoms: C_1  and  C_2
REMARK    2  A    between atoms: C_5  and  C_6
REMARK    3  A    between atoms: C_12  and  C_13
REMARK                            x       y       z     vdW  Elec       q    Type
REMARK                         _______ _______ _______ _____ _____    ______ ____
ROOT
ATOM      1  C   UNL     1      -0.136  12.065  20.010  0.00  0.00    +0.000 C 
ATOM      2  C   UNL     1      -0.294  11.115  21.201  0.00  0.00    +0.000 C 
ATOM      3  C   UNL     1       0.770  10.054  21.280  0.00  0.00    +0.000 C 
ATOM      4  O   UNL     1       1.275   9.669  22.329  0.00  0.00    +0.000 OA
ATOM      5  N   UNL     1       1.078   9.441  20.063  0.00  0.00    +0.000 N 
ATOM      6  N   UNL     1       1.904   8.377  20.000  0.00  0.00    +0.000 NA
ATOM      7  C   UNL     1       1.936   8.098  18.688  0.00  0.00    +0.000 A 
ATOM      8  N   UNL     1       1.148   8.927  17.919  0.00  0.00    +0.000 NA
ATOM      9  C   UNL     1       0.639   9.750  18.807  0.00  0.00    +0.000 A 
ATOM     10  S   UNL     1      -0.437  11.064  18.497  0.00  0.00    +0.000 S 
ENDROOT
BRANCH   1  15
ATOM     11  C   UNL     1       4.666  15.448  19.932  0.00  0.00    +0.000 C 
ATOM     12  C   UNL     1       3.460  14.558  19.945  0.00  0.00    +0.000 A 
ATOM     13  C   UNL     1       3.091  13.820  18.822  0.00  0.00    +0.000 A 
ATOM     14  C   UNL     1       1.948  13.011  18.843  0.00  0.00    +0.000 A 
ATOM     15  C   UNL     1       1.151  12.892  19.996  0.00  0.00    +0.000 A 
ATOM     16  C   UNL     1       1.529  13.662  21.113  0.00  0.00    +0.000 A 
ATOM     17  C   UNL     1       2.667  14.475  21.090  0.00  0.00    +0.000 A 
ENDBRANCH   1  15
BRANCH   7  18
ATOM     18  C   UNL     1       2.766   7.028  18.144  0.00  0.00    +0.000 A 
ATOM     19  C   UNL     1       3.946   7.354  17.449  0.00  0.00    +0.000 A 
ATOM     20  C   UNL     1       4.732   6.364  16.861  0.00  0.00    +0.000 A 
ATOM     21  C   UNL     1       4.348   5.032  16.966  0.00  0.00    +0.000 A 
ATOM     22 CL   UNL     1       5.299   3.813  16.212  0.00  0.00    +0.000 Cl
ATOM     23  C   UNL     1       3.193   4.683  17.668  0.00  0.00    +0.000 A 
ATOM     24  C   UNL     1       2.403   5.681  18.260  0.00  0.00    +0.000 A 
ENDBRANCH   7  18
TORSDOF 2
ENDMDL
MODEL 7
REMARK VINA RESULT:      -6.9      6.046      8.302
REMARK  Name = 
REMARK  3 active torsions:
REMARK  status: ('A' for Active; 'I' for Inactive)
REMARK    1  A    between atoms: C_1  and  C_2
REMARK    2  A    between atoms: C_5  and  C_6
REMARK    3  A    between atoms: C_12  and  C_13
REMARK                            x       y       z     vdW  Elec       q    Type
REMARK                         _______ _______ _______ _____ _____    ______ ____
ROOT
ATOM      1  C   UNL     1      -0.579  11.008  19.999  0.00  0.00    +0.000 C 
ATOM      2  C   UNL     1       0.686  11.833  19.740  0.00  0.00    +0.000 C 
ATOM      3  C   UNL     1       1.599  11.237  18.704  0.00  0.00    +0.000 C 
ATOM      4  O   UNL     1       2.213  11.897  17.872  0.00  0.00    +0.000 OA
ATOM      5  N   UNL     1       1.798   9.859  18.821  0.00  0.00    +0.000 N 
ATOM      6  N   UNL     1       2.700   9.210  18.057  0.00  0.00    +0.000 NA
ATOM      7  C   UNL     1       2.584   7.938  18.468  0.00  0.00    +0.000 A 
ATOM      8  N   UNL     1       1.661   7.756  19.476  0.00  0.00    +0.000 NA
ATOM      9  C   UNL     1       1.190   8.969  19.660  0.00  0.00    +0.000 A 
ATOM     10  S   UNL     1      -0.030   9.440  20.787  0.00  0.00    +0.000 S 
ENDROOT
BRANCH   1  15
ATOM     11  C   UNL     1      -3.991  10.487  15.245  0.00  0.00    +0.000 C 
ATOM     12  C   UNL     1      -3.147  10.613  16.477  0.00  0.00    +0.000 A 
ATOM     13  C   UNL     1      -3.428  11.566  17.455  0.00  0.00    +0.000 A 
ATOM     14  C   UNL     1      -2.616  11.686  18.590  0.00  0.00    +0.000 A 
ATOM     15  C   UNL     1      -1.512  10.841  18.798  0.00  0.00    +0.000 A 
ATOM     16  C   UNL     1      -1.231   9.900  17.789  0.00  0.00    +0.000 A 
ATOM     17  C   UNL     1      -2.038   9.783  16.652  0.00  0.00    +0.000 A 
ENDBRANCH   1  15
BRANCH   7  18
ATOM     18  C   UNL     1       3.353   6.856  17.863  0.00  0.00    +0.000 A 
ATOM     19  C   UNL     1       4.469   7.163  17.064  0.00  0.00    +0.000 A 
ATOM     20  C   UNL     1       5.191   6.160  16.418  0.00  0.00    +0.000 A 
ATOM     21  C   UNL     1       4.805   4.833  16.570  0.00  0.00    +0.000 A 
ATOM     22 CL   UNL     1       5.674   3.598  15.746  0.00  0.00    +0.000 Cl
ATOM     23  C   UNL     1       3.714   4.502  17.375  0.00  0.00    +0.000 A 
ATOM     24  C   UNL     1       2.989   5.512  18.024  0.00  0.00    +0.000 A 
ENDBRANCH   7  18
TORSDOF 2
ENDMDL
MODEL 8
REMARK VINA RESULT:      -6.9      5.841      8.469
REMARK  Name = 
REMARK  3 active torsions:
REMARK  status: ('A' for Active; 'I' for Inactive)
REMARK    1  A    between atoms: C_1  and  C_2
REMARK    2  A    between atoms: C_5  and  C_6
REMARK    3  A    between atoms: C_12  and  C_13
REMARK                            x       y       z     vdW  Elec       q    Type
REMARK                         _______ _______ _______ _____ _____    ______ ____
ROOT
ATOM      1  C   UNL     1      -0.198  11.805  19.974  0.00  0.00    +0.000 C 
ATOM      2  C   UNL     1      -0.239  10.866  21.184  0.00  0.00    +0.000 C 
ATOM      3  C   UNL     1       0.895   9.878  21.225  0.00  0.00    +0.000 C 
ATOM      4  O   UNL     1       1.472   9.542  22.254  0.00  0.00    +0.000 OA
ATOM      5  N   UNL     1       1.185   9.267  20.003  0.00  0.00    +0.000 N 
ATOM      6  N   UNL     1       2.075   8.258  19.914  0.00  0.00    +0.000 NA
ATOM      7  C   UNL     1       2.064   7.961  18.605  0.00  0.00    +0.000 A 
ATOM      8  N   UNL     1       1.189   8.725  17.864  0.00  0.00    +0.000 NA
ATOM      9  C   UNL     1       0.670   9.528  18.765  0.00  0.00    +0.000 A 
ATOM     10  S   UNL     1      -0.503  10.764  18.489  0.00  0.00    +0.000 S 
ENDROOT
BRANCH   1  15
ATOM     11  C   UNL     1       4.663  15.091  19.686  0.00  0.00    +0.000 C 
ATOM     12  C   UNL     1       3.405  14.280  19.765  0.00  0.00    +0.000 A 
ATOM     13  C   UNL     1       2.619  14.271  20.916  0.00  0.00    +0.000 A 
ATOM     14  C   UNL     1       1.458  13.490  20.982  0.00  0.00    +0.000 A 
ATOM     15  C   UNL     1       1.030  12.714  19.890  0.00  0.00    +0.000 A 
ATOM     16  C   UNL     1       1.849  12.720  18.745  0.00  0.00    +0.000 A 
ATOM     17  C   UNL     1       3.012  13.495  18.681  0.00  0.00    +0.000 A 
ENDBRANCH   1  15
BRANCH   7  18
ATOM     18  C   UNL     1       2.936   6.939  18.036  0.00  0.00    +0.000 A 
ATOM     19  C   UNL     1       4.102   7.328  17.350  0.00  0.00    +0.000 A 
ATOM     20  C   UNL     1       4.927   6.385  16.739  0.00  0.00    +0.000 A 
ATOM     21  C   UNL     1       4.597   5.036  16.811  0.00  0.00    +0.000 A 
ATOM     22 CL   UNL     1       5.595   3.875  16.028  0.00  0.00    +0.000 Cl
ATOM     23  C   UNL     1       3.457   4.625  17.504  0.00  0.00    +0.000 A 
ATOM     24  C   UNL     1       2.628   5.575  18.119  0.00  0.00    +0.000 A 
ENDBRANCH   7  18
TORSDOF 2
ENDMDL
MODEL 9
REMARK VINA RESULT:      -6.9      6.032      8.727
REMARK  Name = 
REMARK  3 active torsions:
REMARK  status: ('A' for Active; 'I' for Inactive)
REMARK    1  A    between atoms: C_1  and  C_2
REMARK    2  A    between atoms: C_5  and  C_6
REMARK    3  A    between atoms: C_12  and  C_13
REMARK                            x       y       z     vdW  Elec       q    Type
REMARK                         _______ _______ _______ _____ _____    ______ ____
ROOT
ATOM      1  C   UNL     1      -0.098  12.245  20.053  0.00  0.00    +0.000 C 
ATOM      2  C   UNL     1      -0.263  11.288  21.237  0.00  0.00    +0.000 C 
ATOM      3  C   UNL     1       0.775  10.200  21.290  0.00  0.00    +0.000 C 
ATOM      4  O   UNL     1       1.285   9.792  22.328  0.00  0.00    +0.000 OA
ATOM      5  N   UNL     1       1.050   9.591  20.063  0.00  0.00    +0.000 N 
ATOM      6  N   UNL     1       1.848   8.508  19.977  0.00  0.00    +0.000 NA
ATOM      7  C   UNL     1       1.853   8.241  18.662  0.00  0.00    +0.000 A 
ATOM      8  N   UNL     1       1.075   9.097  17.913  0.00  0.00    +0.000 NA
ATOM      9  C   UNL     1       0.600   9.924  18.816  0.00  0.00    +0.000 A 
ATOM     10  S   UNL     1      -0.446  11.267  18.535  0.00  0.00    +0.000 S 
ENDROOT
BRANCH   1  15
ATOM     11  C   UNL     1       4.786  15.508  19.941  0.00  0.00    +0.000 C 
ATOM     12  C   UNL     1       3.558  14.649  19.961  0.00  0.00    +0.000 A 
ATOM     13  C   UNL     1       3.145  13.946  18.831  0.00  0.00    +0.000 A 
ATOM     14  C   UNL     1       1.982  13.165  18.860  0.00  0.00    +0.000 A 
ATOM     15  C   UNL     1       1.209  13.040  20.028  0.00  0.00    +0.000 A 
ATOM     16  C   UNL     1       1.631  13.774  21.153  0.00  0.00    +0.000 A 
ATOM     17  C   UNL     1       2.789  14.559  21.122  0.00  0.00    +0.000 A 
ENDBRANCH   1  15
BRANCH   7  18
ATOM     18  C   UNL     1       2.648   7.157  18.096  0.00  0.00    +0.000 A 
ATOM     19  C   UNL     1       2.213   5.827  18.249  0.00  0.00    +0.000 A 
ATOM     20  C   UNL     1       2.977   4.761  17.776  0.00  0.00    +0.000 A 
ATOM     21  C   UNL     1       4.186   5.013  17.138  0.00  0.00    +0.000 A 
ATOM     22 CL   UNL     1       5.145   3.696  16.586  0.00  0.00    +0.000 Cl
ATOM     23  C   UNL     1       4.627   6.325  16.956  0.00  0.00    +0.000 A 
ATOM     24  C   UNL     1       3.858   7.397  17.432  0.00  0.00    +0.000 A 
ENDBRANCH   7  18
TORSDOF 2
ENDMDL
