MODEL 1
REMARK VINA RESULT:      -6.5      0.000      0.000
REMARK  Name = 
REMARK  8 active torsions:
REMARK  status: ('A' for Active; 'I' for Inactive)
REMARK    1  A    between atoms: C_1  and  O_2
REMARK    2  A    between atoms: O_2  and  C_3
REMARK    3  A    between atoms: C_3  and  C_5
REMARK    4  A    between atoms: C_5  and  C_6
REMARK    5  A    between atoms: C_10  and  C_11
REMARK    6  A    between atoms: C_15  and  C_16
REMARK    7  A    between atoms: C_16  and  C_17
REMARK    8  A    between atoms: C_16  and  C_18
REMARK                            x       y       z     vdW  Elec       q    Type
REMARK                         _______ _______ _______ _____ _____    ______ ____
ROOT
ATOM      1  C   UNL     1       1.375  14.299  20.346  0.00  0.00    +0.000 C 
ATOM      2  C   UNL     1       2.709  13.671  20.910  0.00  0.00    +0.000 C 
ATOM      3  C   UNL     1       1.682  14.236  18.811  0.00  0.00    +0.000 C 
ATOM      4  C   UNL     1       1.429  12.909  18.158  0.00  0.00    +0.000 C 
ATOM      5  C   UNL     1       0.432  11.901  18.624  0.00  0.00    +0.000 C 
ATOM      6  C   UNL     1      -0.408  12.172  19.871  0.00  0.00    +0.000 C 
ATOM      7  C   UNL     1      -0.103  11.087  20.936  0.00  0.00    +0.000 C 
ATOM      8  C   UNL     1      -1.893  11.914  19.399  0.00  0.00    +0.000 A 
ATOM      9  C   UNL     1      -2.213  10.946  18.427  0.00  0.00    +0.000 A 
ATOM     10  C   UNL     1      -3.503  10.799  17.937  0.00  0.00    +0.000 A 
ATOM     11  C   UNL     1      -4.570  11.500  18.490  0.00  0.00    +0.000 A 
ATOM     12  C   UNL     1      -4.276  12.410  19.519  0.00  0.00    +0.000 A 
ATOM     13  C   UNL     1      -2.948  12.630  19.958  0.00  0.00    +0.000 A 
ATOM     14  C   UNL     1      -2.605  13.470  21.103  0.00  0.00    +0.000 A 
ATOM     15  N   UNL     1      -3.546  13.740  22.033  0.00  0.00    +0.000 N 
ATOM     16  C   UNL     1      -2.991  14.267  23.147  0.00  0.00    +0.000 A 
ATOM     17  C   UNL     1      -3.688  14.548  24.332  0.00  0.00    +0.000 A 
ATOM     18  C   UNL     1      -2.980  15.100  25.381  0.00  0.00    +0.000 A 
ATOM     19  C   UNL     1      -1.621  15.352  25.209  0.00  0.00    +0.000 A 
ATOM     20 BR   UNL     1      -0.734  16.209  26.655  0.00  0.00    +0.000 Br
ATOM     21  C   UNL     1      -0.920  15.036  24.000  0.00  0.00    +0.000 A 
ATOM     22  C   UNL     1      -1.611  14.456  22.900  0.00  0.00    +0.000 A 
ATOM     23  C   UNL     1      -1.338  13.931  21.543  0.00  0.00    +0.000 A 
ATOM     24  C   UNL     1      -0.152  13.675  20.487  0.00  0.00    +0.000 C 
ATOM     25  H   UNL     1      -4.513  13.461  21.964  0.00  0.00    +0.000 HD
ENDROOT
BRANCH  11  26
ATOM     26  C   UNL     1      -5.965  11.166  17.983  0.00  0.00    +0.000 C 
ATOM     27  C   UNL     1      -6.708  10.288  18.998  0.00  0.00    +0.000 C 
ATOM     28  C   UNL     1      -6.826  12.353  17.556  0.00  0.00    +0.000 C 
ENDBRANCH  11  26
BRANCH   1  29
ATOM     29  C   UNL     1       1.507  15.810  20.665  0.00  0.00    +0.000 C 
ATOM     30  O   UNL     1       1.785  16.283  21.775  0.00  0.00    +0.000 OA
BRANCH  29  32
ATOM     31  C   UNL     1      -0.052  17.403  19.876  0.00  0.00    +0.000 C 
ATOM     32  O   UNL     1       1.069  16.552  19.613  0.00  0.00    +0.000 OA
ENDBRANCH  29  32
ENDBRANCH   1  29
TORSDOF 3
ENDMDL
MODEL 2
REMARK VINA RESULT:      -6.4      3.321      6.238
REMARK  Name = 
REMARK  8 active torsions:
REMARK  status: ('A' for Active; 'I' for Inactive)
REMARK    1  A    between atoms: C_1  and  O_2
REMARK    2  A    between atoms: O_2  and  C_3
REMARK    3  A    between atoms: C_3  and  C_5
REMARK    4  A    between atoms: C_5  and  C_6
REMARK    5  A    between atoms: C_10  and  C_11
REMARK    6  A    between atoms: C_15  and  C_16
REMARK    7  A    between atoms: C_16  and  C_17
REMARK    8  A    between atoms: C_16  and  C_18
REMARK                            x       y       z     vdW  Elec       q    Type
REMARK                         _______ _______ _______ _____ _____    ______ ____
ROOT
ATOM      1  C   UNL     1       1.214  12.245  19.295  0.00  0.00    +0.000 C 
ATOM      2  C   UNL     1       2.170  12.834  18.185  0.00  0.00    +0.000 C 
ATOM      3  C   UNL     1       2.134  12.412  20.552  0.00  0.00    +0.000 C 
ATOM      4  C   UNL     1       2.141  13.780  21.168  0.00  0.00    +0.000 C 
ATOM      5  C   UNL     1       1.013  14.754  21.104  0.00  0.00    +0.000 C 
ATOM      6  C   UNL     1      -0.265  14.399  20.345  0.00  0.00    +0.000 C 
ATOM      7  C   UNL     1      -0.466  15.410  19.186  0.00  0.00    +0.000 C 
ATOM      8  C   UNL     1      -1.421  14.689  21.380  0.00  0.00    +0.000 A 
ATOM      9  C   UNL     1      -1.331  15.721  22.336  0.00  0.00    +0.000 A 
ATOM     10  C   UNL     1      -2.300  15.901  23.313  0.00  0.00    +0.000 A 
ATOM     11  C   UNL     1      -3.480  15.164  23.304  0.00  0.00    +0.000 A 
ATOM     12  C   UNL     1      -3.620  14.187  22.305  0.00  0.00    +0.000 A 
ATOM     13  C   UNL     1      -2.593  13.938  21.363  0.00  0.00    +0.000 A 
ATOM     14  C   UNL     1      -2.739  13.021  20.233  0.00  0.00    +0.000 A 
ATOM     15  N   UNL     1      -3.975  12.690  19.804  0.00  0.00    +0.000 N 
ATOM     16  C   UNL     1      -3.923  12.089  18.594  0.00  0.00    +0.000 A 
ATOM     17  C   UNL     1      -5.046  11.729  17.832  0.00  0.00    +0.000 A 
ATOM     18  C   UNL     1      -4.828  11.107  16.619  0.00  0.00    +0.000 A 
ATOM     19  C   UNL     1      -3.515  10.866  16.217  0.00  0.00    +0.000 A 
ATOM     20 BR   UNL     1      -3.293   9.915  14.589  0.00  0.00    +0.000 Br
ATOM     21  C   UNL     1      -2.381  11.263  16.998  0.00  0.00    +0.000 A 
ATOM     22  C   UNL     1      -2.563  11.916  18.249  0.00  0.00    +0.000 A 
ATOM     23  C   UNL     1      -1.760  12.531  19.330  0.00  0.00    +0.000 A 
ATOM     24  C   UNL     1      -0.248  12.858  19.772  0.00  0.00    +0.000 C 
ATOM     25  H   UNL     1      -4.831  12.973  20.256  0.00  0.00    +0.000 HD
ENDROOT
BRANCH  11  26
ATOM     26  C   UNL     1      -4.542  15.532  24.329  0.00  0.00    +0.000 C 
ATOM     27  C   UNL     1      -4.221  16.887  24.972  0.00  0.00    +0.000 C 
ATOM     28  C   UNL     1      -5.990  15.490  23.842  0.00  0.00    +0.000 C 
ENDBRANCH  11  26
BRANCH   1  29
ATOM     29  C   UNL     1       1.242  10.716  19.044  0.00  0.00    +0.000 C 
ATOM     30  O   UNL     1       0.717   9.864  19.773  0.00  0.00    +0.000 OA
BRANCH  29  32
ATOM     31  C   UNL     1       2.284   9.028  17.757  0.00  0.00    +0.000 C 
ATOM     32  O   UNL     1       2.099  10.422  18.031  0.00  0.00    +0.000 OA
ENDBRANCH  29  32
ENDBRANCH   1  29
TORSDOF 3
ENDMDL
MODEL 3
REMARK VINA RESULT:      -6.4      3.149      6.143
REMARK  Name = 
REMARK  8 active torsions:
REMARK  status: ('A' for Active; 'I' for Inactive)
REMARK    1  A    between atoms: C_1  and  O_2
REMARK    2  A    between atoms: O_2  and  C_3
REMARK    3  A    between atoms: C_3  and  C_5
REMARK    4  A    between atoms: C_5  and  C_6
REMARK    5  A    between atoms: C_10  and  C_11
REMARK    6  A    between atoms: C_15  and  C_16
REMARK    7  A    between atoms: C_16  and  C_17
REMARK    8  A    between atoms: C_16  and  C_18
REMARK                            x       y       z     vdW  Elec       q    Type
REMARK                         _______ _______ _______ _____ _____    ______ ____
ROOT
ATOM      1  C   UNL     1       1.349  12.895  19.455  0.00  0.00    +0.000 C 
ATOM      2  C   UNL     1       2.218  13.490  18.278  0.00  0.00    +0.000 C 
ATOM      3  C   UNL     1       2.287  13.222  20.667  0.00  0.00    +0.000 C 
ATOM      4  C   UNL     1       2.192  14.623  21.195  0.00  0.00    +0.000 C 
ATOM      5  C   UNL     1       0.981  15.491  21.109  0.00  0.00    +0.000 C 
ATOM      6  C   UNL     1      -0.282  14.979  20.417  0.00  0.00    +0.000 C 
ATOM      7  C   UNL     1      -0.604  15.890  19.205  0.00  0.00    +0.000 C 
ATOM      8  C   UNL     1      -1.429  15.236  21.472  0.00  0.00    +0.000 A 
ATOM      9  C   UNL     1      -1.403  16.331  22.357  0.00  0.00    +0.000 A 
ATOM     10  C   UNL     1      -2.356  16.491  23.354  0.00  0.00    +0.000 A 
ATOM     11  C   UNL     1      -3.466  15.657  23.431  0.00  0.00    +0.000 A 
ATOM     12  C   UNL     1      -3.548  14.608  22.500  0.00  0.00    +0.000 A 
ATOM     13  C   UNL     1      -2.531  14.386  21.541  0.00  0.00    +0.000 A 
ATOM     14  C   UNL     1      -2.628  13.389  20.477  0.00  0.00    +0.000 A 
ATOM     15  N   UNL     1      -3.841  12.926  20.111  0.00  0.00    +0.000 N 
ATOM     16  C   UNL     1      -3.772  12.254  18.941  0.00  0.00    +0.000 A 
ATOM     17  C   UNL     1      -4.880  11.750  18.241  0.00  0.00    +0.000 A 
ATOM     18  C   UNL     1      -4.643  11.071  17.062  0.00  0.00    +0.000 A 
ATOM     19  C   UNL     1      -3.326  10.919  16.632  0.00  0.00    +0.000 A 
ATOM     20 BR   UNL     1      -3.068   9.885  15.060  0.00  0.00    +0.000 Br
ATOM     21  C   UNL     1      -2.209  11.461  17.348  0.00  0.00    +0.000 A 
ATOM     22  C   UNL     1      -2.412  12.177  18.560  0.00  0.00    +0.000 A 
ATOM     23  C   UNL     1      -1.636  12.927  19.573  0.00  0.00    +0.000 A 
ATOM     24  C   UNL     1      -0.147  13.411  19.942  0.00  0.00    +0.000 C 
ATOM     25  H   UNL     1      -4.706  13.164  20.574  0.00  0.00    +0.000 HD
ENDROOT
BRANCH  11  26
ATOM     26  C   UNL     1      -4.527  15.998  24.467  0.00  0.00    +0.000 C 
ATOM     27  C   UNL     1      -4.197  17.330  25.153  0.00  0.00    +0.000 C 
ATOM     28  C   UNL     1      -5.974  15.982  23.978  0.00  0.00    +0.000 C 
ENDBRANCH  11  26
BRANCH   1  29
ATOM     29  C   UNL     1       1.504  11.361  19.299  0.00  0.00    +0.000 C 
ATOM     30  O   UNL     1       1.798  10.778  18.246  0.00  0.00    +0.000 OA
BRANCH  29  32
ATOM     31  C   UNL     1       0.117   9.679  20.212  0.00  0.00    +0.000 C 
ATOM     32  O   UNL     1       1.069  10.728  20.420  0.00  0.00    +0.000 OA
ENDBRANCH  29  32
ENDBRANCH   1  29
TORSDOF 3
ENDMDL
MODEL 4
REMARK VINA RESULT:      -6.4      6.265     10.490
REMARK  Name = 
REMARK  8 active torsions:
REMARK  status: ('A' for Active; 'I' for Inactive)
REMARK    1  A    between atoms: C_1  and  O_2
REMARK    2  A    between atoms: O_2  and  C_3
REMARK    3  A    between atoms: C_3  and  C_5
REMARK    4  A    between atoms: C_5  and  C_6
REMARK    5  A    between atoms: C_10  and  C_11
REMARK    6  A    between atoms: C_15  and  C_16
REMARK    7  A    between atoms: C_16  and  C_17
REMARK    8  A    between atoms: C_16  and  C_18
REMARK                            x       y       z     vdW  Elec       q    Type
REMARK                         _______ _______ _______ _____ _____    ______ ____
ROOT
ATOM      1  C   UNL     1       4.426  15.684  20.920  0.00  0.00    +0.000 C 
ATOM      2  C   UNL     1       3.868  17.041  21.504  0.00  0.00    +0.000 C 
ATOM      3  C   UNL     1       4.169  15.928  19.394  0.00  0.00    +0.000 C 
ATOM      4  C   UNL     1       5.206  16.752  18.689  0.00  0.00    +0.000 C 
ATOM      5  C   UNL     1       6.640  16.849  19.089  0.00  0.00    +0.000 C 
ATOM      6  C   UNL     1       7.147  16.095  20.319  0.00  0.00    +0.000 C 
ATOM      7  C   UNL     1       7.684  17.114  21.356  0.00  0.00    +0.000 C 
ATOM      8  C   UNL     1       8.407  15.304  19.792  0.00  0.00    +0.000 A 
ATOM      9  C   UNL     1       9.243  15.813  18.778  0.00  0.00    +0.000 A 
ATOM     10  C   UNL     1      10.284  15.066  18.243  0.00  0.00    +0.000 A 
ATOM     11  C   UNL     1      10.644  13.837  18.786  0.00  0.00    +0.000 A 
ATOM     12  C   UNL     1       9.869  13.354  19.853  0.00  0.00    +0.000 A 
ATOM     13  C   UNL     1       8.750  14.071  20.341  0.00  0.00    +0.000 A 
ATOM     14  C   UNL     1       7.989  13.673  21.524  0.00  0.00    +0.000 A 
ATOM     15  N   UNL     1       8.557  12.852  22.432  0.00  0.00    +0.000 N 
ATOM     16  C   UNL     1       7.844  12.830  23.580  0.00  0.00    +0.000 A 
ATOM     17  C   UNL     1       8.235  12.162  24.751  0.00  0.00    +0.000 A 
ATOM     18  C   UNL     1       7.387  12.222  25.840  0.00  0.00    +0.000 A 
ATOM     19  C   UNL     1       6.194  12.932  25.719  0.00  0.00    +0.000 A 
ATOM     20 BR   UNL     1       5.030  12.884  27.220  0.00  0.00    +0.000 Br
ATOM     21  C   UNL     1       5.823  13.628  24.523  0.00  0.00    +0.000 A 
ATOM     22  C   UNL     1       6.674  13.600  23.383  0.00  0.00    +0.000 A 
ATOM     23  C   UNL     1       6.755  14.169  22.018  0.00  0.00    +0.000 A 
ATOM     24  C   UNL     1       5.989  15.142  20.992  0.00  0.00    +0.000 C 
ATOM     25  H   UNL     1       9.463  12.420  22.324  0.00  0.00    +0.000 HD
ENDROOT
BRANCH  11  26
ATOM     26  C   UNL     1      11.886  13.162  18.224  0.00  0.00    +0.000 C 
ATOM     27  C   UNL     1      11.904  11.675  18.601  0.00  0.00    +0.000 C 
ATOM     28  C   UNL     1      12.133  13.347  16.728  0.00  0.00    +0.000 C 
ENDBRANCH  11  26
BRANCH   1  29
ATOM     29  C   UNL     1       3.343  14.641  21.293  0.00  0.00    +0.000 C 
ATOM     30  O   UNL     1       2.856  14.491  22.422  0.00  0.00    +0.000 OA
BRANCH  29  32
ATOM     31  C   UNL     1       1.914  13.053  20.279  0.00  0.00    +0.000 C 
ATOM     32  O   UNL     1       3.153  13.773  20.264  0.00  0.00    +0.000 OA
ENDBRANCH  29  32
ENDBRANCH   1  29
TORSDOF 3
ENDMDL
MODEL 5
REMARK VINA RESULT:      -6.3      1.048      1.416
REMARK  Name = 
REMARK  8 active torsions:
REMARK  status: ('A' for Active; 'I' for Inactive)
REMARK    1  A    between atoms: C_1  and  O_2
REMARK    2  A    between atoms: O_2  and  C_3
REMARK    3  A    between atoms: C_3  and  C_5
REMARK    4  A    between atoms: C_5  and  C_6
REMARK    5  A    between atoms: C_10  and  C_11
REMARK    6  A    between atoms: C_15  and  C_16
REMARK    7  A    between atoms: C_16  and  C_17
REMARK    8  A    between atoms: C_16  and  C_18
REMARK                            x       y       z     vdW  Elec       q    Type
REMARK                         _______ _______ _______ _____ _____    ______ ____
ROOT
ATOM      1  C   UNL     1       2.221  14.584  20.500  0.00  0.00    +0.000 C 
ATOM      2  C   UNL     1       3.522  14.153  21.284  0.00  0.00    +0.000 C 
ATOM      3  C   UNL     1       2.773  14.550  19.034  0.00  0.00    +0.000 C 
ATOM      4  C   UNL     1       2.810  13.195  18.391  0.00  0.00    +0.000 C 
ATOM      5  C   UNL     1       1.899  12.062  18.726  0.00  0.00    +0.000 C 
ATOM      6  C   UNL     1       0.842  12.225  19.818  0.00  0.00    +0.000 C 
ATOM      7  C   UNL     1       1.119  11.204  20.951  0.00  0.00    +0.000 C 
ATOM      8  C   UNL     1      -0.499  11.759  19.129  0.00  0.00    +0.000 A 
ATOM      9  C   UNL     1      -0.527  10.747  18.149  0.00  0.00    +0.000 A 
ATOM     10  C   UNL     1      -1.690  10.417  17.468  0.00  0.00    +0.000 A 
ATOM     11  C   UNL     1      -2.916  10.968  17.826  0.00  0.00    +0.000 A 
ATOM     12  C   UNL     1      -2.916  11.919  18.860  0.00  0.00    +0.000 A 
ATOM     13  C   UNL     1      -1.718  12.325  19.493  0.00  0.00    +0.000 A 
ATOM     14  C   UNL     1      -1.679  13.216  20.651  0.00  0.00    +0.000 A 
ATOM     15  N   UNL     1      -2.783  13.360  21.414  0.00  0.00    +0.000 N 
ATOM     16  C   UNL     1      -2.488  13.969  22.584  0.00  0.00    +0.000 A 
ATOM     17  C   UNL     1      -3.397  14.161  23.637  0.00  0.00    +0.000 A 
ATOM     18  C   UNL     1      -2.947  14.816  24.766  0.00  0.00    +0.000 A 
ATOM     19  C   UNL     1      -1.624  15.254  24.801  0.00  0.00    +0.000 A 
ATOM     20 BR   UNL     1      -1.103  16.238  26.340  0.00  0.00    +0.000 Br
ATOM     21  C   UNL     1      -0.703  15.028  23.726  0.00  0.00    +0.000 A 
ATOM     22  C   UNL     1      -1.126  14.347  22.550  0.00  0.00    +0.000 A 
ATOM     23  C   UNL     1      -0.572  13.853  21.269  0.00  0.00    +0.000 A 
ATOM     24  C   UNL     1       0.791  13.755  20.420  0.00  0.00    +0.000 C 
ATOM     25  H   UNL     1      -3.680  12.949  21.204  0.00  0.00    +0.000 HD
ENDROOT
BRANCH  11  26
ATOM     26  C   UNL     1      -4.154  10.438  17.118  0.00  0.00    +0.000 C 
ATOM     27  C   UNL     1      -5.402  11.207  17.573  0.00  0.00    +0.000 C 
ATOM     28  C   UNL     1      -4.081  10.374  15.593  0.00  0.00    +0.000 C 
ENDBRANCH  11  26
BRANCH   1  29
ATOM     29  C   UNL     1       2.094  16.101  20.788  0.00  0.00    +0.000 C 
ATOM     30  O   UNL     1       1.965  16.605  21.913  0.00  0.00    +0.000 OA
BRANCH  29  32
ATOM     31  C   UNL     1       1.443  18.129  19.760  0.00  0.00    +0.000 C 
ATOM     32  O   UNL     1       1.931  16.789  19.627  0.00  0.00    +0.000 OA
ENDBRANCH  29  32
ENDBRANCH   1  29
TORSDOF 3
ENDMDL
MODEL 6
REMARK VINA RESULT:      -6.2      9.457     11.752
REMARK  Name = 
REMARK  8 active torsions:
REMARK  status: ('A' for Active; 'I' for Inactive)
REMARK    1  A    between atoms: C_1  and  O_2
REMARK    2  A    between atoms: O_2  and  C_3
REMARK    3  A    between atoms: C_3  and  C_5
REMARK    4  A    between atoms: C_5  and  C_6
REMARK    5  A    between atoms: C_10  and  C_11
REMARK    6  A    between atoms: C_15  and  C_16
REMARK    7  A    between atoms: C_16  and  C_17
REMARK    8  A    between atoms: C_16  and  C_18
REMARK                            x       y       z     vdW  Elec       q    Type
REMARK                         _______ _______ _______ _____ _____    ______ ____
ROOT
ATOM      1  C   UNL     1       9.315  16.681  22.658  0.00  0.00    +0.000 C 
ATOM      2  C   UNL     1       8.779  17.819  21.704  0.00  0.00    +0.000 C 
ATOM      3  C   UNL     1       9.224  17.425  24.034  0.00  0.00    +0.000 C 
ATOM      4  C   UNL     1       7.867  17.433  24.673  0.00  0.00    +0.000 C 
ATOM      5  C   UNL     1       6.819  16.390  24.472  0.00  0.00    +0.000 C 
ATOM      6  C   UNL     1       7.079  15.211  23.535  0.00  0.00    +0.000 C 
ATOM      7  C   UNL     1       6.045  15.240  22.381  0.00  0.00    +0.000 C 
ATOM      8  C   UNL     1       6.724  13.942  24.406  0.00  0.00    +0.000 A 
ATOM      9  C   UNL     1       5.712  13.964  25.385  0.00  0.00    +0.000 A 
ATOM     10  C   UNL     1       5.479  12.881  26.222  0.00  0.00    +0.000 A 
ATOM     11  C   UNL     1       6.135  11.669  26.034  0.00  0.00    +0.000 A 
ATOM     12  C   UNL     1       7.090  11.608  25.005  0.00  0.00    +0.000 A 
ATOM     13  C   UNL     1       7.396  12.739  24.210  0.00  0.00    +0.000 A 
ATOM     14  C   UNL     1       8.288  12.694  23.053  0.00  0.00    +0.000 A 
ATOM     15  N   UNL     1       8.532  11.512  22.449  0.00  0.00    +0.000 N 
ATOM     16  C   UNL     1       9.121  11.693  21.246  0.00  0.00    +0.000 A 
ATOM     17  C   UNL     1       9.397  10.668  20.328  0.00  0.00    +0.000 A 
ATOM     18  C   UNL     1      10.019  11.013  19.144  0.00  0.00    +0.000 A 
ATOM     19  C   UNL     1      10.341  12.351  18.925  0.00  0.00    +0.000 A 
ATOM     20 BR   UNL     1      11.288  12.738  17.324  0.00  0.00    +0.000 Br
ATOM     21  C   UNL     1      10.030  13.388  19.864  0.00  0.00    +0.000 A 
ATOM     22  C   UNL     1       9.380  13.075  21.090  0.00  0.00    +0.000 A 
ATOM     23  C   UNL     1       8.832  13.756  22.285  0.00  0.00    +0.000 A 
ATOM     24  C   UNL     1       8.611  15.209  22.939  0.00  0.00    +0.000 C 
ATOM     25  H   UNL     1       8.197  10.621  22.783  0.00  0.00    +0.000 HD
ENDROOT
BRANCH  11  26
ATOM     26  C   UNL     1       5.709  10.500  26.908  0.00  0.00    +0.000 C 
ATOM     27  C   UNL     1       6.466  10.525  28.243  0.00  0.00    +0.000 C 
ATOM     28  C   UNL     1       4.207  10.344  27.138  0.00  0.00    +0.000 C 
ENDBRANCH  11  26
BRANCH   1  29
ATOM     29  C   UNL     1      10.839  16.646  22.382  0.00  0.00    +0.000 C 
ATOM     30  O   UNL     1      11.722  16.853  23.226  0.00  0.00    +0.000 OA
BRANCH  29  32
ATOM     31  C   UNL     1      12.329  17.092  20.601  0.00  0.00    +0.000 C 
ATOM     32  O   UNL     1      11.074  16.565  21.046  0.00  0.00    +0.000 OA
ENDBRANCH  29  32
ENDBRANCH   1  29
TORSDOF 3
ENDMDL
MODEL 7
REMARK VINA RESULT:      -6.1      3.357      6.531
REMARK  Name = 
REMARK  8 active torsions:
REMARK  status: ('A' for Active; 'I' for Inactive)
REMARK    1  A    between atoms: C_1  and  O_2
REMARK    2  A    between atoms: O_2  and  C_3
REMARK    3  A    between atoms: C_3  and  C_5
REMARK    4  A    between atoms: C_5  and  C_6
REMARK    5  A    between atoms: C_10  and  C_11
REMARK    6  A    between atoms: C_15  and  C_16
REMARK    7  A    between atoms: C_16  and  C_17
REMARK    8  A    between atoms: C_16  and  C_18
REMARK                            x       y       z     vdW  Elec       q    Type
REMARK                         _______ _______ _______ _____ _____    ______ ____
ROOT
ATOM      1  C   UNL     1       0.197  10.207  19.944  0.00  0.00    +0.000 C 
ATOM      2  C   UNL     1      -0.931   9.718  18.952  0.00  0.00    +0.000 C 
ATOM      3  C   UNL     1       1.446   9.543  19.270  0.00  0.00    +0.000 C 
ATOM      4  C   UNL     1       2.028  10.294  18.109  0.00  0.00    +0.000 C 
ATOM      5  C   UNL     1       1.943  11.771  17.916  0.00  0.00    +0.000 C 
ATOM      6  C   UNL     1       1.197  12.637  18.931  0.00  0.00    +0.000 C 
ATOM      7  C   UNL     1       0.014  13.346  18.224  0.00  0.00    +0.000 C 
ATOM      8  C   UNL     1       2.229  13.773  19.300  0.00  0.00    +0.000 A 
ATOM      9  C   UNL     1       3.158  14.275  18.367  0.00  0.00    +0.000 A 
ATOM     10  C   UNL     1       4.134  15.194  18.726  0.00  0.00    +0.000 A 
ATOM     11  C   UNL     1       4.147  15.776  19.989  0.00  0.00    +0.000 A 
ATOM     12  C   UNL     1       3.173  15.345  20.905  0.00  0.00    +0.000 A 
ATOM     13  C   UNL     1       2.234  14.340  20.572  0.00  0.00    +0.000 A 
ATOM     14  C   UNL     1       1.129  13.947  21.443  0.00  0.00    +0.000 A 
ATOM     15  N   UNL     1       0.712  14.793  22.408  0.00  0.00    +0.000 N 
ATOM     16  C   UNL     1      -0.483  14.407  22.910  0.00  0.00    +0.000 A 
ATOM     17  C   UNL     1      -1.232  15.139  23.844  0.00  0.00    +0.000 A 
ATOM     18  C   UNL     1      -2.430  14.603  24.272  0.00  0.00    +0.000 A 
ATOM     19  C   UNL     1      -2.829  13.369  23.761  0.00  0.00    +0.000 A 
ATOM     20 BR   UNL     1      -4.435  12.643  24.472  0.00  0.00    +0.000 Br
ATOM     21  C   UNL     1      -2.063  12.647  22.789  0.00  0.00    +0.000 A 
ATOM     22  C   UNL     1      -0.828  13.171  22.315  0.00  0.00    +0.000 A 
ATOM     23  C   UNL     1       0.235  12.850  21.336  0.00  0.00    +0.000 A 
ATOM     24  C   UNL     1       0.663  11.770  20.223  0.00  0.00    +0.000 C 
ATOM     25  H   UNL     1       1.159  15.669  22.631  0.00  0.00    +0.000 HD
ENDROOT
BRANCH  11  26
ATOM     26  C   UNL     1       5.166  16.877  20.242  0.00  0.00    +0.000 C 
ATOM     27  C   UNL     1       5.975  17.160  18.969  0.00  0.00    +0.000 C 
ATOM     28  C   UNL     1       4.622  18.173  20.840  0.00  0.00    +0.000 C 
ENDBRANCH  11  26
BRANCH   1  29
ATOM     29  C   UNL     1      -0.016   9.341  21.211  0.00  0.00    +0.000 C 
ATOM     30  O   UNL     1      -0.808   8.393  21.302  0.00  0.00    +0.000 OA
BRANCH  29  32
ATOM     31  C   UNL     1       0.072   9.605  23.559  0.00  0.00    +0.000 C 
ATOM     32  O   UNL     1       0.629   9.894  22.272  0.00  0.00    +0.000 OA
ENDBRANCH  29  32
ENDBRANCH   1  29
TORSDOF 3
ENDMDL
MODEL 8
REMARK VINA RESULT:      -6.0      2.666      5.392
REMARK  Name = 
REMARK  8 active torsions:
REMARK  status: ('A' for Active; 'I' for Inactive)
REMARK    1  A    between atoms: C_1  and  O_2
REMARK    2  A    between atoms: O_2  and  C_3
REMARK    3  A    between atoms: C_3  and  C_5
REMARK    4  A    between atoms: C_5  and  C_6
REMARK    5  A    between atoms: C_10  and  C_11
REMARK    6  A    between atoms: C_15  and  C_16
REMARK    7  A    between atoms: C_16  and  C_17
REMARK    8  A    between atoms: C_16  and  C_18
REMARK                            x       y       z     vdW  Elec       q    Type
REMARK                         _______ _______ _______ _____ _____    ______ ____
ROOT
ATOM      1  C   UNL     1      -5.033  14.039  23.446  0.00  0.00    +0.000 C 
ATOM      2  C   UNL     1      -6.009  15.228  23.800  0.00  0.00    +0.000 C 
ATOM      3  C   UNL     1      -5.992  12.826  23.697  0.00  0.00    +0.000 C 
ATOM      4  C   UNL     1      -6.928  12.501  22.570  0.00  0.00    +0.000 C 
ATOM      5  C   UNL     1      -6.664  12.782  21.128  0.00  0.00    +0.000 C 
ATOM      6  C   UNL     1      -5.368  13.476  20.707  0.00  0.00    +0.000 C 
ATOM      7  C   UNL     1      -5.713  14.819  20.014  0.00  0.00    +0.000 C 
ATOM      8  C   UNL     1      -4.781  12.542  19.578  0.00  0.00    +0.000 A 
ATOM      9  C   UNL     1      -5.609  11.815  18.700  0.00  0.00    +0.000 A 
ATOM     10  C   UNL     1      -5.090  10.912  17.782  0.00  0.00    +0.000 A 
ATOM     11  C   UNL     1      -3.718  10.792  17.584  0.00  0.00    +0.000 A 
ATOM     12  C   UNL     1      -2.881  11.574  18.398  0.00  0.00    +0.000 A 
ATOM     13  C   UNL     1      -3.405  12.427  19.398  0.00  0.00    +0.000 A 
ATOM     14  C   UNL     1      -2.586  13.348  20.183  0.00  0.00    +0.000 A 
ATOM     15  N   UNL     1      -1.377  13.723  19.716  0.00  0.00    +0.000 N 
ATOM     16  C   UNL     1      -0.898  14.784  20.404  0.00  0.00    +0.000 A 
ATOM     17  C   UNL     1       0.281  15.477  20.086  0.00  0.00    +0.000 A 
ATOM     18  C   UNL     1       0.645  16.534  20.896  0.00  0.00    +0.000 A 
ATOM     19  C   UNL     1      -0.169  16.855  21.982  0.00  0.00    +0.000 A 
ATOM     20 BR   UNL     1       0.447  18.251  23.112  0.00  0.00    +0.000 Br
ATOM     21  C   UNL     1      -1.382  16.151  22.276  0.00  0.00    +0.000 A 
ATOM     22  C   UNL     1      -1.797  15.063  21.459  0.00  0.00    +0.000 A 
ATOM     23  C   UNL     1      -2.927  14.115  21.327  0.00  0.00    +0.000 A 
ATOM     24  C   UNL     1      -4.348  13.723  21.972  0.00  0.00    +0.000 C 
ATOM     25  H   UNL     1      -0.948  13.354  18.881  0.00  0.00    +0.000 HD
ENDROOT
BRANCH  11  26
ATOM     26  C   UNL     1      -3.251   9.882  16.459  0.00  0.00    +0.000 C 
ATOM     27  C   UNL     1      -3.635  10.474  15.096  0.00  0.00    +0.000 C 
ATOM     28  C   UNL     1      -1.775   9.487  16.483  0.00  0.00    +0.000 C 
ENDBRANCH  11  26
BRANCH   1  29
ATOM     29  C   UNL     1      -4.066  13.973  24.655  0.00  0.00    +0.000 C 
ATOM     30  O   UNL     1      -3.883  12.976  25.368  0.00  0.00    +0.000 OA
BRANCH  29  32
ATOM     31  C   UNL     1      -2.379  15.261  25.695  0.00  0.00    +0.000 C 
ATOM     32  O   UNL     1      -3.605  15.215  24.956  0.00  0.00    +0.000 OA
ENDBRANCH  29  32
ENDBRANCH   1  29
TORSDOF 3
ENDMDL
MODEL 9
REMARK VINA RESULT:      -6.0      5.962     10.080
REMARK  Name = 
REMARK  8 active torsions:
REMARK  status: ('A' for Active; 'I' for Inactive)
REMARK    1  A    between atoms: C_1  and  O_2
REMARK    2  A    between atoms: O_2  and  C_3
REMARK    3  A    between atoms: C_3  and  C_5
REMARK    4  A    between atoms: C_5  and  C_6
REMARK    5  A    between atoms: C_10  and  C_11
REMARK    6  A    between atoms: C_15  and  C_16
REMARK    7  A    between atoms: C_16  and  C_17
REMARK    8  A    between atoms: C_16  and  C_18
REMARK                            x       y       z     vdW  Elec       q    Type
REMARK                         _______ _______ _______ _____ _____    ______ ____
ROOT
ATOM      1  C   UNL     1       3.869  15.241  20.451  0.00  0.00    +0.000 C 
ATOM      2  C   UNL     1       3.210  16.654  20.196  0.00  0.00    +0.000 C 
ATOM      3  C   UNL     1       3.467  14.519  19.120  0.00  0.00    +0.000 C 
ATOM      4  C   UNL     1       4.347  14.807  17.940  0.00  0.00    +0.000 C 
ATOM      5  C   UNL     1       5.789  15.185  18.018  0.00  0.00    +0.000 C 
ATOM      6  C   UNL     1       6.471  15.332  19.378  0.00  0.00    +0.000 C 
ATOM      7  C   UNL     1       6.970  16.790  19.542  0.00  0.00    +0.000 C 
ATOM      8  C   UNL     1       7.767  14.439  19.257  0.00  0.00    +0.000 A 
ATOM      9  C   UNL     1       8.459  14.281  18.040  0.00  0.00    +0.000 A 
ATOM     10  C   UNL     1       9.531  13.409  17.914  0.00  0.00    +0.000 A 
ATOM     11  C   UNL     1      10.067  12.760  19.022  0.00  0.00    +0.000 A 
ATOM     12  C   UNL     1       9.437  12.974  20.259  0.00  0.00    +0.000 A 
ATOM     13  C   UNL     1       8.286  13.790  20.374  0.00  0.00    +0.000 A 
ATOM     14  C   UNL     1       7.670  14.140  21.652  0.00  0.00    +0.000 A 
ATOM     15  N   UNL     1       8.395  14.046  22.786  0.00  0.00    +0.000 N 
ATOM     16  C   UNL     1       7.781  14.680  23.810  0.00  0.00    +0.000 A 
ATOM     17  C   UNL     1       8.334  14.857  25.088  0.00  0.00    +0.000 A 
ATOM     18  C   UNL     1       7.573  15.515  26.034  0.00  0.00    +0.000 A 
ATOM     19  C   UNL     1       6.303  15.962  25.675  0.00  0.00    +0.000 A 
ATOM     20 BR   UNL     1       5.272  16.765  27.054  0.00  0.00    +0.000 Br
ATOM     21  C   UNL     1       5.764  15.793  24.358  0.00  0.00    +0.000 A 
ATOM     22  C   UNL     1       6.521  15.131  23.352  0.00  0.00    +0.000 A 
ATOM     23  C   UNL     1       6.431  14.779  21.917  0.00  0.00    +0.000 A 
ATOM     24  C   UNL     1       5.482  14.916  20.625  0.00  0.00    +0.000 C 
ATOM     25  H   UNL     1       9.332  13.675  22.835  0.00  0.00    +0.000 HD
ENDROOT
BRANCH  11  26
ATOM     26  C   UNL     1      11.329  11.938  18.808  0.00  0.00    +0.000 C 
ATOM     27  C   UNL     1      12.010  12.333  17.491  0.00  0.00    +0.000 C 
ATOM     28  C   UNL     1      12.333  11.936  19.959  0.00  0.00    +0.000 C 
ENDBRANCH  11  26
BRANCH   1  29
ATOM     29  C   UNL     1       2.941  14.578  21.500  0.00  0.00    +0.000 C 
ATOM     30  O   UNL     1       2.876  14.896  22.696  0.00  0.00    +0.000 OA
BRANCH  29  32
ATOM     31  C   UNL     1       0.958  13.322  21.218  0.00  0.00    +0.000 C 
ATOM     32  O   UNL     1       2.364  13.464  20.980  0.00  0.00    +0.000 OA
ENDBRANCH  29  32
ENDBRANCH   1  29
TORSDOF 3
ENDMDL
