MODEL 1
REMARK VINA RESULT:      -7.5      0.000      0.000
REMARK  Name = 
REMARK  3 active torsions:
REMARK  status: ('A' for Active; 'I' for Inactive)
REMARK    1  A    between atoms: C_4  and  C_5
REMARK    2  A    between atoms: N_19  and  C_20
REMARK    3  A    between atoms: C_20  and  C_21
REMARK                            x       y       z     vdW  Elec       q    Type
REMARK                         _______ _______ _______ _____ _____    ______ ____
ROOT
ATOM      1  O   UNL     1       3.130  14.904  22.466  0.00  0.00    +0.000 OA
ATOM      2  C   UNL     1       2.390  14.618  21.532  0.00  0.00    +0.000 A 
ATOM      3  C   UNL     1       2.024  15.625  20.528  0.00  0.00    +0.000 A 
ATOM      4  C   UNL     1       1.159  15.390  19.529  0.00  0.00    +0.000 A 
ATOM      5  C   UNL     1       0.535  14.060  19.452  0.00  0.00    +0.000 A 
ATOM      6  C   UNL     1      -0.438  13.737  18.497  0.00  0.00    +0.000 A 
ATOM      7  C   UNL     1      -0.988  12.452  18.452  0.00  0.00    +0.000 A 
ATOM      8  C   UNL     1      -0.530  11.465  19.322  0.00  0.00    +0.000 A 
ATOM      9  C   UNL     1       0.489  11.744  20.232  0.00  0.00    +0.000 A 
ATOM     10  C   UNL     1       0.957  13.059  20.329  0.00  0.00    +0.000 A 
ATOM     11  O   UNL     1       1.887  13.343  21.350  0.00  0.00    +0.000 OA
ATOM     12  C   UNL     1       1.086  10.623  21.035  0.00  0.00    +0.000 C 
ATOM     13  N   UNL     1       0.862   9.310  20.409  0.00  0.00    +0.000 NA
ATOM     14  C   UNL     1      -0.575   9.236  20.113  0.00  0.00    +0.000 C 
ATOM     15  O   UNL     1      -1.055  10.208  19.167  0.00  0.00    +0.000 OA
ENDROOT
BRANCH   4  16
ATOM     16  C   UNL     1       0.964  16.494  18.571  0.00  0.00    +0.000 A 
ATOM     17  C   UNL     1       2.015  16.884  17.726  0.00  0.00    +0.000 A 
ATOM     18  C   UNL     1       1.840  17.930  16.824  0.00  0.00    +0.000 A 
ATOM     19  C   UNL     1       0.618  18.596  16.756  0.00  0.00    +0.000 A 
ATOM     20  C   UNL     1      -0.432  18.216  17.593  0.00  0.00    +0.000 A 
ATOM     21  C   UNL     1      -0.260  17.169  18.500  0.00  0.00    +0.000 A 
ENDBRANCH   4  16
BRANCH  13  22
ATOM     22  C   UNL     1       1.622   9.106  19.161  0.00  0.00    +0.000 C 
BRANCH  22  23
ATOM     23  C   UNL     1       2.245   7.738  18.970  0.00  0.00    +0.000 A 
ATOM     24  C   UNL     1       3.022   7.442  17.843  0.00  0.00    +0.000 A 
ATOM     25  C   UNL     1       3.709   6.229  17.754  0.00  0.00    +0.000 A 
ATOM     26  C   UNL     1       3.625   5.299  18.789  0.00  0.00    +0.000 A 
ATOM     27  C   UNL     1       2.838   5.570  19.905  0.00  0.00    +0.000 A 
ATOM     28  C   UNL     1       2.150   6.782  19.995  0.00  0.00    +0.000 A 
ENDBRANCH  22  23
ENDBRANCH  13  22
TORSDOF 3
ENDMDL
MODEL 2
REMARK VINA RESULT:      -7.3      4.437      8.187
REMARK  Name = 
REMARK  3 active torsions:
REMARK  status: ('A' for Active; 'I' for Inactive)
REMARK    1  A    between atoms: C_4  and  C_5
REMARK    2  A    between atoms: N_19  and  C_20
REMARK    3  A    between atoms: C_20  and  C_21
REMARK                            x       y       z     vdW  Elec       q    Type
REMARK                         _______ _______ _______ _____ _____    ______ ____
ROOT
ATOM      1  O   UNL     1       0.168  14.306  19.936  0.00  0.00    +0.000 OA
ATOM      2  C   UNL     1      -0.364  13.263  19.576  0.00  0.00    +0.000 A 
ATOM      3  C   UNL     1       0.419  12.029  19.437  0.00  0.00    +0.000 A 
ATOM      4  C   UNL     1      -0.093  10.877  18.975  0.00  0.00    +0.000 A 
ATOM      5  C   UNL     1      -1.508  10.861  18.574  0.00  0.00    +0.000 A 
ATOM      6  C   UNL     1      -2.119   9.735  18.008  0.00  0.00    +0.000 A 
ATOM      7  C   UNL     1      -3.474   9.762  17.660  0.00  0.00    +0.000 A 
ATOM      8  C   UNL     1      -4.241  10.894  17.927  0.00  0.00    +0.000 A 
ATOM      9  C   UNL     1      -3.670  12.000  18.557  0.00  0.00    +0.000 A 
ATOM     10  C   UNL     1      -2.294  11.992  18.807  0.00  0.00    +0.000 A 
ATOM     11  O   UNL     1      -1.720  13.174  19.316  0.00  0.00    +0.000 OA
ATOM     12  C   UNL     1      -4.554  13.135  18.993  0.00  0.00    +0.000 C 
ATOM     13  N   UNL     1      -5.958  12.721  19.141  0.00  0.00    +0.000 NA
ATOM     14  C   UNL     1      -6.317  12.028  17.897  0.00  0.00    +0.000 C 
ATOM     15  O   UNL     1      -5.578  10.821  17.636  0.00  0.00    +0.000 OA
ENDROOT
BRANCH   4  16
ATOM     16  C   UNL     1       0.821   9.720  18.970  0.00  0.00    +0.000 A 
ATOM     17  C   UNL     1       1.462   9.338  17.780  0.00  0.00    +0.000 A 
ATOM     18  C   UNL     1       2.321   8.242  17.766  0.00  0.00    +0.000 A 
ATOM     19  C   UNL     1       2.549   7.519  18.935  0.00  0.00    +0.000 A 
ATOM     20  C   UNL     1       1.914   7.891  20.121  0.00  0.00    +0.000 A 
ATOM     21  C   UNL     1       1.051   8.988  20.139  0.00  0.00    +0.000 A 
ENDBRANCH   4  16
BRANCH  13  22
ATOM     22  C   UNL     1      -6.196  11.817  20.283  0.00  0.00    +0.000 C 
BRANCH  22  23
ATOM     23  C   UNL     1      -6.460  12.479  21.620  0.00  0.00    +0.000 A 
ATOM     24  C   UNL     1      -7.725  12.432  22.219  0.00  0.00    +0.000 A 
ATOM     25  C   UNL     1      -7.914  12.917  23.515  0.00  0.00    +0.000 A 
ATOM     26  C   UNL     1      -6.841  13.457  24.225  0.00  0.00    +0.000 A 
ATOM     27  C   UNL     1      -5.583  13.530  23.633  0.00  0.00    +0.000 A 
ATOM     28  C   UNL     1      -5.394  13.046  22.337  0.00  0.00    +0.000 A 
ENDBRANCH  22  23
ENDBRANCH  13  22
TORSDOF 3
ENDMDL
MODEL 3
REMARK VINA RESULT:      -7.2      0.375      1.342
REMARK  Name = 
REMARK  3 active torsions:
REMARK  status: ('A' for Active; 'I' for Inactive)
REMARK    1  A    between atoms: C_4  and  C_5
REMARK    2  A    between atoms: N_19  and  C_20
REMARK    3  A    between atoms: C_20  and  C_21
REMARK                            x       y       z     vdW  Elec       q    Type
REMARK                         _______ _______ _______ _____ _____    ______ ____
ROOT
ATOM      1  O   UNL     1       3.882  14.733  21.937  0.00  0.00    +0.000 OA
ATOM      2  C   UNL     1       2.977  14.504  21.143  0.00  0.00    +0.000 A 
ATOM      3  C   UNL     1       2.534  15.530  20.191  0.00  0.00    +0.000 A 
ATOM      4  C   UNL     1       1.499  15.361  19.353  0.00  0.00    +0.000 A 
ATOM      5  C   UNL     1       0.765  14.088  19.407  0.00  0.00    +0.000 A 
ATOM      6  C   UNL     1      -0.375  13.841  18.632  0.00  0.00    +0.000 A 
ATOM      7  C   UNL     1      -1.029  12.606  18.705  0.00  0.00    +0.000 A 
ATOM      8  C   UNL     1      -0.515  11.590  19.509  0.00  0.00    +0.000 A 
ATOM      9  C   UNL     1       0.660  11.790  20.233  0.00  0.00    +0.000 A 
ATOM     10  C   UNL     1       1.243  13.062  20.225  0.00  0.00    +0.000 A 
ATOM     11  O   UNL     1       2.349  13.274  21.073  0.00  0.00    +0.000 OA
ATOM     12  C   UNL     1       1.288  10.629  20.951  0.00  0.00    +0.000 C 
ATOM     13  N   UNL     1       0.856   9.334  20.398  0.00  0.00    +0.000 NA
ATOM     14  C   UNL     1      -0.611   9.379  20.344  0.00  0.00    +0.000 C 
ATOM     15  O   UNL     1      -1.159  10.381  19.469  0.00  0.00    +0.000 OA
ENDROOT
BRANCH   4  16
ATOM     16  C   UNL     1       1.240  16.471  18.416  0.00  0.00    +0.000 A 
ATOM     17  C   UNL     1      -0.022  17.086  18.390  0.00  0.00    +0.000 A 
ATOM     18  C   UNL     1      -0.276  18.129  17.504  0.00  0.00    +0.000 A 
ATOM     19  C   UNL     1       0.723  18.568  16.637  0.00  0.00    +0.000 A 
ATOM     20  C   UNL     1       1.980  17.960  16.656  0.00  0.00    +0.000 A 
ATOM     21  C   UNL     1       2.238  16.913  17.542  0.00  0.00    +0.000 A 
ENDBRANCH   4  16
BRANCH  13  22
ATOM     22  C   UNL     1       1.381   9.058  19.047  0.00  0.00    +0.000 C 
BRANCH  22  23
ATOM     23  C   UNL     1       2.310   7.868  18.918  0.00  0.00    +0.000 A 
ATOM     24  C   UNL     1       2.289   6.823  19.850  0.00  0.00    +0.000 A 
ATOM     25  C   UNL     1       3.044   5.667  19.637  0.00  0.00    +0.000 A 
ATOM     26  C   UNL     1       3.830   5.546  18.492  0.00  0.00    +0.000 A 
ATOM     27  C   UNL     1       3.879   6.587  17.568  0.00  0.00    +0.000 A 
ATOM     28  C   UNL     1       3.125   7.742  17.781  0.00  0.00    +0.000 A 
ENDBRANCH  22  23
ENDBRANCH  13  22
TORSDOF 3
ENDMDL
MODEL 4
REMARK VINA RESULT:      -7.2      3.955      8.999
REMARK  Name = 
REMARK  3 active torsions:
REMARK  status: ('A' for Active; 'I' for Inactive)
REMARK    1  A    between atoms: C_4  and  C_5
REMARK    2  A    between atoms: N_19  and  C_20
REMARK    3  A    between atoms: C_20  and  C_21
REMARK                            x       y       z     vdW  Elec       q    Type
REMARK                         _______ _______ _______ _____ _____    ______ ____
ROOT
ATOM      1  O   UNL     1       2.016   4.560  21.413  0.00  0.00    +0.000 OA
ATOM      2  C   UNL     1       2.336   5.320  20.507  0.00  0.00    +0.000 A 
ATOM      3  C   UNL     1       3.369   4.938  19.536  0.00  0.00    +0.000 A 
ATOM      4  C   UNL     1       3.814   5.758  18.570  0.00  0.00    +0.000 A 
ATOM      5  C   UNL     1       3.246   7.112  18.496  0.00  0.00    +0.000 A 
ATOM      6  C   UNL     1       3.695   8.070  17.578  0.00  0.00    +0.000 A 
ATOM      7  C   UNL     1       3.110   9.340  17.534  0.00  0.00    +0.000 A 
ATOM      8  C   UNL     1       2.035   9.643  18.367  0.00  0.00    +0.000 A 
ATOM      9  C   UNL     1       1.524   8.681  19.238  0.00  0.00    +0.000 A 
ATOM     10  C   UNL     1       2.184   7.451  19.338  0.00  0.00    +0.000 A 
ATOM     11  O   UNL     1       1.732   6.551  20.324  0.00  0.00    +0.000 OA
ATOM     12  C   UNL     1       0.260   8.972  19.996  0.00  0.00    +0.000 C 
ATOM     13  N   UNL     1      -0.540  10.030  19.358  0.00  0.00    +0.000 NA
ATOM     14  C   UNL     1       0.377  11.153  19.121  0.00  0.00    +0.000 C 
ATOM     15  O   UNL     1       1.458  10.877  18.213  0.00  0.00    +0.000 OA
ENDROOT
BRANCH   4  16
ATOM     16  C   UNL     1       4.803   5.182  17.639  0.00  0.00    +0.000 A 
ATOM     17  C   UNL     1       6.175   5.290  17.920  0.00  0.00    +0.000 A 
ATOM     18  C   UNL     1       7.114   4.755  17.042  0.00  0.00    +0.000 A 
ATOM     19  C   UNL     1       6.696   4.109  15.880  0.00  0.00    +0.000 A 
ATOM     20  C   UNL     1       5.334   4.000  15.593  0.00  0.00    +0.000 A 
ATOM     21  C   UNL     1       4.389   4.536  16.470  0.00  0.00    +0.000 A 
ENDBRANCH   4  16
BRANCH  13  22
ATOM     22  C   UNL     1      -1.149   9.626  18.076  0.00  0.00    +0.000 C 
BRANCH  22  23
ATOM     23  C   UNL     1      -2.348  10.433  17.618  0.00  0.00    +0.000 A 
ATOM     24  C   UNL     1      -2.772  10.414  16.284  0.00  0.00    +0.000 A 
ATOM     25  C   UNL     1      -3.961  11.043  15.909  0.00  0.00    +0.000 A 
ATOM     26  C   UNL     1      -4.737  11.700  16.864  0.00  0.00    +0.000 A 
ATOM     27  C   UNL     1      -4.315  11.747  18.190  0.00  0.00    +0.000 A 
ATOM     28  C   UNL     1      -3.127  11.119  18.565  0.00  0.00    +0.000 A 
ENDBRANCH  22  23
ENDBRANCH  13  22
TORSDOF 3
ENDMDL
MODEL 5
REMARK VINA RESULT:      -7.2      3.750      8.813
REMARK  Name = 
REMARK  3 active torsions:
REMARK  status: ('A' for Active; 'I' for Inactive)
REMARK    1  A    between atoms: C_4  and  C_5
REMARK    2  A    between atoms: N_19  and  C_20
REMARK    3  A    between atoms: C_20  and  C_21
REMARK                            x       y       z     vdW  Elec       q    Type
REMARK                         _______ _______ _______ _____ _____    ______ ____
ROOT
ATOM      1  O   UNL     1       1.828   4.809  21.366  0.00  0.00    +0.000 OA
ATOM      2  C   UNL     1       2.058   5.600  20.459  0.00  0.00    +0.000 A 
ATOM      3  C   UNL     1       2.952   5.236  19.353  0.00  0.00    +0.000 A 
ATOM      4  C   UNL     1       3.300   6.087  18.375  0.00  0.00    +0.000 A 
ATOM      5  C   UNL     1       2.769   7.458  18.428  0.00  0.00    +0.000 A 
ATOM      6  C   UNL     1       3.131   8.444  17.502  0.00  0.00    +0.000 A 
ATOM      7  C   UNL     1       2.583   9.728  17.582  0.00  0.00    +0.000 A 
ATOM      8  C   UNL     1       1.628  10.021  18.554  0.00  0.00    +0.000 A 
ATOM      9  C   UNL     1       1.199   9.034  19.441  0.00  0.00    +0.000 A 
ATOM     10  C   UNL     1       1.829   7.785  19.408  0.00  0.00    +0.000 A 
ATOM     11  O   UNL     1       1.474   6.853  20.404  0.00  0.00    +0.000 OA
ATOM     12  C   UNL     1       0.046   9.322  20.361  0.00  0.00    +0.000 C 
ATOM     13  N   UNL     1      -0.793  10.427  19.870  0.00  0.00    +0.000 NA
ATOM     14  C   UNL     1       0.122  11.536  19.569  0.00  0.00    +0.000 C 
ATOM     15  O   UNL     1       1.075  11.275  18.523  0.00  0.00    +0.000 OA
ENDROOT
BRANCH   4  16
ATOM     16  C   UNL     1       4.150   5.529  17.306  0.00  0.00    +0.000 A 
ATOM     17  C   UNL     1       4.942   6.383  16.522  0.00  0.00    +0.000 A 
ATOM     18  C   UNL     1       5.741   5.864  15.507  0.00  0.00    +0.000 A 
ATOM     19  C   UNL     1       5.759   4.492  15.265  0.00  0.00    +0.000 A 
ATOM     20  C   UNL     1       4.973   3.636  16.039  0.00  0.00    +0.000 A 
ATOM     21  C   UNL     1       4.169   4.153  17.056  0.00  0.00    +0.000 A 
ENDBRANCH   4  16
BRANCH  13  22
ATOM     22  C   UNL     1      -1.567  10.097  18.658  0.00  0.00    +0.000 C 
BRANCH  22  23
ATOM     23  C   UNL     1      -2.818  10.917  18.415  0.00  0.00    +0.000 A 
ATOM     24  C   UNL     1      -3.599  10.730  17.269  0.00  0.00    +0.000 A 
ATOM     25  C   UNL     1      -4.825  11.386  17.132  0.00  0.00    +0.000 A 
ATOM     26  C   UNL     1      -5.280  12.238  18.138  0.00  0.00    +0.000 A 
ATOM     27  C   UNL     1      -4.502  12.451  19.273  0.00  0.00    +0.000 A 
ATOM     28  C   UNL     1      -3.277  11.796  19.410  0.00  0.00    +0.000 A 
ENDBRANCH  22  23
ENDBRANCH  13  22
TORSDOF 3
ENDMDL
MODEL 6
REMARK VINA RESULT:      -7.1      4.328      6.478
REMARK  Name = 
REMARK  3 active torsions:
REMARK  status: ('A' for Active; 'I' for Inactive)
REMARK    1  A    between atoms: C_4  and  C_5
REMARK    2  A    between atoms: N_19  and  C_20
REMARK    3  A    between atoms: C_20  and  C_21
REMARK                            x       y       z     vdW  Elec       q    Type
REMARK                         _______ _______ _______ _____ _____    ______ ____
ROOT
ATOM      1  O   UNL     1      -5.930  11.055  17.761  0.00  0.00    +0.000 OA
ATOM      2  C   UNL     1      -5.273  11.607  18.636  0.00  0.00    +0.000 A 
ATOM      3  C   UNL     1      -5.928  12.177  19.820  0.00  0.00    +0.000 A 
ATOM      4  C   UNL     1      -5.270  12.858  20.771  0.00  0.00    +0.000 A 
ATOM      5  C   UNL     1      -3.821  13.056  20.604  0.00  0.00    +0.000 A 
ATOM      6  C   UNL     1      -3.056  13.817  21.496  0.00  0.00    +0.000 A 
ATOM      7  C   UNL     1      -1.677  13.960  21.306  0.00  0.00    +0.000 A 
ATOM      8  C   UNL     1      -1.045  13.298  20.255  0.00  0.00    +0.000 A 
ATOM      9  C   UNL     1      -1.777  12.476  19.397  0.00  0.00    +0.000 A 
ATOM     10  C   UNL     1      -3.167  12.424  19.544  0.00  0.00    +0.000 A 
ATOM     11  O   UNL     1      -3.894  11.697  18.580  0.00  0.00    +0.000 OA
ATOM     12  C   UNL     1      -1.049  11.637  18.385  0.00  0.00    +0.000 C 
ATOM     13  N   UNL     1       0.359  11.419  18.753  0.00  0.00    +0.000 NA
ATOM     14  C   UNL     1       0.916  12.744  19.054  0.00  0.00    +0.000 C 
ATOM     15  O   UNL     1       0.318  13.417  20.177  0.00  0.00    +0.000 OA
ENDROOT
BRANCH   4  16
ATOM     16  C   UNL     1      -6.075  13.297  21.926  0.00  0.00    +0.000 A 
ATOM     17  C   UNL     1      -6.703  14.553  21.907  0.00  0.00    +0.000 A 
ATOM     18  C   UNL     1      -7.459  14.977  22.996  0.00  0.00    +0.000 A 
ATOM     19  C   UNL     1      -7.597  14.154  24.112  0.00  0.00    +0.000 A 
ATOM     20  C   UNL     1      -6.975  12.904  24.140  0.00  0.00    +0.000 A 
ATOM     21  C   UNL     1      -6.215  12.477  23.051  0.00  0.00    +0.000 A 
ENDBRANCH   4  16
BRANCH  13  22
ATOM     22  C   UNL     1       0.541  10.541  19.925  0.00  0.00    +0.000 C 
BRANCH  22  23
ATOM     23  C   UNL     1       1.286   9.244  19.684  0.00  0.00    +0.000 A 
ATOM     24  C   UNL     1       1.372   8.259  20.675  0.00  0.00    +0.000 A 
ATOM     25  C   UNL     1       1.934   7.012  20.389  0.00  0.00    +0.000 A 
ATOM     26  C   UNL     1       2.418   6.739  19.110  0.00  0.00    +0.000 A 
ATOM     27  C   UNL     1       2.360   7.718  18.121  0.00  0.00    +0.000 A 
ATOM     28  C   UNL     1       1.800   8.964  18.407  0.00  0.00    +0.000 A 
ENDBRANCH  22  23
ENDBRANCH  13  22
TORSDOF 3
ENDMDL
MODEL 7
REMARK VINA RESULT:      -7.1      2.567      4.683
REMARK  Name = 
REMARK  3 active torsions:
REMARK  status: ('A' for Active; 'I' for Inactive)
REMARK    1  A    between atoms: C_4  and  C_5
REMARK    2  A    between atoms: N_19  and  C_20
REMARK    3  A    between atoms: C_20  and  C_21
REMARK                            x       y       z     vdW  Elec       q    Type
REMARK                         _______ _______ _______ _____ _____    ______ ____
ROOT
ATOM      1  O   UNL     1       0.481   9.507  23.674  0.00  0.00    +0.000 OA
ATOM      2  C   UNL     1       0.761   9.567  22.482  0.00  0.00    +0.000 A 
ATOM      3  C   UNL     1       0.732  10.848  21.767  0.00  0.00    +0.000 A 
ATOM      4  C   UNL     1       0.955  10.962  20.448  0.00  0.00    +0.000 A 
ATOM      5  C   UNL     1       1.224   9.735  19.683  0.00  0.00    +0.000 A 
ATOM      6  C   UNL     1       1.391   9.734  18.292  0.00  0.00    +0.000 A 
ATOM      7  C   UNL     1       1.665   8.543  17.611  0.00  0.00    +0.000 A 
ATOM      8  C   UNL     1       1.828   7.355  18.320  0.00  0.00    +0.000 A 
ATOM      9  C   UNL     1       1.738   7.346  19.712  0.00  0.00    +0.000 A 
ATOM     10  C   UNL     1       1.367   8.526  20.366  0.00  0.00    +0.000 A 
ATOM     11  O   UNL     1       1.148   8.454  21.756  0.00  0.00    +0.000 OA
ATOM     12  C   UNL     1       2.091   6.093  20.463  0.00  0.00    +0.000 C 
ATOM     13  N   UNL     1       2.952   5.197  19.676  0.00  0.00    +0.000 NA
ATOM     14  C   UNL     1       2.297   5.037  18.371  0.00  0.00    +0.000 C 
ATOM     15  O   UNL     1       2.176   6.243  17.597  0.00  0.00    +0.000 OA
ENDROOT
BRANCH   4  16
ATOM     16  C   UNL     1       0.957  12.336  19.909  0.00  0.00    +0.000 A 
ATOM     17  C   UNL     1      -0.209  12.864  19.332  0.00  0.00    +0.000 A 
ATOM     18  C   UNL     1      -0.212  14.157  18.815  0.00  0.00    +0.000 A 
ATOM     19  C   UNL     1       0.944  14.934  18.871  0.00  0.00    +0.000 A 
ATOM     20  C   UNL     1       2.107  14.415  19.441  0.00  0.00    +0.000 A 
ATOM     21  C   UNL     1       2.115  13.118  19.958  0.00  0.00    +0.000 A 
ENDBRANCH   4  16
BRANCH  13  22
ATOM     22  C   UNL     1       4.319   5.712  19.469  0.00  0.00    +0.000 C 
BRANCH  22  23
ATOM     23  C   UNL     1       4.951   5.418  18.123  0.00  0.00    +0.000 A 
ATOM     24  C   UNL     1       5.043   4.111  17.632  0.00  0.00    +0.000 A 
ATOM     25  C   UNL     1       5.492   3.872  16.331  0.00  0.00    +0.000 A 
ATOM     26  C   UNL     1       5.856   4.938  15.509  0.00  0.00    +0.000 A 
ATOM     27  C   UNL     1       5.791   6.242  15.992  0.00  0.00    +0.000 A 
ATOM     28  C   UNL     1       5.343   6.481  17.292  0.00  0.00    +0.000 A 
ENDBRANCH  22  23
ENDBRANCH  13  22
TORSDOF 3
ENDMDL
MODEL 8
REMARK VINA RESULT:      -7.1      4.121      8.218
REMARK  Name = 
REMARK  3 active torsions:
REMARK  status: ('A' for Active; 'I' for Inactive)
REMARK    1  A    between atoms: C_4  and  C_5
REMARK    2  A    between atoms: N_19  and  C_20
REMARK    3  A    between atoms: C_20  and  C_21
REMARK                            x       y       z     vdW  Elec       q    Type
REMARK                         _______ _______ _______ _____ _____    ______ ____
ROOT
ATOM      1  O   UNL     1       0.625   9.340  24.431  0.00  0.00    +0.000 OA
ATOM      2  C   UNL     1       0.476   9.732  23.280  0.00  0.00    +0.000 A 
ATOM      3  C   UNL     1       1.079   9.006  22.155  0.00  0.00    +0.000 A 
ATOM      4  C   UNL     1       1.013   9.430  20.883  0.00  0.00    +0.000 A 
ATOM      5  C   UNL     1       0.314  10.695  20.610  0.00  0.00    +0.000 A 
ATOM      6  C   UNL     1       0.256  11.264  19.332  0.00  0.00    +0.000 A 
ATOM      7  C   UNL     1      -0.438  12.460  19.119  0.00  0.00    +0.000 A 
ATOM      8  C   UNL     1      -1.125  13.066  20.169  0.00  0.00    +0.000 A 
ATOM      9  C   UNL     1      -1.140  12.478  21.434  0.00  0.00    +0.000 A 
ATOM     10  C   UNL     1      -0.361  11.337  21.651  0.00  0.00    +0.000 A 
ATOM     11  O   UNL     1      -0.285  10.844  22.970  0.00  0.00    +0.000 OA
ATOM     12  C   UNL     1      -2.029  13.053  22.501  0.00  0.00    +0.000 C 
ATOM     13  N   UNL     1      -3.128  13.853  21.938  0.00  0.00    +0.000 NA
ATOM     14  C   UNL     1      -2.510  14.796  20.997  0.00  0.00    +0.000 C 
ATOM     15  O   UNL     1      -1.850  14.190  19.871  0.00  0.00    +0.000 OA
ENDROOT
BRANCH   4  16
ATOM     16  C   UNL     1       1.614   8.538  19.874  0.00  0.00    +0.000 A 
ATOM     17  C   UNL     1       1.880   9.019  18.581  0.00  0.00    +0.000 A 
ATOM     18  C   UNL     1       2.440   8.181  17.622  0.00  0.00    +0.000 A 
ATOM     19  C   UNL     1       2.742   6.858  17.940  0.00  0.00    +0.000 A 
ATOM     20  C   UNL     1       2.479   6.371  19.222  0.00  0.00    +0.000 A 
ATOM     21  C   UNL     1       1.916   7.208  20.187  0.00  0.00    +0.000 A 
ENDBRANCH   4  16
BRANCH  13  22
ATOM     22  C   UNL     1      -4.143  13.055  21.225  0.00  0.00    +0.000 C 
BRANCH  22  23
ATOM     23  C   UNL     1      -5.429  12.777  21.976  0.00  0.00    +0.000 A 
ATOM     24  C   UNL     1      -5.567  13.107  23.329  0.00  0.00    +0.000 A 
ATOM     25  C   UNL     1      -6.804  12.981  23.968  0.00  0.00    +0.000 A 
ATOM     26  C   UNL     1      -7.913  12.520  23.259  0.00  0.00    +0.000 A 
ATOM     27  C   UNL     1      -7.784  12.166  21.919  0.00  0.00    +0.000 A 
ATOM     28  C   UNL     1      -6.549  12.291  21.281  0.00  0.00    +0.000 A 
ENDBRANCH  22  23
ENDBRANCH  13  22
TORSDOF 3
ENDMDL
MODEL 9
REMARK VINA RESULT:      -6.9      2.606      4.771
REMARK  Name = 
REMARK  3 active torsions:
REMARK  status: ('A' for Active; 'I' for Inactive)
REMARK    1  A    between atoms: C_4  and  C_5
REMARK    2  A    between atoms: N_19  and  C_20
REMARK    3  A    between atoms: C_20  and  C_21
REMARK                            x       y       z     vdW  Elec       q    Type
REMARK                         _______ _______ _______ _____ _____    ______ ____
ROOT
ATOM      1  O   UNL     1       0.007   9.242  23.427  0.00  0.00    +0.000 OA
ATOM      2  C   UNL     1       0.442   9.385  22.291  0.00  0.00    +0.000 A 
ATOM      3  C   UNL     1       0.477  10.710  21.661  0.00  0.00    +0.000 A 
ATOM      4  C   UNL     1       0.871  10.915  20.394  0.00  0.00    +0.000 A 
ATOM      5  C   UNL     1       1.271   9.746  19.595  0.00  0.00    +0.000 A 
ATOM      6  C   UNL     1       1.622   9.841  18.243  0.00  0.00    +0.000 A 
ATOM      7  C   UNL     1       2.014   8.702  17.531  0.00  0.00    +0.000 A 
ATOM      8  C   UNL     1       2.111   7.472  18.178  0.00  0.00    +0.000 A 
ATOM      9  C   UNL     1       1.835   7.369  19.541  0.00  0.00    +0.000 A 
ATOM     10  C   UNL     1       1.351   8.496  20.213  0.00  0.00    +0.000 A 
ATOM     11  O   UNL     1       0.950   8.330  21.554  0.00  0.00    +0.000 OA
ATOM     12  C   UNL     1       2.115   6.075  20.252  0.00  0.00    +0.000 C 
ATOM     13  N   UNL     1       3.096   5.246  19.533  0.00  0.00    +0.000 NA
ATOM     14  C   UNL     1       2.625   5.163  18.144  0.00  0.00    +0.000 C 
ATOM     15  O   UNL     1       2.579   6.417  17.439  0.00  0.00    +0.000 OA
ENDROOT
BRANCH   4  16
ATOM     16  C   UNL     1       0.911  12.321  19.950  0.00  0.00    +0.000 A 
ATOM     17  C   UNL     1      -0.167  12.860  19.229  0.00  0.00    +0.000 A 
ATOM     18  C   UNL     1      -0.132  14.184  18.800  0.00  0.00    +0.000 A 
ATOM     19  C   UNL     1       0.974  14.982  19.086  0.00  0.00    +0.000 A 
ATOM     20  C   UNL     1       2.050  14.454  19.800  0.00  0.00    +0.000 A 
ATOM     21  C   UNL     1       2.021  13.126  20.230  0.00  0.00    +0.000 A 
ENDBRANCH   4  16
BRANCH  13  22
ATOM     22  C   UNL     1       4.465   5.796  19.545  0.00  0.00    +0.000 C 
BRANCH  22  23
ATOM     23  C   UNL     1       5.298   5.553  18.303  0.00  0.00    +0.000 A 
ATOM     24  C   UNL     1       6.057   6.576  17.723  0.00  0.00    +0.000 A 
ATOM     25  C   UNL     1       6.932   6.300  16.669  0.00  0.00    +0.000 A 
ATOM     26  C   UNL     1       7.055   4.999  16.184  0.00  0.00    +0.000 A 
ATOM     27  C   UNL     1       6.289   3.976  16.736  0.00  0.00    +0.000 A 
ATOM     28  C   UNL     1       5.414   4.251  17.788  0.00  0.00    +0.000 A 
ENDBRANCH  22  23
ENDBRANCH  13  22
TORSDOF 3
ENDMDL
