MODEL 1
REMARK VINA RESULT:      -7.4      0.000      0.000
REMARK  Name = 
REMARK  5 active torsions:
REMARK  status: ('A' for Active; 'I' for Inactive)
REMARK    1  A    between atoms: C_1  and  C_2
REMARK    2  A    between atoms: C_2  and  C_3
REMARK    3  A    between atoms: C_6  and  C_7
REMARK    4  A    between atoms: C_7  and  N_8
REMARK    5  A    between atoms: C_9  and  C_11
REMARK                            x       y       z     vdW  Elec       q    Type
REMARK                         _______ _______ _______ _____ _____    ______ ____
ROOT
ATOM      1  N   UNL     1       5.410   5.089  16.513  0.00  0.00    +0.000 N 
ATOM      2  C   UNL     1       5.774   4.545  17.723  0.00  0.00    +0.000 C 
ATOM      3  O   UNL     1       6.942   4.406  18.079  0.00  0.00    +0.000 OA
ATOM      4  H   UNL     1       4.416   5.188  16.341  0.00  0.00    +0.000 HD
ENDROOT
BRANCH   2   5
ATOM      5  C   UNL     1       4.645   4.156  18.582  0.00  0.00    +0.000 A 
ATOM      6  C   UNL     1       3.311   4.604  18.433  0.00  0.00    +0.000 A 
ATOM      7  C   UNL     1       2.604   3.977  19.426  0.00  0.00    +0.000 A 
ATOM      8  C   UNL     1       1.241   3.978  19.833  0.00  0.00    +0.000 A 
ATOM      9  C   UNL     1       0.873   3.257  20.910  0.00  0.00    +0.000 A 
ATOM     10  C   UNL     1       1.839   2.476  21.664  0.00  0.00    +0.000 A 
ATOM     11  C   UNL     1       3.120   2.462  21.262  0.00  0.00    +0.000 A 
ATOM     12  N   UNL     1       3.515   3.204  20.145  0.00  0.00    +0.000 N 
ATOM     13  N   UNL     1       4.767   3.294  19.613  0.00  0.00    +0.000 NA
ENDBRANCH   2   5
BRANCH   1  14
ATOM     14  C   UNL     1       6.374   5.675  15.620  0.00  0.00    +0.000 C 
BRANCH  14  18
ATOM     15  C   UNL     1       6.818   3.357  12.002  0.00  0.00    +0.000 A 
ATOM     16  C   UNL     1       7.738   4.364  12.314  0.00  0.00    +0.000 A 
ATOM     17  C   UNL     1       7.575   5.140  13.465  0.00  0.00    +0.000 A 
ATOM     18  C   UNL     1       6.497   4.914  14.329  0.00  0.00    +0.000 A 
ATOM     19  C   UNL     1       5.550   3.938  13.989  0.00  0.00    +0.000 A 
ATOM     20  C   UNL     1       5.713   3.162  12.839  0.00  0.00    +0.000 A 
BRANCH  15  22
ATOM     21  C   UNL     1       6.418   1.078  11.070  0.00  0.00    +0.000 C 
ATOM     22  C   UNL     1       7.060   2.438  10.831  0.00  0.00    +0.000 C 
ENDBRANCH  15  22
ENDBRANCH  14  18
ENDBRANCH   1  14
TORSDOF 4
ENDMDL
MODEL 2
REMARK VINA RESULT:      -7.2      3.362      8.247
REMARK  Name = 
REMARK  5 active torsions:
REMARK  status: ('A' for Active; 'I' for Inactive)
REMARK    1  A    between atoms: C_1  and  C_2
REMARK    2  A    between atoms: C_2  and  C_3
REMARK    3  A    between atoms: C_6  and  C_7
REMARK    4  A    between atoms: C_7  and  N_8
REMARK    5  A    between atoms: C_9  and  C_11
REMARK                            x       y       z     vdW  Elec       q    Type
REMARK                         _______ _______ _______ _____ _____    ______ ____
ROOT
ATOM      1  N   UNL     1       3.937   5.790  17.802  0.00  0.00    +0.000 N 
ATOM      2  C   UNL     1       5.293   5.639  17.629  0.00  0.00    +0.000 C 
ATOM      3  O   UNL     1       6.115   5.816  18.525  0.00  0.00    +0.000 OA
ATOM      4  H   UNL     1       3.351   5.581  17.002  0.00  0.00    +0.000 HD
ENDROOT
BRANCH   2   5
ATOM      5  C   UNL     1       5.692   5.220  16.276  0.00  0.00    +0.000 A 
ATOM      6  C   UNL     1       5.027   4.249  15.490  0.00  0.00    +0.000 A 
ATOM      7  C   UNL     1       5.724   4.198  14.310  0.00  0.00    +0.000 A 
ATOM      8  C   UNL     1       5.591   3.452  13.105  0.00  0.00    +0.000 A 
ATOM      9  C   UNL     1       6.497   3.620  12.123  0.00  0.00    +0.000 A 
ATOM     10  C   UNL     1       7.607   4.547  12.266  0.00  0.00    +0.000 A 
ATOM     11  C   UNL     1       7.714   5.263  13.397  0.00  0.00    +0.000 A 
ATOM     12  N   UNL     1       6.780   5.102  14.424  0.00  0.00    +0.000 N 
ATOM     13  N   UNL     1       6.749   5.748  15.624  0.00  0.00    +0.000 NA
ENDBRANCH   2   5
BRANCH   1  14
ATOM     14  C   UNL     1       3.357   6.032  19.097  0.00  0.00    +0.000 C 
BRANCH  14  18
ATOM     15  C   UNL     1       0.823   9.529  19.152  0.00  0.00    +0.000 A 
ATOM     16  C   UNL     1       1.477   9.149  17.976  0.00  0.00    +0.000 A 
ATOM     17  C   UNL     1       2.326   8.039  17.965  0.00  0.00    +0.000 A 
ATOM     18  C   UNL     1       2.526   7.286  19.128  0.00  0.00    +0.000 A 
ATOM     19  C   UNL     1       1.909   7.698  20.317  0.00  0.00    +0.000 A 
ATOM     20  C   UNL     1       1.059   8.806  20.327  0.00  0.00    +0.000 A 
BRANCH  15  22
ATOM     21  C   UNL     1      -1.202  10.445  18.018  0.00  0.00    +0.000 C 
ATOM     22  C   UNL     1      -0.189  10.648  19.137  0.00  0.00    +0.000 C 
ENDBRANCH  15  22
ENDBRANCH  14  18
ENDBRANCH   1  14
TORSDOF 4
ENDMDL
MODEL 3
REMARK VINA RESULT:      -7.2      1.038      1.038
REMARK  Name = 
REMARK  5 active torsions:
REMARK  status: ('A' for Active; 'I' for Inactive)
REMARK    1  A    between atoms: C_1  and  C_2
REMARK    2  A    between atoms: C_2  and  C_3
REMARK    3  A    between atoms: C_6  and  C_7
REMARK    4  A    between atoms: C_7  and  N_8
REMARK    5  A    between atoms: C_9  and  C_11
REMARK                            x       y       z     vdW  Elec       q    Type
REMARK                         _______ _______ _______ _____ _____    ______ ____
ROOT
ATOM      1  N   UNL     1       6.094   5.053  16.985  0.00  0.00    +0.000 N 
ATOM      2  C   UNL     1       4.979   5.750  17.388  0.00  0.00    +0.000 C 
ATOM      3  O   UNL     1       4.692   6.869  16.970  0.00  0.00    +0.000 OA
ATOM      4  H   UNL     1       6.210   4.122  17.369  0.00  0.00    +0.000 HD
ENDROOT
BRANCH   2   5
ATOM      5  C   UNL     1       4.129   5.037  18.353  0.00  0.00    +0.000 A 
ATOM      6  C   UNL     1       2.750   5.277  18.564  0.00  0.00    +0.000 A 
ATOM      7  C   UNL     1       2.369   4.378  19.526  0.00  0.00    +0.000 A 
ATOM      8  C   UNL     1       1.142   4.082  20.185  0.00  0.00    +0.000 A 
ATOM      9  C   UNL     1       1.118   3.133  21.140  0.00  0.00    +0.000 A 
ATOM     10  C   UNL     1       2.318   2.403  21.513  0.00  0.00    +0.000 A 
ATOM     11  C   UNL     1       3.467   2.671  20.873  0.00  0.00    +0.000 A 
ATOM     12  N   UNL     1       3.507   3.652  19.877  0.00  0.00    +0.000 N 
ATOM     13  N   UNL     1       4.586   4.040  19.140  0.00  0.00    +0.000 NA
ENDBRANCH   2   5
BRANCH   1  14
ATOM     14  C   UNL     1       6.946   5.524  15.925  0.00  0.00    +0.000 C 
BRANCH  14  18
ATOM     15  C   UNL     1       6.161   3.470  12.208  0.00  0.00    +0.000 A 
ATOM     16  C   UNL     1       7.308   4.257  12.353  0.00  0.00    +0.000 A 
ATOM     17  C   UNL     1       7.546   4.952  13.541  0.00  0.00    +0.000 A 
ATOM     18  C   UNL     1       6.645   4.862  14.609  0.00  0.00    +0.000 A 
ATOM     19  C   UNL     1       5.472   4.113  14.445  0.00  0.00    +0.000 A 
ATOM     20  C   UNL     1       5.235   3.417  13.257  0.00  0.00    +0.000 A 
BRANCH  15  22
ATOM     21  C   UNL     1       6.215   1.152  11.288  0.00  0.00    +0.000 C 
ATOM     22  C   UNL     1       5.966   2.621  10.977  0.00  0.00    +0.000 C 
ENDBRANCH  15  22
ENDBRANCH  14  18
ENDBRANCH   1  14
TORSDOF 4
ENDMDL
MODEL 4
REMARK VINA RESULT:      -7.1      4.769      8.530
REMARK  Name = 
REMARK  5 active torsions:
REMARK  status: ('A' for Active; 'I' for Inactive)
REMARK    1  A    between atoms: C_1  and  C_2
REMARK    2  A    between atoms: C_2  and  C_3
REMARK    3  A    between atoms: C_6  and  C_7
REMARK    4  A    between atoms: C_7  and  N_8
REMARK    5  A    between atoms: C_9  and  C_11
REMARK                            x       y       z     vdW  Elec       q    Type
REMARK                         _______ _______ _______ _____ _____    ______ ____
ROOT
ATOM      1  N   UNL     1       2.475   7.154  20.317  0.00  0.00    +0.000 N 
ATOM      2  C   UNL     1       2.457   5.829  19.947  0.00  0.00    +0.000 C 
ATOM      3  O   UNL     1       1.611   5.028  20.336  0.00  0.00    +0.000 OA
ATOM      4  H   UNL     1       3.199   7.730  19.904  0.00  0.00    +0.000 HD
ENDROOT
BRANCH   2   5
ATOM      5  C   UNL     1       3.529   5.441  19.016  0.00  0.00    +0.000 A 
ATOM      6  C   UNL     1       3.337   4.983  17.691  0.00  0.00    +0.000 A 
ATOM      7  C   UNL     1       4.596   4.763  17.197  0.00  0.00    +0.000 A 
ATOM      8  C   UNL     1       5.114   4.312  15.951  0.00  0.00    +0.000 A 
ATOM      9  C   UNL     1       6.444   4.164  15.803  0.00  0.00    +0.000 A 
ATOM     10  C   UNL     1       7.364   4.458  16.889  0.00  0.00    +0.000 A 
ATOM     11  C   UNL     1       6.871   4.905  18.055  0.00  0.00    +0.000 A 
ATOM     12  N   UNL     1       5.492   5.065  18.222  0.00  0.00    +0.000 N 
ATOM     13  N   UNL     1       4.839   5.504  19.335  0.00  0.00    +0.000 NA
ENDBRANCH   2   5
BRANCH   1  14
ATOM     14  C   UNL     1       1.411   7.744  21.085  0.00  0.00    +0.000 C 
BRANCH  14  18
ATOM     15  C   UNL     1      -0.419  11.111  19.092  0.00  0.00    +0.000 A 
ATOM     16  C   UNL     1       0.588  10.375  18.458  0.00  0.00    +0.000 A 
ATOM     17  C   UNL     1       1.207   9.309  19.115  0.00  0.00    +0.000 A 
ATOM     18  C   UNL     1       0.822   8.954  20.413  0.00  0.00    +0.000 A 
ATOM     19  C   UNL     1      -0.152   9.723  21.066  0.00  0.00    +0.000 A 
ATOM     20  C   UNL     1      -0.771  10.788  20.408  0.00  0.00    +0.000 A 
BRANCH  15  22
ATOM     21  C   UNL     1      -2.343  11.578  17.574  0.00  0.00    +0.000 C 
ATOM     22  C   UNL     1      -1.174  12.179  18.342  0.00  0.00    +0.000 C 
ENDBRANCH  15  22
ENDBRANCH  14  18
ENDBRANCH   1  14
TORSDOF 4
ENDMDL
MODEL 5
REMARK VINA RESULT:      -7.1      3.247      8.281
REMARK  Name = 
REMARK  5 active torsions:
REMARK  status: ('A' for Active; 'I' for Inactive)
REMARK    1  A    between atoms: C_1  and  C_2
REMARK    2  A    between atoms: C_2  and  C_3
REMARK    3  A    between atoms: C_6  and  C_7
REMARK    4  A    between atoms: C_7  and  N_8
REMARK    5  A    between atoms: C_9  and  C_11
REMARK                            x       y       z     vdW  Elec       q    Type
REMARK                         _______ _______ _______ _____ _____    ______ ____
ROOT
ATOM      1  N   UNL     1       4.226   5.736  17.931  0.00  0.00    +0.000 N 
ATOM      2  C   UNL     1       5.417   5.061  17.790  0.00  0.00    +0.000 C 
ATOM      3  O   UNL     1       6.079   4.651  18.740  0.00  0.00    +0.000 OA
ATOM      4  H   UNL     1       3.748   5.995  17.076  0.00  0.00    +0.000 HD
ENDROOT
BRANCH   2   5
ATOM      5  C   UNL     1       5.833   4.843  16.396  0.00  0.00    +0.000 A 
ATOM      6  C   UNL     1       5.272   3.889  15.514  0.00  0.00    +0.000 A 
ATOM      7  C   UNL     1       5.943   4.051  14.330  0.00  0.00    +0.000 A 
ATOM      8  C   UNL     1       5.875   3.429  13.052  0.00  0.00    +0.000 A 
ATOM      9  C   UNL     1       6.732   3.811  12.086  0.00  0.00    +0.000 A 
ATOM     10  C   UNL     1       7.724   4.847  12.319  0.00  0.00    +0.000 A 
ATOM     11  C   UNL     1       7.769   5.445  13.520  0.00  0.00    +0.000 A 
ATOM     12  N   UNL     1       6.884   5.060  14.532  0.00  0.00    +0.000 N 
ATOM     13  N   UNL     1       6.803   5.565  15.796  0.00  0.00    +0.000 NA
ENDBRANCH   2   5
BRANCH   1  14
ATOM     14  C   UNL     1       3.586   5.892  19.210  0.00  0.00    +0.000 C 
BRANCH  14  18
ATOM     15  C   UNL     1       1.012   9.359  19.336  0.00  0.00    +0.000 A 
ATOM     16  C   UNL     1       1.164   8.550  20.467  0.00  0.00    +0.000 A 
ATOM     17  C   UNL     1       1.967   7.408  20.418  0.00  0.00    +0.000 A 
ATOM     18  C   UNL     1       2.640   7.062  19.240  0.00  0.00    +0.000 A 
ATOM     19  C   UNL     1       2.447   7.846  18.094  0.00  0.00    +0.000 A 
ATOM     20  C   UNL     1       1.645   8.988  18.144  0.00  0.00    +0.000 A 
BRANCH  15  22
ATOM     21  C   UNL     1      -0.982  10.621  18.527  0.00  0.00    +0.000 C 
ATOM     22  C   UNL     1       0.249  10.657  19.422  0.00  0.00    +0.000 C 
ENDBRANCH  15  22
ENDBRANCH  14  18
ENDBRANCH   1  14
TORSDOF 4
ENDMDL
MODEL 6
REMARK VINA RESULT:      -7.0      3.866      4.999
REMARK  Name = 
REMARK  5 active torsions:
REMARK  status: ('A' for Active; 'I' for Inactive)
REMARK    1  A    between atoms: C_1  and  C_2
REMARK    2  A    between atoms: C_2  and  C_3
REMARK    3  A    between atoms: C_6  and  C_7
REMARK    4  A    between atoms: C_7  and  N_8
REMARK    5  A    between atoms: C_9  and  C_11
REMARK                            x       y       z     vdW  Elec       q    Type
REMARK                         _______ _______ _______ _____ _____    ______ ____
ROOT
ATOM      1  N   UNL     1       4.243   5.726  19.272  0.00  0.00    +0.000 N 
ATOM      2  C   UNL     1       2.868   5.677  19.277  0.00  0.00    +0.000 C 
ATOM      3  O   UNL     1       2.225   4.666  19.004  0.00  0.00    +0.000 OA
ATOM      4  H   UNL     1       4.666   6.604  19.550  0.00  0.00    +0.000 HD
ENDROOT
BRANCH   2   5
ATOM      5  C   UNL     1       2.213   6.936  19.663  0.00  0.00    +0.000 A 
ATOM      6  C   UNL     1       1.637   7.206  20.927  0.00  0.00    +0.000 A 
ATOM      7  C   UNL     1       1.169   8.492  20.846  0.00  0.00    +0.000 A 
ATOM      8  C   UNL     1       0.500   9.369  21.745  0.00  0.00    +0.000 A 
ATOM      9  C   UNL     1       0.135  10.594  21.323  0.00  0.00    +0.000 A 
ATOM     10  C   UNL     1       0.413  11.043  19.968  0.00  0.00    +0.000 A 
ATOM     11  C   UNL     1       1.064  10.220  19.132  0.00  0.00    +0.000 A 
ATOM     12  N   UNL     1       1.451   8.945  19.557  0.00  0.00    +0.000 N 
ATOM     13  N   UNL     1       2.114   7.997  18.835  0.00  0.00    +0.000 NA
ENDBRANCH   2   5
BRANCH   1  14
ATOM     14  C   UNL     1       5.047   4.548  19.082  0.00  0.00    +0.000 C 
BRANCH  14  18
ATOM     15  C   UNL     1       6.483   4.374  15.013  0.00  0.00    +0.000 A 
ATOM     16  C   UNL     1       5.168   4.005  15.315  0.00  0.00    +0.000 A 
ATOM     17  C   UNL     1       4.713   4.025  16.636  0.00  0.00    +0.000 A 
ATOM     18  C   UNL     1       5.561   4.426  17.674  0.00  0.00    +0.000 A 
ATOM     19  C   UNL     1       6.893   4.747  17.376  0.00  0.00    +0.000 A 
ATOM     20  C   UNL     1       7.348   4.728  16.055  0.00  0.00    +0.000 A 
BRANCH  15  22
ATOM     21  C   UNL     1       6.124   3.546  12.687  0.00  0.00    +0.000 C 
ATOM     22  C   UNL     1       6.939   4.473  13.578  0.00  0.00    +0.000 C 
ENDBRANCH  15  22
ENDBRANCH  14  18
ENDBRANCH   1  14
TORSDOF 4
ENDMDL
MODEL 7
REMARK VINA RESULT:      -7.0      5.011      8.127
REMARK  Name = 
REMARK  5 active torsions:
REMARK  status: ('A' for Active; 'I' for Inactive)
REMARK    1  A    between atoms: C_1  and  C_2
REMARK    2  A    between atoms: C_2  and  C_3
REMARK    3  A    between atoms: C_6  and  C_7
REMARK    4  A    between atoms: C_7  and  N_8
REMARK    5  A    between atoms: C_9  and  C_11
REMARK                            x       y       z     vdW  Elec       q    Type
REMARK                         _______ _______ _______ _____ _____    ______ ____
ROOT
ATOM      1  N   UNL     1       7.273   7.483  16.897  0.00  0.00    +0.000 N 
ATOM      2  C   UNL     1       7.976   7.722  18.055  0.00  0.00    +0.000 C 
ATOM      3  O   UNL     1       8.270   6.844  18.863  0.00  0.00    +0.000 OA
ATOM      4  H   UNL     1       7.120   8.278  16.287  0.00  0.00    +0.000 HD
ENDROOT
BRANCH   2   5
ATOM      5  C   UNL     1       8.378   9.124  18.246  0.00  0.00    +0.000 A 
ATOM      6  C   UNL     1       9.246   9.596  19.259  0.00  0.00    +0.000 A 
ATOM      7  C   UNL     1       9.354  10.945  19.045  0.00  0.00    +0.000 A 
ATOM      8  C   UNL     1      10.059  12.004  19.683  0.00  0.00    +0.000 A 
ATOM      9  C   UNL     1       9.912  13.263  19.230  0.00  0.00    +0.000 A 
ATOM     10  C   UNL     1       9.049  13.565  18.100  0.00  0.00    +0.000 A 
ATOM     11  C   UNL     1       8.403  12.560  17.489  0.00  0.00    +0.000 A 
ATOM     12  N   UNL     1       8.548  11.247  17.947  0.00  0.00    +0.000 N 
ATOM     13  N   UNL     1       7.965  10.124  17.440  0.00  0.00    +0.000 NA
ENDBRANCH   2   5
BRANCH   1  14
ATOM     14  C   UNL     1       6.945   6.149  16.466  0.00  0.00    +0.000 C 
BRANCH  14  18
ATOM     15  C   UNL     1       2.998   4.965  17.762  0.00  0.00    +0.000 A 
ATOM     16  C   UNL     1       3.862   4.031  17.181  0.00  0.00    +0.000 A 
ATOM     17  C   UNL     1       5.125   4.420  16.728  0.00  0.00    +0.000 A 
ATOM     18  C   UNL     1       5.549   5.747  16.858  0.00  0.00    +0.000 A 
ATOM     19  C   UNL     1       4.664   6.693  17.394  0.00  0.00    +0.000 A 
ATOM     20  C   UNL     1       3.402   6.303  17.849  0.00  0.00    +0.000 A 
BRANCH  15  22
ATOM     21  C   UNL     1       1.542   3.010  18.293  0.00  0.00    +0.000 C 
ATOM     22  C   UNL     1       1.688   4.524  18.365  0.00  0.00    +0.000 C 
ENDBRANCH  15  22
ENDBRANCH  14  18
ENDBRANCH   1  14
TORSDOF 4
ENDMDL
MODEL 8
REMARK VINA RESULT:      -7.0      3.761      4.637
REMARK  Name = 
REMARK  5 active torsions:
REMARK  status: ('A' for Active; 'I' for Inactive)
REMARK    1  A    between atoms: C_1  and  C_2
REMARK    2  A    between atoms: C_2  and  C_3
REMARK    3  A    between atoms: C_6  and  C_7
REMARK    4  A    between atoms: C_7  and  N_8
REMARK    5  A    between atoms: C_9  and  C_11
REMARK                            x       y       z     vdW  Elec       q    Type
REMARK                         _______ _______ _______ _____ _____    ______ ____
ROOT
ATOM      1  N   UNL     1       4.614   6.086  18.425  0.00  0.00    +0.000 N 
ATOM      2  C   UNL     1       3.321   5.877  18.846  0.00  0.00    +0.000 C 
ATOM      3  O   UNL     1       2.842   4.761  19.034  0.00  0.00    +0.000 OA
ATOM      4  H   UNL     1       4.913   7.050  18.339  0.00  0.00    +0.000 HD
ENDROOT
BRANCH   2   5
ATOM      5  C   UNL     1       2.550   7.107  19.081  0.00  0.00    +0.000 A 
ATOM      6  C   UNL     1       2.291   8.108  18.115  0.00  0.00    +0.000 A 
ATOM      7  C   UNL     1       1.528   9.047  18.760  0.00  0.00    +0.000 A 
ATOM      8  C   UNL     1       0.931  10.281  18.378  0.00  0.00    +0.000 A 
ATOM      9  C   UNL     1       0.256  10.999  19.296  0.00  0.00    +0.000 A 
ATOM     10  C   UNL     1       0.121  10.539  20.668  0.00  0.00    +0.000 A 
ATOM     11  C   UNL     1       0.667   9.364  21.016  0.00  0.00    +0.000 A 
ATOM     12  N   UNL     1       1.369   8.606  20.074  0.00  0.00    +0.000 N 
ATOM     13  N   UNL     1       1.978   7.402  20.268  0.00  0.00    +0.000 NA
ENDBRANCH   2   5
BRANCH   1  14
ATOM     14  C   UNL     1       5.561   5.008  18.307  0.00  0.00    +0.000 C 
BRANCH  14  18
ATOM     15  C   UNL     1       6.401   4.219  14.144  0.00  0.00    +0.000 A 
ATOM     16  C   UNL     1       5.198   3.791  14.717  0.00  0.00    +0.000 A 
ATOM     17  C   UNL     1       4.940   4.013  16.072  0.00  0.00    +0.000 A 
ATOM     18  C   UNL     1       5.876   4.676  16.874  0.00  0.00    +0.000 A 
ATOM     19  C   UNL     1       7.101   5.060  16.311  0.00  0.00    +0.000 A 
ATOM     20  C   UNL     1       7.358   4.839  14.956  0.00  0.00    +0.000 A 
BRANCH  15  22
ATOM     21  C   UNL     1       5.707   3.040  12.058  0.00  0.00    +0.000 C 
ATOM     22  C   UNL     1       6.627   4.094  12.659  0.00  0.00    +0.000 C 
ENDBRANCH  15  22
ENDBRANCH  14  18
ENDBRANCH   1  14
TORSDOF 4
ENDMDL
MODEL 9
REMARK VINA RESULT:      -6.9      3.163      8.221
REMARK  Name = 
REMARK  5 active torsions:
REMARK  status: ('A' for Active; 'I' for Inactive)
REMARK    1  A    between atoms: C_1  and  C_2
REMARK    2  A    between atoms: C_2  and  C_3
REMARK    3  A    between atoms: C_6  and  C_7
REMARK    4  A    between atoms: C_7  and  N_8
REMARK    5  A    between atoms: C_9  and  C_11
REMARK                            x       y       z     vdW  Elec       q    Type
REMARK                         _______ _______ _______ _____ _____    ______ ____
ROOT
ATOM      1  N   UNL     1       4.118   5.590  17.800  0.00  0.00    +0.000 N 
ATOM      2  C   UNL     1       5.309   4.915  17.667  0.00  0.00    +0.000 C 
ATOM      3  O   UNL     1       5.946   4.471  18.619  0.00  0.00    +0.000 OA
ATOM      4  H   UNL     1       3.662   5.878  16.942  0.00  0.00    +0.000 HD
ENDROOT
BRANCH   2   5
ATOM      5  C   UNL     1       5.758   4.739  16.277  0.00  0.00    +0.000 A 
ATOM      6  C   UNL     1       6.871   5.385  15.689  0.00  0.00    +0.000 A 
ATOM      7  C   UNL     1       6.928   4.912  14.403  0.00  0.00    +0.000 A 
ATOM      8  C   UNL     1       7.788   5.141  13.293  0.00  0.00    +0.000 A 
ATOM      9  C   UNL     1       7.533   4.524  12.123  0.00  0.00    +0.000 A 
ATOM     10  C   UNL     1       6.400   3.627  11.970  0.00  0.00    +0.000 A 
ATOM     11  C   UNL     1       5.605   3.398  13.027  0.00  0.00    +0.000 A 
ATOM     12  N   UNL     1       5.858   4.029  14.249  0.00  0.00    +0.000 N 
ATOM     13  N   UNL     1       5.151   3.904  15.408  0.00  0.00    +0.000 NA
ENDBRANCH   2   5
BRANCH   1  14
ATOM     14  C   UNL     1       3.446   5.708  19.067  0.00  0.00    +0.000 C 
BRANCH  14  18
ATOM     15  C   UNL     1       1.050   9.290  19.357  0.00  0.00    +0.000 A 
ATOM     16  C   UNL     1       1.735   8.991  18.175  0.00  0.00    +0.000 A 
ATOM     17  C   UNL     1       2.540   7.853  18.091  0.00  0.00    +0.000 A 
ATOM     18  C   UNL     1       2.664   6.988  19.185  0.00  0.00    +0.000 A 
ATOM     19  C   UNL     1       2.017   7.314  20.385  0.00  0.00    +0.000 A 
ATOM     20  C   UNL     1       1.211   8.453  20.468  0.00  0.00    +0.000 A 
BRANCH  15  22
ATOM     21  C   UNL     1      -0.928  10.358  18.276  0.00  0.00    +0.000 C 
ATOM     22  C   UNL     1       0.084  10.447  19.410  0.00  0.00    +0.000 C 
ENDBRANCH  15  22
ENDBRANCH  14  18
ENDBRANCH   1  14
TORSDOF 4
ENDMDL
