MODEL 1
REMARK VINA RESULT:      -7.9      0.000      0.000
REMARK  Name = 
REMARK  6 active torsions:
REMARK  status: ('A' for Active; 'I' for Inactive)
REMARK    1  A    between atoms: C_1  and  C_2
REMARK    2  A    between atoms: C_4  and  C_5
REMARK    3  A    between atoms: N_6  and  C_7
REMARK    4  A    between atoms: C_7  and  C_8
REMARK    5  A    between atoms: N_10  and  C_11
REMARK    6  A    between atoms: C_11  and  C_12
REMARK                            x       y       z     vdW  Elec       q    Type
REMARK                         _______ _______ _______ _____ _____    ______ ____
ROOT
ATOM      1  C   UNL     1       4.115   4.525  18.035  0.00  0.00    +0.000 C 
ATOM      2  C   UNL     1       4.174   5.369  19.323  0.00  0.00    +0.000 C 
ATOM      3  N   UNL     1       2.893   6.045  19.640  0.00  0.00    +0.000 NA
ATOM      4  C   UNL     1       1.833   5.009  19.670  0.00  0.00    +0.000 C 
ATOM      5  C   UNL     1       1.825   4.078  18.441  0.00  0.00    +0.000 C 
ATOM      6  O   UNL     1       3.118   3.496  18.217  0.00  0.00    +0.000 OA
ENDROOT
BRANCH   1   7
ATOM      7  C   UNL     1       5.479   3.896  17.764  0.00  0.00    +0.000 C 
BRANCH   7  13
ATOM      8  C   UNL     1       6.330   3.624  13.012  0.00  0.00    +0.000 C 
ATOM      9  C   UNL     1       6.376   4.169  14.389  0.00  0.00    +0.000 A 
ATOM     10  C   UNL     1       7.074   5.307  14.847  0.00  0.00    +0.000 A 
ATOM     11  C   UNL     1       6.814   5.377  16.198  0.00  0.00    +0.000 A 
ATOM     12  C   UNL     1       7.286   6.339  17.224  0.00  0.00    +0.000 C 
ATOM     13  N   UNL     1       6.008   4.304  16.472  0.00  0.00    +0.000 N 
ATOM     14  N   UNL     1       5.709   3.566  15.381  0.00  0.00    +0.000 NA
ENDBRANCH   7  13
ENDBRANCH   1   7
BRANCH   3  15
ATOM     15  C   UNL     1       2.550   7.116  18.682  0.00  0.00    +0.000 C 
BRANCH  15  16
ATOM     16  C   UNL     1       1.779   8.260  19.306  0.00  0.00    +0.000 A 
ATOM     17  C   UNL     1       1.267   9.295  18.510  0.00  0.00    +0.000 A 
ATOM     18  C   UNL     1       0.502  10.316  19.079  0.00  0.00    +0.000 A 
ATOM     19  C   UNL     1       0.235  10.305  20.446  0.00  0.00    +0.000 A 
ATOM     20  C   UNL     1       0.725   9.268  21.244  0.00  0.00    +0.000 A 
ATOM     21  C   UNL     1       1.516   8.265  20.685  0.00  0.00    +0.000 A 
ATOM     22  O   UNL     1       0.454   9.161  22.585  0.00  0.00    +0.000 OA
ATOM     23  C   UNL     1      -0.690   9.949  22.932  0.00  0.00    +0.000 C 
ATOM     24  C   UNL     1      -0.550  11.351  22.365  0.00  0.00    +0.000 C 
ATOM     25  O   UNL     1      -0.540  11.328  20.933  0.00  0.00    +0.000 OA
ENDBRANCH  15  16
ENDBRANCH   3  15
TORSDOF 4
ENDMDL
MODEL 2
REMARK VINA RESULT:      -7.7      0.915      1.664
REMARK  Name = 
REMARK  6 active torsions:
REMARK  status: ('A' for Active; 'I' for Inactive)
REMARK    1  A    between atoms: C_1  and  C_2
REMARK    2  A    between atoms: C_4  and  C_5
REMARK    3  A    between atoms: N_6  and  C_7
REMARK    4  A    between atoms: C_7  and  C_8
REMARK    5  A    between atoms: N_10  and  C_11
REMARK    6  A    between atoms: C_11  and  C_12
REMARK                            x       y       z     vdW  Elec       q    Type
REMARK                         _______ _______ _______ _____ _____    ______ ____
ROOT
ATOM      1  C   UNL     1       4.023   4.570  18.320  0.00  0.00    +0.000 C 
ATOM      2  C   UNL     1       3.905   5.262  19.692  0.00  0.00    +0.000 C 
ATOM      3  N   UNL     1       2.556   5.819  19.952  0.00  0.00    +0.000 NA
ATOM      4  C   UNL     1       1.574   4.725  19.765  0.00  0.00    +0.000 C 
ATOM      5  C   UNL     1       1.744   3.943  18.447  0.00  0.00    +0.000 C 
ATOM      6  O   UNL     1       3.090   3.469  18.288  0.00  0.00    +0.000 OA
ENDROOT
BRANCH   1   7
ATOM      7  C   UNL     1       5.448   4.060  18.117  0.00  0.00    +0.000 C 
BRANCH   7  13
ATOM      8  C   UNL     1       6.161   3.665  13.351  0.00  0.00    +0.000 C 
ATOM      9  C   UNL     1       6.269   4.230  14.716  0.00  0.00    +0.000 A 
ATOM     10  C   UNL     1       7.035   5.339  15.136  0.00  0.00    +0.000 A 
ATOM     11  C   UNL     1       6.814   5.446  16.491  0.00  0.00    +0.000 A 
ATOM     12  C   UNL     1       7.359   6.400  17.488  0.00  0.00    +0.000 C 
ATOM     13  N   UNL     1       5.963   4.419  16.805  0.00  0.00    +0.000 N 
ATOM     14  N   UNL     1       5.600   3.678  15.736  0.00  0.00    +0.000 NA
ENDBRANCH   7  13
ENDBRANCH   1   7
BRANCH   3  15
ATOM     15  C   UNL     1       2.227   6.970  19.088  0.00  0.00    +0.000 C 
BRANCH  15  16
ATOM     16  C   UNL     1       1.650   8.149  19.845  0.00  0.00    +0.000 A 
ATOM     17  C   UNL     1       1.493   8.096  21.238  0.00  0.00    +0.000 A 
ATOM     18  C   UNL     1       1.019   9.206  21.940  0.00  0.00    +0.000 A 
ATOM     19  C   UNL     1       0.710  10.381  21.259  0.00  0.00    +0.000 A 
ATOM     20  C   UNL     1       0.883  10.449  19.874  0.00  0.00    +0.000 A 
ATOM     21  C   UNL     1       1.322   9.333  19.165  0.00  0.00    +0.000 A 
ATOM     22  O   UNL     1       0.653  11.588  19.145  0.00  0.00    +0.000 OA
ATOM     23  C   UNL     1       0.654  12.740  19.996  0.00  0.00    +0.000 C 
ATOM     24  C   UNL     1      -0.240  12.499  21.200  0.00  0.00    +0.000 C 
ATOM     25  O   UNL     1       0.271  11.438  22.016  0.00  0.00    +0.000 OA
ENDBRANCH  15  16
ENDBRANCH   3  15
TORSDOF 4
ENDMDL
MODEL 3
REMARK VINA RESULT:      -7.3      2.263      8.314
REMARK  Name = 
REMARK  6 active torsions:
REMARK  status: ('A' for Active; 'I' for Inactive)
REMARK    1  A    between atoms: C_1  and  C_2
REMARK    2  A    between atoms: C_4  and  C_5
REMARK    3  A    between atoms: N_6  and  C_7
REMARK    4  A    between atoms: C_7  and  C_8
REMARK    5  A    between atoms: N_10  and  C_11
REMARK    6  A    between atoms: C_11  and  C_12
REMARK                            x       y       z     vdW  Elec       q    Type
REMARK                         _______ _______ _______ _____ _____    ______ ____
ROOT
ATOM      1  C   UNL     1       2.529   6.535  19.450  0.00  0.00    +0.000 C 
ATOM      2  C   UNL     1       2.325   5.658  18.199  0.00  0.00    +0.000 C 
ATOM      3  N   UNL     1       2.470   4.208  18.471  0.00  0.00    +0.000 NA
ATOM      4  C   UNL     1       1.548   3.864  19.581  0.00  0.00    +0.000 C 
ATOM      5  C   UNL     1       1.655   4.799  20.802  0.00  0.00    +0.000 C 
ATOM      6  O   UNL     1       1.522   6.176  20.421  0.00  0.00    +0.000 OA
ENDROOT
BRANCH   1   7
ATOM      7  C   UNL     1       2.400   8.010  19.076  0.00  0.00    +0.000 C 
BRANCH   7  13
ATOM      8  C   UNL     1       0.192   9.369  23.158  0.00  0.00    +0.000 C 
ATOM      9  C   UNL     1       0.456   9.271  21.703  0.00  0.00    +0.000 A 
ATOM     10  C   UNL     1      -0.304   9.816  20.646  0.00  0.00    +0.000 A 
ATOM     11  C   UNL     1       0.341   9.431  19.492  0.00  0.00    +0.000 A 
ATOM     12  C   UNL     1       0.008   9.679  18.068  0.00  0.00    +0.000 C 
ATOM     13  N   UNL     1       1.416   8.687  19.906  0.00  0.00    +0.000 N 
ATOM     14  N   UNL     1       1.519   8.595  21.249  0.00  0.00    +0.000 NA
ENDBRANCH   7  13
ENDBRANCH   1   7
BRANCH   3  15
ATOM     15  C   UNL     1       3.854   3.814  18.801  0.00  0.00    +0.000 C 
BRANCH  15  16
ATOM     16  C   UNL     1       4.868   4.243  17.760  0.00  0.00    +0.000 A 
ATOM     17  C   UNL     1       6.087   4.821  18.145  0.00  0.00    +0.000 A 
ATOM     18  C   UNL     1       7.046   5.157  17.187  0.00  0.00    +0.000 A 
ATOM     19  C   UNL     1       6.800   4.907  15.839  0.00  0.00    +0.000 A 
ATOM     20  C   UNL     1       5.597   4.314  15.449  0.00  0.00    +0.000 A 
ATOM     21  C   UNL     1       4.623   4.008  16.398  0.00  0.00    +0.000 A 
ATOM     22  O   UNL     1       5.310   3.987  14.147  0.00  0.00    +0.000 OA
ATOM     23  C   UNL     1       6.509   3.924  13.367  0.00  0.00    +0.000 C 
ATOM     24  C   UNL     1       7.348   5.169  13.598  0.00  0.00    +0.000 C 
ATOM     25  O   UNL     1       7.795   5.244  14.956  0.00  0.00    +0.000 OA
ENDBRANCH  15  16
ENDBRANCH   3  15
TORSDOF 4
ENDMDL
MODEL 4
REMARK VINA RESULT:      -7.3      1.575      2.355
REMARK  Name = 
REMARK  6 active torsions:
REMARK  status: ('A' for Active; 'I' for Inactive)
REMARK    1  A    between atoms: C_1  and  C_2
REMARK    2  A    between atoms: C_4  and  C_5
REMARK    3  A    between atoms: N_6  and  C_7
REMARK    4  A    between atoms: C_7  and  C_8
REMARK    5  A    between atoms: N_10  and  C_11
REMARK    6  A    between atoms: C_11  and  C_12
REMARK                            x       y       z     vdW  Elec       q    Type
REMARK                         _______ _______ _______ _____ _____    ______ ____
ROOT
ATOM      1  C   UNL     1       3.821   4.465  18.628  0.00  0.00    +0.000 C 
ATOM      2  C   UNL     1       3.923   5.643  19.618  0.00  0.00    +0.000 C 
ATOM      3  N   UNL     1       2.634   6.347  19.823  0.00  0.00    +0.000 NA
ATOM      4  C   UNL     1       1.627   5.336  20.222  0.00  0.00    +0.000 C 
ATOM      5  C   UNL     1       1.585   4.093  19.309  0.00  0.00    +0.000 C 
ATOM      6  O   UNL     1       2.886   3.505  19.165  0.00  0.00    +0.000 OA
ENDROOT
BRANCH   1   7
ATOM      7  C   UNL     1       5.194   3.821  18.447  0.00  0.00    +0.000 C 
BRANCH   7  13
ATOM      8  C   UNL     1       6.054   3.905  13.689  0.00  0.00    +0.000 C 
ATOM      9  C   UNL     1       6.192   4.268  15.120  0.00  0.00    +0.000 A 
ATOM     10  C   UNL     1       7.114   5.165  15.700  0.00  0.00    +0.000 A 
ATOM     11  C   UNL     1       6.851   5.139  17.051  0.00  0.00    +0.000 A 
ATOM     12  C   UNL     1       7.502   5.851  18.178  0.00  0.00    +0.000 C 
ATOM     13  N   UNL     1       5.823   4.245  17.207  0.00  0.00    +0.000 N 
ATOM     14  N   UNL     1       5.391   3.719  16.041  0.00  0.00    +0.000 NA
ENDBRANCH   7  13
ENDBRANCH   1   7
BRANCH   3  15
ATOM     15  C   UNL     1       2.184   7.091  18.629  0.00  0.00    +0.000 C 
BRANCH  15  16
ATOM     16  C   UNL     1       1.781   8.521  18.925  0.00  0.00    +0.000 A 
ATOM     17  C   UNL     1       1.040   8.832  20.075  0.00  0.00    +0.000 A 
ATOM     18  C   UNL     1       0.724  10.158  20.378  0.00  0.00    +0.000 A 
ATOM     19  C   UNL     1       1.155  11.184  19.541  0.00  0.00    +0.000 A 
ATOM     20  C   UNL     1       1.910  10.886  18.404  0.00  0.00    +0.000 A 
ATOM     21  C   UNL     1       2.199   9.562  18.080  0.00  0.00    +0.000 A 
ATOM     22  O   UNL     1       2.416  11.848  17.566  0.00  0.00    +0.000 OA
ATOM     23  C   UNL     1       2.448  13.120  18.222  0.00  0.00    +0.000 C 
ATOM     24  C   UNL     1       1.106  13.408  18.871  0.00  0.00    +0.000 C 
ATOM     25  O   UNL     1       0.826  12.464  19.912  0.00  0.00    +0.000 OA
ENDBRANCH  15  16
ENDBRANCH   3  15
TORSDOF 4
ENDMDL
MODEL 5
REMARK VINA RESULT:      -7.3      1.311      1.690
REMARK  Name = 
REMARK  6 active torsions:
REMARK  status: ('A' for Active; 'I' for Inactive)
REMARK    1  A    between atoms: C_1  and  C_2
REMARK    2  A    between atoms: C_4  and  C_5
REMARK    3  A    between atoms: N_6  and  C_7
REMARK    4  A    between atoms: C_7  and  C_8
REMARK    5  A    between atoms: N_10  and  C_11
REMARK    6  A    between atoms: C_11  and  C_12
REMARK                            x       y       z     vdW  Elec       q    Type
REMARK                         _______ _______ _______ _____ _____    ______ ____
ROOT
ATOM      1  C   UNL     1       4.589   4.000  18.613  0.00  0.00    +0.000 C 
ATOM      2  C   UNL     1       4.406   5.076  19.702  0.00  0.00    +0.000 C 
ATOM      3  N   UNL     1       3.060   5.057  20.323  0.00  0.00    +0.000 NA
ATOM      4  C   UNL     1       2.811   3.680  20.815  0.00  0.00    +0.000 C 
ATOM      5  C   UNL     1       3.097   2.577  19.776  0.00  0.00    +0.000 C 
ATOM      6  O   UNL     1       4.416   2.704  19.226  0.00  0.00    +0.000 OA
ENDROOT
BRANCH   1   7
ATOM      7  C   UNL     1       5.984   4.113  18.001  0.00  0.00    +0.000 C 
BRANCH   7  13
ATOM      8  C   UNL     1       6.039   3.601  13.194  0.00  0.00    +0.000 C 
ATOM      9  C   UNL     1       5.955   4.289  14.503  0.00  0.00    +0.000 A 
ATOM     10  C   UNL     1       5.850   5.675  14.748  0.00  0.00    +0.000 A 
ATOM     11  C   UNL     1       5.825   5.805  16.119  0.00  0.00    +0.000 A 
ATOM     12  C   UNL     1       5.749   7.014  16.975  0.00  0.00    +0.000 C 
ATOM     13  N   UNL     1       5.924   4.529  16.609  0.00  0.00    +0.000 N 
ATOM     14  N   UNL     1       5.982   3.587  15.643  0.00  0.00    +0.000 NA
ENDBRANCH   7  13
ENDBRANCH   1   7
BRANCH   3  15
ATOM     15  C   UNL     1       1.989   5.483  19.400  0.00  0.00    +0.000 C 
BRANCH  15  16
ATOM     16  C   UNL     1       1.892   6.986  19.239  0.00  0.00    +0.000 A 
ATOM     17  C   UNL     1       2.193   7.594  18.011  0.00  0.00    +0.000 A 
ATOM     18  C   UNL     1       2.043   8.973  17.847  0.00  0.00    +0.000 A 
ATOM     19  C   UNL     1       1.580   9.752  18.905  0.00  0.00    +0.000 A 
ATOM     20  C   UNL     1       1.259   9.152  20.125  0.00  0.00    +0.000 A 
ATOM     21  C   UNL     1       1.440   7.782  20.303  0.00  0.00    +0.000 A 
ATOM     22  O   UNL     1       0.745   9.848  21.190  0.00  0.00    +0.000 OA
ATOM     23  C   UNL     1       0.195  11.097  20.758  0.00  0.00    +0.000 C 
ATOM     24  C   UNL     1       1.190  11.827  19.872  0.00  0.00    +0.000 C 
ATOM     25  O   UNL     1       1.437  11.096  18.665  0.00  0.00    +0.000 OA
ENDBRANCH  15  16
ENDBRANCH   3  15
TORSDOF 4
ENDMDL
MODEL 6
REMARK VINA RESULT:      -7.3      1.301      2.564
REMARK  Name = 
REMARK  6 active torsions:
REMARK  status: ('A' for Active; 'I' for Inactive)
REMARK    1  A    between atoms: C_1  and  C_2
REMARK    2  A    between atoms: C_4  and  C_5
REMARK    3  A    between atoms: N_6  and  C_7
REMARK    4  A    between atoms: C_7  and  C_8
REMARK    5  A    between atoms: N_10  and  C_11
REMARK    6  A    between atoms: C_11  and  C_12
REMARK                            x       y       z     vdW  Elec       q    Type
REMARK                         _______ _______ _______ _____ _____    ______ ____
ROOT
ATOM      1  C   UNL     1       3.718   4.460  18.587  0.00  0.00    +0.000 C 
ATOM      2  C   UNL     1       3.654   5.228  19.922  0.00  0.00    +0.000 C 
ATOM      3  N   UNL     1       2.333   5.852  20.176  0.00  0.00    +0.000 NA
ATOM      4  C   UNL     1       1.305   4.789  20.065  0.00  0.00    +0.000 C 
ATOM      5  C   UNL     1       1.419   3.932  18.788  0.00  0.00    +0.000 C 
ATOM      6  O   UNL     1       2.741   3.397  18.632  0.00  0.00    +0.000 OA
ENDROOT
BRANCH   1   7
ATOM      7  C   UNL     1       5.117   3.883  18.388  0.00  0.00    +0.000 C 
BRANCH   7  13
ATOM      8  C   UNL     1       7.904   7.794  17.819  0.00  0.00    +0.000 C 
ATOM      9  C   UNL     1       7.202   6.540  17.458  0.00  0.00    +0.000 A 
ATOM     10  C   UNL     1       7.145   5.912  16.194  0.00  0.00    +0.000 A 
ATOM     11  C   UNL     1       6.358   4.797  16.373  0.00  0.00    +0.000 A 
ATOM     12  C   UNL     1       5.918   3.759  15.410  0.00  0.00    +0.000 C 
ATOM     13  N   UNL     1       5.987   4.819  17.693  0.00  0.00    +0.000 N 
ATOM     14  N   UNL     1       6.507   5.860  18.378  0.00  0.00    +0.000 NA
ENDBRANCH   7  13
ENDBRANCH   1   7
BRANCH   3  15
ATOM     15  C   UNL     1       2.031   6.967  19.256  0.00  0.00    +0.000 C 
BRANCH  15  16
ATOM     16  C   UNL     1       1.514   8.206  19.958  0.00  0.00    +0.000 A 
ATOM     17  C   UNL     1       1.402   8.242  21.356  0.00  0.00    +0.000 A 
ATOM     18  C   UNL     1       0.984   9.406  22.004  0.00  0.00    +0.000 A 
ATOM     19  C   UNL     1       0.686  10.546  21.262  0.00  0.00    +0.000 A 
ATOM     20  C   UNL     1       0.813  10.526  19.871  0.00  0.00    +0.000 A 
ATOM     21  C   UNL     1       1.197   9.356  19.217  0.00  0.00    +0.000 A 
ATOM     22  O   UNL     1       0.592  11.626  19.081  0.00  0.00    +0.000 OA
ATOM     23  C   UNL     1       0.653  12.826  19.860  0.00  0.00    +0.000 C 
ATOM     24  C   UNL     1      -0.206  12.685  21.105  0.00  0.00    +0.000 C 
ATOM     25  O   UNL     1       0.302  11.660  21.967  0.00  0.00    +0.000 OA
ENDBRANCH  15  16
ENDBRANCH   3  15
TORSDOF 4
ENDMDL
MODEL 7
REMARK VINA RESULT:      -7.2      1.527      2.278
REMARK  Name = 
REMARK  6 active torsions:
REMARK  status: ('A' for Active; 'I' for Inactive)
REMARK    1  A    between atoms: C_1  and  C_2
REMARK    2  A    between atoms: C_4  and  C_5
REMARK    3  A    between atoms: N_6  and  C_7
REMARK    4  A    between atoms: C_7  and  C_8
REMARK    5  A    between atoms: N_10  and  C_11
REMARK    6  A    between atoms: C_11  and  C_12
REMARK                            x       y       z     vdW  Elec       q    Type
REMARK                         _______ _______ _______ _____ _____    ______ ____
ROOT
ATOM      1  C   UNL     1       5.583   5.032  16.252  0.00  0.00    +0.000 C 
ATOM      2  C   UNL     1       5.551   5.932  17.503  0.00  0.00    +0.000 C 
ATOM      3  N   UNL     1       4.346   5.727  18.341  0.00  0.00    +0.000 NA
ATOM      4  C   UNL     1       4.261   4.281  18.661  0.00  0.00    +0.000 C 
ATOM      5  C   UNL     1       4.404   3.355  17.436  0.00  0.00    +0.000 C 
ATOM      6  O   UNL     1       5.591   3.655  16.687  0.00  0.00    +0.000 OA
ENDROOT
BRANCH   1   7
ATOM      7  C   UNL     1       6.833   5.332  15.428  0.00  0.00    +0.000 C 
BRANCH   7  13
ATOM      8  C   UNL     1       5.017   2.662  11.829  0.00  0.00    +0.000 C 
ATOM      9  C   UNL     1       5.923   3.612  12.516  0.00  0.00    +0.000 A 
ATOM     10  C   UNL     1       7.072   4.245  11.993  0.00  0.00    +0.000 A 
ATOM     11  C   UNL     1       7.571   5.009  13.023  0.00  0.00    +0.000 A 
ATOM     12  C   UNL     1       8.771   5.879  13.090  0.00  0.00    +0.000 C 
ATOM     13  N   UNL     1       6.728   4.792  14.082  0.00  0.00    +0.000 N 
ATOM     14  N   UNL     1       5.704   3.962  13.789  0.00  0.00    +0.000 NA
ENDBRANCH   7  13
ENDBRANCH   1   7
BRANCH   3  15
ATOM     15  C   UNL     1       3.102   6.192  17.695  0.00  0.00    +0.000 C 
BRANCH  15  16
ATOM     16  C   UNL     1       2.494   7.409  18.361  0.00  0.00    +0.000 A 
ATOM     17  C   UNL     1       2.278   8.589  17.635  0.00  0.00    +0.000 A 
ATOM     18  C   UNL     1       1.659   9.688  18.235  0.00  0.00    +0.000 A 
ATOM     19  C   UNL     1       1.241   9.612  19.561  0.00  0.00    +0.000 A 
ATOM     20  C   UNL     1       1.434   8.434  20.286  0.00  0.00    +0.000 A 
ATOM     21  C   UNL     1       2.081   7.347  19.702  0.00  0.00    +0.000 A 
ATOM     22  O   UNL     1       0.997   8.267  21.576  0.00  0.00    +0.000 OA
ATOM     23  C   UNL     1      -0.011   9.232  21.896  0.00  0.00    +0.000 C 
ATOM     24  C   UNL     1       0.452  10.623  21.497  0.00  0.00    +0.000 C 
ATOM     25  O   UNL     1       0.621  10.722  20.078  0.00  0.00    +0.000 OA
ENDBRANCH  15  16
ENDBRANCH   3  15
TORSDOF 4
ENDMDL
MODEL 8
REMARK VINA RESULT:      -7.2      1.636      2.790
REMARK  Name = 
REMARK  6 active torsions:
REMARK  status: ('A' for Active; 'I' for Inactive)
REMARK    1  A    between atoms: C_1  and  C_2
REMARK    2  A    between atoms: C_4  and  C_5
REMARK    3  A    between atoms: N_6  and  C_7
REMARK    4  A    between atoms: C_7  and  C_8
REMARK    5  A    between atoms: N_10  and  C_11
REMARK    6  A    between atoms: C_11  and  C_12
REMARK                            x       y       z     vdW  Elec       q    Type
REMARK                         _______ _______ _______ _____ _____    ______ ____
ROOT
ATOM      1  C   UNL     1       5.692   4.961  16.181  0.00  0.00    +0.000 C 
ATOM      2  C   UNL     1       5.725   5.846  17.443  0.00  0.00    +0.000 C 
ATOM      3  N   UNL     1       4.479   5.770  18.243  0.00  0.00    +0.000 NA
ATOM      4  C   UNL     1       4.220   4.341  18.539  0.00  0.00    +0.000 C 
ATOM      5  C   UNL     1       4.294   3.418  17.306  0.00  0.00    +0.000 C 
ATOM      6  O   UNL     1       5.530   3.588  16.597  0.00  0.00    +0.000 OA
ENDROOT
BRANCH   1   7
ATOM      7  C   UNL     1       6.993   5.125  15.398  0.00  0.00    +0.000 C 
BRANCH   7  13
ATOM      8  C   UNL     1       5.179   2.542  11.734  0.00  0.00    +0.000 C 
ATOM      9  C   UNL     1       6.052   3.516  12.433  0.00  0.00    +0.000 A 
ATOM     10  C   UNL     1       7.122   4.261  11.894  0.00  0.00    +0.000 A 
ATOM     11  C   UNL     1       7.622   4.998  12.944  0.00  0.00    +0.000 A 
ATOM     12  C   UNL     1       8.759   5.949  13.005  0.00  0.00    +0.000 C 
ATOM     13  N   UNL     1       6.854   4.658  14.028  0.00  0.00    +0.000 N 
ATOM     14  N   UNL     1       5.877   3.773  13.735  0.00  0.00    +0.000 NA
ENDBRANCH   7  13
ENDBRANCH   1   7
BRANCH   3  15
ATOM     15  C   UNL     1       3.317   6.382  17.567  0.00  0.00    +0.000 C 
BRANCH  15  16
ATOM     16  C   UNL     1       2.513   7.302  18.462  0.00  0.00    +0.000 A 
ATOM     17  C   UNL     1       2.300   6.981  19.811  0.00  0.00    +0.000 A 
ATOM     18  C   UNL     1       1.612   7.860  20.649  0.00  0.00    +0.000 A 
ATOM     19  C   UNL     1       1.141   9.072  20.149  0.00  0.00    +0.000 A 
ATOM     20  C   UNL     1       1.365   9.409  18.812  0.00  0.00    +0.000 A 
ATOM     21  C   UNL     1       2.022   8.519  17.964  0.00  0.00    +0.000 A 
ATOM     22  O   UNL     1       0.980  10.608  18.266  0.00  0.00    +0.000 OA
ATOM     23  C   UNL     1       0.744  11.577  19.294  0.00  0.00    +0.000 C 
ATOM     24  C   UNL     1      -0.152  10.989  20.370  0.00  0.00    +0.000 C 
ATOM     25  O   UNL     1       0.492   9.896  21.035  0.00  0.00    +0.000 OA
ENDBRANCH  15  16
ENDBRANCH   3  15
TORSDOF 4
ENDMDL
MODEL 9
REMARK VINA RESULT:      -7.0      1.583      2.395
REMARK  Name = 
REMARK  6 active torsions:
REMARK  status: ('A' for Active; 'I' for Inactive)
REMARK    1  A    between atoms: C_1  and  C_2
REMARK    2  A    between atoms: C_4  and  C_5
REMARK    3  A    between atoms: N_6  and  C_7
REMARK    4  A    between atoms: C_7  and  C_8
REMARK    5  A    between atoms: N_10  and  C_11
REMARK    6  A    between atoms: C_11  and  C_12
REMARK                            x       y       z     vdW  Elec       q    Type
REMARK                         _______ _______ _______ _____ _____    ______ ____
ROOT
ATOM      1  C   UNL     1       4.635   3.977  18.499  0.00  0.00    +0.000 C 
ATOM      2  C   UNL     1       4.473   4.995  19.645  0.00  0.00    +0.000 C 
ATOM      3  N   UNL     1       3.149   4.923  20.308  0.00  0.00    +0.000 NA
ATOM      4  C   UNL     1       2.938   3.520  20.740  0.00  0.00    +0.000 C 
ATOM      5  C   UNL     1       3.204   2.474  19.639  0.00  0.00    +0.000 C 
ATOM      6  O   UNL     1       4.503   2.650  19.053  0.00  0.00    +0.000 OA
ENDROOT
BRANCH   1   7
ATOM      7  C   UNL     1       6.007   4.143  17.848  0.00  0.00    +0.000 C 
BRANCH   7  13
ATOM      8  C   UNL     1       6.160   3.566  13.050  0.00  0.00    +0.000 C 
ATOM      9  C   UNL     1       5.967   4.255  14.348  0.00  0.00    +0.000 A 
ATOM     10  C   UNL     1       5.653   5.614  14.569  0.00  0.00    +0.000 A 
ATOM     11  C   UNL     1       5.602   5.761  15.937  0.00  0.00    +0.000 A 
ATOM     12  C   UNL     1       5.341   6.958  16.772  0.00  0.00    +0.000 C 
ATOM     13  N   UNL     1       5.891   4.522  16.449  0.00  0.00    +0.000 N 
ATOM     14  N   UNL     1       6.095   3.584  15.499  0.00  0.00    +0.000 NA
ENDBRANCH   7  13
ENDBRANCH   1   7
BRANCH   3  15
ATOM     15  C   UNL     1       2.041   5.376  19.443  0.00  0.00    +0.000 C 
BRANCH  15  16
ATOM     16  C   UNL     1       1.731   6.852  19.581  0.00  0.00    +0.000 A 
ATOM     17  C   UNL     1       1.280   7.378  20.800  0.00  0.00    +0.000 A 
ATOM     18  C   UNL     1       1.056   8.749  20.942  0.00  0.00    +0.000 A 
ATOM     19  C   UNL     1       1.292   9.607  19.870  0.00  0.00    +0.000 A 
ATOM     20  C   UNL     1       1.760   9.094  18.658  0.00  0.00    +0.000 A 
ATOM     21  C   UNL     1       1.953   7.723  18.502  0.00  0.00    +0.000 A 
ATOM     22  O   UNL     1       2.068   9.884  17.579  0.00  0.00    +0.000 OA
ATOM     23  C   UNL     1       2.264  11.242  17.988  0.00  0.00    +0.000 C 
ATOM     24  C   UNL     1       1.111  11.694  18.868  0.00  0.00    +0.000 C 
ATOM     25  O   UNL     1       1.071  10.944  20.088  0.00  0.00    +0.000 OA
ENDBRANCH  15  16
ENDBRANCH   3  15
TORSDOF 4
ENDMDL
