MODEL 1
REMARK VINA RESULT:      -6.8      0.000      0.000
REMARK  Name = 
REMARK  9 active torsions:
REMARK  status: ('A' for Active; 'I' for Inactive)
REMARK    1  A    between atoms: C_1  and  C_2
REMARK    2  A    between atoms: C_2  and  O_3
REMARK    3  A    between atoms: O_3  and  C_4
REMARK    4  A    between atoms: C_6  and  C_7
REMARK    5  A    between atoms: C_8  and  N_9
REMARK    6  A    between atoms: N_15  and  C_16
REMARK    7  A    between atoms: C_16  and  C_17
REMARK    8  A    between atoms: C_16  and  C_18
REMARK    9  A    between atoms: C_24  and  C_25
REMARK                            x       y       z     vdW  Elec       q    Type
REMARK                         _______ _______ _______ _____ _____    ______ ____
ROOT
ATOM      1  N   UNL     1       2.279   7.824  20.470  0.00  0.00    +0.000 N 
ATOM      2  C   UNL     1       1.397   8.899  20.316  0.00  0.00    +0.000 A 
ATOM      3  N   UNL     1       0.776   9.128  19.194  0.00  0.00    +0.000 NA
ATOM      4  C   UNL     1      -0.179  10.098  19.169  0.00  0.00    +0.000 A 
ATOM      5 CL   UNL     1      -0.936  10.379  17.642  0.00  0.00    +0.000 Cl
ATOM      6  C   UNL     1      -0.618  10.760  20.249  0.00  0.00    +0.000 A 
ATOM      7  N   UNL     1      -0.032  10.589  21.498  0.00  0.00    +0.000 N 
ATOM      8  C   UNL     1       1.146   9.819  21.574  0.00  0.00    +0.000 A 
ATOM      9  O   UNL     1       1.922   9.762  22.506  0.00  0.00    +0.000 OA
ATOM     10  H   UNL     1       2.609   7.702  21.426  0.00  0.00    +0.000 HD
ENDROOT
BRANCH   1  15
ATOM     11  C   UNL     1       1.708   3.998  18.646  0.00  0.00    +0.000 A 
ATOM     12  C   UNL     1       2.215   5.078  17.922  0.00  0.00    +0.000 A 
ATOM     13  C   UNL     1       2.441   6.337  18.502  0.00  0.00    +0.000 A 
ATOM     14  C   UNL     1       3.020   7.380  17.586  0.00  0.00    +0.000 C 
ATOM     15  C   UNL     1       2.063   6.562  19.838  0.00  0.00    +0.000 A 
ATOM     16  C   UNL     1       1.546   5.463  20.562  0.00  0.00    +0.000 A 
ATOM     17  C   UNL     1       1.374   4.186  19.988  0.00  0.00    +0.000 A 
ATOM     18  C   UNL     1       0.846   3.048  20.818  0.00  0.00    +0.000 C 
BRANCH  11  19
ATOM     19  O   UNL     1       1.530   2.746  18.110  0.00  0.00    +0.000 OA
BRANCH  19  21
ATOM     20  C   UNL     1       3.564   1.554  18.579  0.00  0.00    +0.000 C 
ATOM     21  C   UNL     1       2.692   2.167  17.507  0.00  0.00    +0.000 C 
ENDBRANCH  19  21
ENDBRANCH  11  19
ENDBRANCH   1  15
BRANCH   7  22
ATOM     22  C   UNL     1      -0.653  11.245  22.680  0.00  0.00    +0.000 C 
ATOM     23  C   UNL     1      -1.760  10.418  23.336  0.00  0.00    +0.000 C 
BRANCH  22  24
ATOM     24  C   UNL     1      -1.119  12.645  22.317  0.00  0.00    +0.000 C 
ATOM     25  C   UNL     1      -1.165  13.776  23.326  0.00  0.00    +0.000 C 
ATOM     26  C   UNL     1      -0.151  13.802  22.219  0.00  0.00    +0.000 C 
ENDBRANCH  22  24
ENDBRANCH   7  22
TORSDOF 5
ENDMDL
MODEL 2
REMARK VINA RESULT:      -6.8      1.883      3.023
REMARK  Name = 
REMARK  9 active torsions:
REMARK  status: ('A' for Active; 'I' for Inactive)
REMARK    1  A    between atoms: C_1  and  C_2
REMARK    2  A    between atoms: C_2  and  O_3
REMARK    3  A    between atoms: O_3  and  C_4
REMARK    4  A    between atoms: C_6  and  C_7
REMARK    5  A    between atoms: C_8  and  N_9
REMARK    6  A    between atoms: N_15  and  C_16
REMARK    7  A    between atoms: C_16  and  C_17
REMARK    8  A    between atoms: C_16  and  C_18
REMARK    9  A    between atoms: C_24  and  C_25
REMARK                            x       y       z     vdW  Elec       q    Type
REMARK                         _______ _______ _______ _____ _____    ______ ____
ROOT
ATOM      1  N   UNL     1       1.957   9.686  18.762  0.00  0.00    +0.000 N 
ATOM      2  C   UNL     1       0.724  10.337  18.649  0.00  0.00    +0.000 A 
ATOM      3  N   UNL     1      -0.334   9.736  18.180  0.00  0.00    +0.000 NA
ATOM      4  C   UNL     1      -1.528  10.387  18.244  0.00  0.00    +0.000 A 
ATOM      5 CL   UNL     1      -2.883   9.553  17.570  0.00  0.00    +0.000 Cl
ATOM      6  C   UNL     1      -1.724  11.558  18.866  0.00  0.00    +0.000 A 
ATOM      7  N   UNL     1      -0.667  12.282  19.409  0.00  0.00    +0.000 N 
ATOM      8  C   UNL     1       0.643  11.832  19.147  0.00  0.00    +0.000 A 
ATOM      9  O   UNL     1       1.675  12.449  19.318  0.00  0.00    +0.000 OA
ATOM     10  H   UNL     1       2.666  10.237  19.242  0.00  0.00    +0.000 HD
ENDROOT
BRANCH   1  15
ATOM     11  C   UNL     1       2.199   5.524  19.720  0.00  0.00    +0.000 A 
ATOM     12  C   UNL     1       1.729   6.456  20.647  0.00  0.00    +0.000 A 
ATOM     13  C   UNL     1       1.611   7.823  20.350  0.00  0.00    +0.000 A 
ATOM     14  C   UNL     1       1.059   8.682  21.455  0.00  0.00    +0.000 C 
ATOM     15  C   UNL     1       2.063   8.304  19.108  0.00  0.00    +0.000 A 
ATOM     16  C   UNL     1       2.542   7.354  18.177  0.00  0.00    +0.000 A 
ATOM     17  C   UNL     1       2.605   5.973  18.462  0.00  0.00    +0.000 A 
ATOM     18  C   UNL     1       3.097   5.008  17.419  0.00  0.00    +0.000 C 
BRANCH  11  19
ATOM     19  O   UNL     1       2.272   4.176  19.973  0.00  0.00    +0.000 OA
BRANCH  19  21
ATOM     20  C   UNL     1       1.509   2.653  21.670  0.00  0.00    +0.000 C 
ATOM     21  C   UNL     1       1.102   3.600  20.564  0.00  0.00    +0.000 C 
ENDBRANCH  19  21
ENDBRANCH  11  19
ENDBRANCH   1  15
BRANCH   7  22
ATOM     22  C   UNL     1      -0.965  13.502  20.206  0.00  0.00    +0.000 C 
ATOM     23  C   UNL     1      -0.506  14.801  19.541  0.00  0.00    +0.000 C 
BRANCH  22  24
ATOM     24  C   UNL     1      -0.419  13.353  21.616  0.00  0.00    +0.000 C 
ATOM     25  C   UNL     1      -1.272  13.580  22.849  0.00  0.00    +0.000 C 
ATOM     26  C   UNL     1      -0.815  12.193  22.500  0.00  0.00    +0.000 C 
ENDBRANCH  22  24
ENDBRANCH   7  22
TORSDOF 5
ENDMDL
MODEL 3
REMARK VINA RESULT:      -6.8      3.579      7.888
REMARK  Name = 
REMARK  9 active torsions:
REMARK  status: ('A' for Active; 'I' for Inactive)
REMARK    1  A    between atoms: C_1  and  C_2
REMARK    2  A    between atoms: C_2  and  O_3
REMARK    3  A    between atoms: O_3  and  C_4
REMARK    4  A    between atoms: C_6  and  C_7
REMARK    5  A    between atoms: C_8  and  N_9
REMARK    6  A    between atoms: N_15  and  C_16
REMARK    7  A    between atoms: C_16  and  C_17
REMARK    8  A    between atoms: C_16  and  C_18
REMARK    9  A    between atoms: C_24  and  C_25
REMARK                            x       y       z     vdW  Elec       q    Type
REMARK                         _______ _______ _______ _____ _____    ______ ____
ROOT
ATOM      1  N   UNL     1      -0.265  10.844  18.235  0.00  0.00    +0.000 N 
ATOM      2  C   UNL     1       0.373  10.066  19.207  0.00  0.00    +0.000 A 
ATOM      3  N   UNL     1       0.041  10.127  20.466  0.00  0.00    +0.000 NA
ATOM      4  C   UNL     1       0.601   9.231  21.325  0.00  0.00    +0.000 A 
ATOM      5 CL   UNL     1       0.151   9.390  22.986  0.00  0.00    +0.000 Cl
ATOM      6  C   UNL     1       1.382   8.206  20.954  0.00  0.00    +0.000 A 
ATOM      7  N   UNL     1       1.791   8.042  19.635  0.00  0.00    +0.000 N 
ATOM      8  C   UNL     1       1.498   9.073  18.721  0.00  0.00    +0.000 A 
ATOM      9  O   UNL     1       1.975   9.225  17.614  0.00  0.00    +0.000 OA
ATOM     10  H   UNL     1       0.018  10.618  17.283  0.00  0.00    +0.000 HD
ENDROOT
BRANCH   1  15
ATOM     11  C   UNL     1      -4.446  11.708  18.511  0.00  0.00    +0.000 A 
ATOM     12  C   UNL     1      -3.939  10.891  17.498  0.00  0.00    +0.000 A 
ATOM     13  C   UNL     1      -2.576  10.566  17.401  0.00  0.00    +0.000 A 
ATOM     14  C   UNL     1      -2.207   9.651  16.266  0.00  0.00    +0.000 C 
ATOM     15  C   UNL     1      -1.659  11.150  18.294  0.00  0.00    +0.000 A 
ATOM     16  C   UNL     1      -2.180  11.979  19.314  0.00  0.00    +0.000 A 
ATOM     17  C   UNL     1      -3.559  12.256  19.439  0.00  0.00    +0.000 A 
ATOM     18  C   UNL     1      -4.056  13.122  20.563  0.00  0.00    +0.000 C 
BRANCH  11  19
ATOM     19  O   UNL     1      -5.781  11.994  18.655  0.00  0.00    +0.000 OA
BRANCH  19  21
ATOM     20  C   UNL     1      -7.248  10.747  20.094  0.00  0.00    +0.000 C 
ATOM     21  C   UNL     1      -6.648  10.856  18.711  0.00  0.00    +0.000 C 
ENDBRANCH  19  21
ENDBRANCH  11  19
ENDBRANCH   1  15
BRANCH   7  22
ATOM     22  C   UNL     1       2.539   6.811  19.263  0.00  0.00    +0.000 C 
ATOM     23  C   UNL     1       2.140   6.233  17.904  0.00  0.00    +0.000 C 
BRANCH  22  24
ATOM     24  C   UNL     1       2.444   5.782  20.377  0.00  0.00    +0.000 C 
ATOM     25  C   UNL     1       1.420   4.664  20.368  0.00  0.00    +0.000 C 
ATOM     26  C   UNL     1       2.875   4.348  20.170  0.00  0.00    +0.000 C 
ENDBRANCH  22  24
ENDBRANCH   7  22
TORSDOF 5
ENDMDL
MODEL 4
REMARK VINA RESULT:      -6.7      3.514      4.836
REMARK  Name = 
REMARK  9 active torsions:
REMARK  status: ('A' for Active; 'I' for Inactive)
REMARK    1  A    between atoms: C_1  and  C_2
REMARK    2  A    between atoms: C_2  and  O_3
REMARK    3  A    between atoms: O_3  and  C_4
REMARK    4  A    between atoms: C_6  and  C_7
REMARK    5  A    between atoms: C_8  and  N_9
REMARK    6  A    between atoms: N_15  and  C_16
REMARK    7  A    between atoms: C_16  and  C_17
REMARK    8  A    between atoms: C_16  and  C_18
REMARK    9  A    between atoms: C_24  and  C_25
REMARK                            x       y       z     vdW  Elec       q    Type
REMARK                         _______ _______ _______ _____ _____    ______ ____
ROOT
ATOM      1  N   UNL     1      -0.059  11.201  19.577  0.00  0.00    +0.000 N 
ATOM      2  C   UNL     1      -1.268  11.282  18.877  0.00  0.00    +0.000 A 
ATOM      3  N   UNL     1      -1.502  10.562  17.816  0.00  0.00    +0.000 NA
ATOM      4  C   UNL     1      -2.754  10.585  17.282  0.00  0.00    +0.000 A 
ATOM      5 CL   UNL     1      -2.987   9.640  15.855  0.00  0.00    +0.000 Cl
ATOM      6  C   UNL     1      -3.806  11.203  17.837  0.00  0.00    +0.000 A 
ATOM      7  N   UNL     1      -3.672  11.993  18.974  0.00  0.00    +0.000 N 
ATOM      8  C   UNL     1      -2.369  12.262  19.440  0.00  0.00    +0.000 A 
ATOM      9  O   UNL     1      -2.042  13.110  20.245  0.00  0.00    +0.000 OA
ATOM     10  H   UNL     1      -0.053  11.737  20.443  0.00  0.00    +0.000 HD
ENDROOT
BRANCH   1  15
ATOM     11  C   UNL     1       2.014   7.478  19.955  0.00  0.00    +0.000 A 
ATOM     12  C   UNL     1       1.238   7.986  20.999  0.00  0.00    +0.000 A 
ATOM     13  C   UNL     1       0.523   9.190  20.892  0.00  0.00    +0.000 A 
ATOM     14  C   UNL     1      -0.286   9.574  22.101  0.00  0.00    +0.000 C 
ATOM     15  C   UNL     1       0.654   9.973  19.731  0.00  0.00    +0.000 A 
ATOM     16  C   UNL     1       1.445   9.453  18.681  0.00  0.00    +0.000 A 
ATOM     17  C   UNL     1       2.116   8.215  18.774  0.00  0.00    +0.000 A 
ATOM     18  C   UNL     1       2.920   7.702  17.612  0.00  0.00    +0.000 C 
BRANCH  11  19
ATOM     19  O   UNL     1       2.678   6.278  20.022  0.00  0.00    +0.000 OA
BRANCH  19  21
ATOM     20  C   UNL     1       1.537   4.184  19.713  0.00  0.00    +0.000 C 
ATOM     21  C   UNL     1       1.982   5.232  20.708  0.00  0.00    +0.000 C 
ENDBRANCH  19  21
ENDBRANCH  11  19
ENDBRANCH   1  15
BRANCH   7  22
ATOM     22  C   UNL     1      -4.896  12.537  19.620  0.00  0.00    +0.000 C 
ATOM     23  C   UNL     1      -4.844  12.527  21.149  0.00  0.00    +0.000 C 
BRANCH  22  24
ATOM     24  C   UNL     1      -6.130  11.832  19.082  0.00  0.00    +0.000 C 
ATOM     25  C   UNL     1      -7.534  12.183  19.537  0.00  0.00    +0.000 C 
ATOM     26  C   UNL     1      -7.092  12.524  18.143  0.00  0.00    +0.000 C 
ENDBRANCH  22  24
ENDBRANCH   7  22
TORSDOF 5
ENDMDL
MODEL 5
REMARK VINA RESULT:      -6.7      3.490      8.050
REMARK  Name = 
REMARK  9 active torsions:
REMARK  status: ('A' for Active; 'I' for Inactive)
REMARK    1  A    between atoms: C_1  and  C_2
REMARK    2  A    between atoms: C_2  and  O_3
REMARK    3  A    between atoms: O_3  and  C_4
REMARK    4  A    between atoms: C_6  and  C_7
REMARK    5  A    between atoms: C_8  and  N_9
REMARK    6  A    between atoms: N_15  and  C_16
REMARK    7  A    between atoms: C_16  and  C_17
REMARK    8  A    between atoms: C_16  and  C_18
REMARK    9  A    between atoms: C_24  and  C_25
REMARK                            x       y       z     vdW  Elec       q    Type
REMARK                         _______ _______ _______ _____ _____    ______ ____
ROOT
ATOM      1  N   UNL     1       0.001  10.828  18.126  0.00  0.00    +0.000 N 
ATOM      2  C   UNL     1       0.684   9.941  18.965  0.00  0.00    +0.000 A 
ATOM      3  N   UNL     1       0.517   9.946  20.258  0.00  0.00    +0.000 NA
ATOM      4  C   UNL     1       1.099   8.954  20.988  0.00  0.00    +0.000 A 
ATOM      5 CL   UNL     1       0.872   9.040  22.698  0.00  0.00    +0.000 Cl
ATOM      6  C   UNL     1       1.736   7.898  20.464  0.00  0.00    +0.000 A 
ATOM      7  N   UNL     1       1.965   7.788  19.097  0.00  0.00    +0.000 N 
ATOM      8  C   UNL     1       1.652   8.897  18.285  0.00  0.00    +0.000 A 
ATOM      9  O   UNL     1       2.000   9.083  17.137  0.00  0.00    +0.000 OA
ATOM     10  H   UNL     1       0.144  10.644  17.135  0.00  0.00    +0.000 HD
ENDROOT
BRANCH   1  15
ATOM     11  C   UNL     1      -4.022  12.003  18.986  0.00  0.00    +0.000 A 
ATOM     12  C   UNL     1      -3.724  11.170  17.906  0.00  0.00    +0.000 A 
ATOM     13  C   UNL     1      -2.417  10.744  17.618  0.00  0.00    +0.000 A 
ATOM     14  C   UNL     1      -2.280   9.825  16.435  0.00  0.00    +0.000 C 
ATOM     15  C   UNL     1      -1.344  11.238  18.380  0.00  0.00    +0.000 A 
ATOM     16  C   UNL     1      -1.654  12.085  19.469  0.00  0.00    +0.000 A 
ATOM     17  C   UNL     1      -2.976  12.464  19.787  0.00  0.00    +0.000 A 
ATOM     18  C   UNL     1      -3.245  13.344  20.976  0.00  0.00    +0.000 C 
BRANCH  11  19
ATOM     19  O   UNL     1      -5.299  12.387  19.314  0.00  0.00    +0.000 OA
BRANCH  19  21
ATOM     20  C   UNL     1      -7.103  11.024  20.131  0.00  0.00    +0.000 C 
ATOM     21  C   UNL     1      -6.332  11.482  18.913  0.00  0.00    +0.000 C 
ENDBRANCH  19  21
ENDBRANCH  11  19
ENDBRANCH   1  15
BRANCH   7  22
ATOM     22  C   UNL     1       2.553   6.530  18.565  0.00  0.00    +0.000 C 
ATOM     23  C   UNL     1       2.232   5.294  19.408  0.00  0.00    +0.000 C 
BRANCH  22  24
ATOM     24  C   UNL     1       4.046   6.702  18.341  0.00  0.00    +0.000 C 
ATOM     25  C   UNL     1       4.913   5.608  17.749  0.00  0.00    +0.000 C 
ATOM     26  C   UNL     1       4.627   6.849  16.953  0.00  0.00    +0.000 C 
ENDBRANCH  22  24
ENDBRANCH   7  22
TORSDOF 5
ENDMDL
MODEL 6
REMARK VINA RESULT:      -6.6      3.555      8.106
REMARK  Name = 
REMARK  9 active torsions:
REMARK  status: ('A' for Active; 'I' for Inactive)
REMARK    1  A    between atoms: C_1  and  C_2
REMARK    2  A    between atoms: C_2  and  O_3
REMARK    3  A    between atoms: O_3  and  C_4
REMARK    4  A    between atoms: C_6  and  C_7
REMARK    5  A    between atoms: C_8  and  N_9
REMARK    6  A    between atoms: N_15  and  C_16
REMARK    7  A    between atoms: C_16  and  C_17
REMARK    8  A    between atoms: C_16  and  C_18
REMARK    9  A    between atoms: C_24  and  C_25
REMARK                            x       y       z     vdW  Elec       q    Type
REMARK                         _______ _______ _______ _____ _____    ______ ____
ROOT
ATOM      1  N   UNL     1       0.018  10.790  18.059  0.00  0.00    +0.000 N 
ATOM      2  C   UNL     1       0.713   9.949  18.935  0.00  0.00    +0.000 A 
ATOM      3  N   UNL     1       0.469   9.932  20.215  0.00  0.00    +0.000 NA
ATOM      4  C   UNL     1       1.077   8.980  20.976  0.00  0.00    +0.000 A 
ATOM      5 CL   UNL     1       0.743   9.037  22.670  0.00  0.00    +0.000 Cl
ATOM      6  C   UNL     1       1.819   7.976  20.488  0.00  0.00    +0.000 A 
ATOM      7  N   UNL     1       2.136   7.893  19.137  0.00  0.00    +0.000 N 
ATOM      8  C   UNL     1       1.792   8.982  18.310  0.00  0.00    +0.000 A 
ATOM      9  O   UNL     1       2.193   9.200  17.186  0.00  0.00    +0.000 OA
ATOM     10  H   UNL     1       0.233  10.624  17.077  0.00  0.00    +0.000 HD
ENDROOT
BRANCH   1  15
ATOM     11  C   UNL     1      -4.122  11.671  18.682  0.00  0.00    +0.000 A 
ATOM     12  C   UNL     1      -3.707  10.822  17.654  0.00  0.00    +0.000 A 
ATOM     13  C   UNL     1      -2.358  10.492  17.445  0.00  0.00    +0.000 A 
ATOM     14  C   UNL     1      -2.092   9.541  16.310  0.00  0.00    +0.000 C 
ATOM     15  C   UNL     1      -1.366  11.101  18.233  0.00  0.00    +0.000 A 
ATOM     16  C   UNL     1      -1.794  11.962  19.269  0.00  0.00    +0.000 A 
ATOM     17  C   UNL     1      -3.156  12.245  19.510  0.00  0.00    +0.000 A 
ATOM     18  C   UNL     1      -3.551  13.147  20.646  0.00  0.00    +0.000 C 
BRANCH  11  19
ATOM     19  O   UNL     1      -5.440  11.964  18.935  0.00  0.00    +0.000 OA
BRANCH  19  21
ATOM     20  C   UNL     1      -6.878  12.803  17.201  0.00  0.00    +0.000 C 
ATOM     21  C   UNL     1      -6.360  11.572  17.912  0.00  0.00    +0.000 C 
ENDBRANCH  19  21
ENDBRANCH  11  19
ENDBRANCH   1  15
BRANCH   7  22
ATOM     22  C   UNL     1       2.843   6.684  18.637  0.00  0.00    +0.000 C 
ATOM     23  C   UNL     1       3.924   6.986  17.598  0.00  0.00    +0.000 C 
BRANCH  22  24
ATOM     24  C   UNL     1       1.840   5.656  18.142  0.00  0.00    +0.000 C 
ATOM     25  C   UNL     1       2.248   4.263  17.703  0.00  0.00    +0.000 C 
ATOM     26  C   UNL     1       1.466   4.449  18.972  0.00  0.00    +0.000 C 
ENDBRANCH  22  24
ENDBRANCH   7  22
TORSDOF 5
ENDMDL
MODEL 7
REMARK VINA RESULT:      -6.6      2.277      3.265
REMARK  Name = 
REMARK  9 active torsions:
REMARK  status: ('A' for Active; 'I' for Inactive)
REMARK    1  A    between atoms: C_1  and  C_2
REMARK    2  A    between atoms: C_2  and  O_3
REMARK    3  A    between atoms: O_3  and  C_4
REMARK    4  A    between atoms: C_6  and  C_7
REMARK    5  A    between atoms: C_8  and  N_9
REMARK    6  A    between atoms: N_15  and  C_16
REMARK    7  A    between atoms: C_16  and  C_17
REMARK    8  A    between atoms: C_16  and  C_18
REMARK    9  A    between atoms: C_24  and  C_25
REMARK                            x       y       z     vdW  Elec       q    Type
REMARK                         _______ _______ _______ _____ _____    ______ ____
ROOT
ATOM      1  N   UNL     1       2.155   9.487  18.567  0.00  0.00    +0.000 N 
ATOM      2  C   UNL     1       0.970  10.214  18.403  0.00  0.00    +0.000 A 
ATOM      3  N   UNL     1      -0.121   9.663  17.953  0.00  0.00    +0.000 NA
ATOM      4  C   UNL     1      -1.269  10.396  17.967  0.00  0.00    +0.000 A 
ATOM      5 CL   UNL     1      -2.671   9.621  17.321  0.00  0.00    +0.000 Cl
ATOM      6  C   UNL     1      -1.389  11.609  18.524  0.00  0.00    +0.000 A 
ATOM      7  N   UNL     1      -0.291  12.287  19.042  0.00  0.00    +0.000 N 
ATOM      8  C   UNL     1       0.988  11.736  18.821  0.00  0.00    +0.000 A 
ATOM      9  O   UNL     1       2.058  12.289  18.972  0.00  0.00    +0.000 OA
ATOM     10  H   UNL     1       2.896  10.014  19.026  0.00  0.00    +0.000 HD
ENDROOT
BRANCH   1  15
ATOM     11  C   UNL     1       2.099   5.377  19.748  0.00  0.00    +0.000 A 
ATOM     12  C   UNL     1       1.724   6.391  20.631  0.00  0.00    +0.000 A 
ATOM     13  C   UNL     1       1.704   7.745  20.262  0.00  0.00    +0.000 A 
ATOM     14  C   UNL     1       1.246   8.702  21.328  0.00  0.00    +0.000 C 
ATOM     15  C   UNL     1       2.163   8.122  18.987  0.00  0.00    +0.000 A 
ATOM     16  C   UNL     1       2.545   7.090  18.100  0.00  0.00    +0.000 A 
ATOM     17  C   UNL     1       2.509   5.725  18.460  0.00  0.00    +0.000 A 
ATOM     18  C   UNL     1       2.901   4.670  17.463  0.00  0.00    +0.000 C 
BRANCH  11  19
ATOM     19  O   UNL     1       2.075   4.043  20.074  0.00  0.00    +0.000 OA
BRANCH  19  21
ATOM     20  C   UNL     1       1.418   2.489  21.787  0.00  0.00    +0.000 C 
ATOM     21  C   UNL     1       2.185   3.753  21.472  0.00  0.00    +0.000 C 
ENDBRANCH  19  21
ENDBRANCH  11  19
ENDBRANCH   1  15
BRANCH   7  22
ATOM     22  C   UNL     1      -0.511  13.565  19.769  0.00  0.00    +0.000 C 
ATOM     23  C   UNL     1      -1.847  13.630  20.513  0.00  0.00    +0.000 C 
BRANCH  22  24
ATOM     24  C   UNL     1      -0.319  14.744  18.829  0.00  0.00    +0.000 C 
ATOM     25  C   UNL     1      -0.293  16.179  19.316  0.00  0.00    +0.000 C 
ATOM     26  C   UNL     1       0.967  15.539  18.809  0.00  0.00    +0.000 C 
ENDBRANCH  22  24
ENDBRANCH   7  22
TORSDOF 5
ENDMDL
MODEL 8
REMARK VINA RESULT:      -6.5      3.448      7.947
REMARK  Name = 
REMARK  9 active torsions:
REMARK  status: ('A' for Active; 'I' for Inactive)
REMARK    1  A    between atoms: C_1  and  C_2
REMARK    2  A    between atoms: C_2  and  O_3
REMARK    3  A    between atoms: O_3  and  C_4
REMARK    4  A    between atoms: C_6  and  C_7
REMARK    5  A    between atoms: C_8  and  N_9
REMARK    6  A    between atoms: N_15  and  C_16
REMARK    7  A    between atoms: C_16  and  C_17
REMARK    8  A    between atoms: C_16  and  C_18
REMARK    9  A    between atoms: C_24  and  C_25
REMARK                            x       y       z     vdW  Elec       q    Type
REMARK                         _______ _______ _______ _____ _____    ______ ____
ROOT
ATOM      1  N   UNL     1       0.583  10.255  17.805  0.00  0.00    +0.000 N 
ATOM      2  C   UNL     1       1.136   9.395  18.761  0.00  0.00    +0.000 A 
ATOM      3  N   UNL     1       0.773   9.429  20.012  0.00  0.00    +0.000 NA
ATOM      4  C   UNL     1       1.244   8.462  20.847  0.00  0.00    +0.000 A 
ATOM      5 CL   UNL     1       0.758   8.586  22.501  0.00  0.00    +0.000 Cl
ATOM      6  C   UNL     1       1.961   7.400  20.454  0.00  0.00    +0.000 A 
ATOM      7  N   UNL     1       2.397   7.260  19.141  0.00  0.00    +0.000 N 
ATOM      8  C   UNL     1       2.204   8.345  18.263  0.00  0.00    +0.000 A 
ATOM      9  O   UNL     1       2.722   8.507  17.177  0.00  0.00    +0.000 OA
ATOM     10  H   UNL     1       0.878  10.048  16.852  0.00  0.00    +0.000 HD
ENDROOT
BRANCH   1  15
ATOM     11  C   UNL     1      -3.512  11.492  17.805  0.00  0.00    +0.000 A 
ATOM     12  C   UNL     1      -2.571  12.095  18.642  0.00  0.00    +0.000 A 
ATOM     13  C   UNL     1      -1.215  11.730  18.642  0.00  0.00    +0.000 A 
ATOM     14  C   UNL     1      -0.335  12.503  19.585  0.00  0.00    +0.000 C 
ATOM     15  C   UNL     1      -0.787  10.656  17.841  0.00  0.00    +0.000 A 
ATOM     16  C   UNL     1      -1.747  10.048  17.000  0.00  0.00    +0.000 A 
ATOM     17  C   UNL     1      -3.097  10.458  16.964  0.00  0.00    +0.000 A 
ATOM     18  C   UNL     1      -4.065   9.791  16.026  0.00  0.00    +0.000 C 
BRANCH  11  19
ATOM     19  O   UNL     1      -4.831  11.871  17.753  0.00  0.00    +0.000 OA
BRANCH  19  21
ATOM     20  C   UNL     1      -6.756  10.715  18.611  0.00  0.00    +0.000 C 
ATOM     21  C   UNL     1      -5.587  11.615  18.941  0.00  0.00    +0.000 C 
ENDBRANCH  19  21
ENDBRANCH  11  19
ENDBRANCH   1  15
BRANCH   7  22
ATOM     22  C   UNL     1       3.067   5.995  18.737  0.00  0.00    +0.000 C 
ATOM     23  C   UNL     1       4.401   6.206  18.017  0.00  0.00    +0.000 C 
BRANCH  22  24
ATOM     24  C   UNL     1       2.111   5.127  17.936  0.00  0.00    +0.000 C 
ATOM     25  C   UNL     1       2.440   3.700  17.543  0.00  0.00    +0.000 C 
ATOM     26  C   UNL     1       1.375   3.968  18.567  0.00  0.00    +0.000 C 
ENDBRANCH  22  24
ENDBRANCH   7  22
TORSDOF 5
ENDMDL
MODEL 9
REMARK VINA RESULT:      -6.5      3.720      5.069
REMARK  Name = 
REMARK  9 active torsions:
REMARK  status: ('A' for Active; 'I' for Inactive)
REMARK    1  A    between atoms: C_1  and  C_2
REMARK    2  A    between atoms: C_2  and  O_3
REMARK    3  A    between atoms: O_3  and  C_4
REMARK    4  A    between atoms: C_6  and  C_7
REMARK    5  A    between atoms: C_8  and  N_9
REMARK    6  A    between atoms: N_15  and  C_16
REMARK    7  A    between atoms: C_16  and  C_17
REMARK    8  A    between atoms: C_16  and  C_18
REMARK    9  A    between atoms: C_24  and  C_25
REMARK                            x       y       z     vdW  Elec       q    Type
REMARK                         _______ _______ _______ _____ _____    ______ ____
ROOT
ATOM      1  N   UNL     1      -0.688  11.284  19.901  0.00  0.00    +0.000 N 
ATOM      2  C   UNL     1      -1.751  11.364  18.994  0.00  0.00    +0.000 A 
ATOM      3  N   UNL     1      -1.668  10.877  17.788  0.00  0.00    +0.000 NA
ATOM      4  C   UNL     1      -2.793  10.857  17.021  0.00  0.00    +0.000 A 
ATOM      5 CL   UNL     1      -2.607  10.235  15.420  0.00  0.00    +0.000 Cl
ATOM      6  C   UNL     1      -4.016  11.192  17.455  0.00  0.00    +0.000 A 
ATOM      7  N   UNL     1      -4.221  11.716  18.727  0.00  0.00    +0.000 N 
ATOM      8  C   UNL     1      -3.085  12.040  19.497  0.00  0.00    +0.000 A 
ATOM      9  O   UNL     1      -3.055  12.719  20.503  0.00  0.00    +0.000 OA
ATOM     10  H   UNL     1      -0.926  11.607  20.837  0.00  0.00    +0.000 HD
ENDROOT
BRANCH   1  15
ATOM     11  C   UNL     1       1.867   7.855  19.989  0.00  0.00    +0.000 A 
ATOM     12  C   UNL     1       1.139   8.247  21.115  0.00  0.00    +0.000 A 
ATOM     13  C   UNL     1       0.270   9.350  21.105  0.00  0.00    +0.000 A 
ATOM     14  C   UNL     1      -0.458   9.613  22.395  0.00  0.00    +0.000 C 
ATOM     15  C   UNL     1       0.186  10.156  19.956  0.00  0.00    +0.000 A 
ATOM     16  C   UNL     1       0.930   9.755  18.823  0.00  0.00    +0.000 A 
ATOM     17  C   UNL     1       1.759   8.612  18.822  0.00  0.00    +0.000 A 
ATOM     18  C   UNL     1       2.504   8.220  17.576  0.00  0.00    +0.000 C 
BRANCH  11  19
ATOM     19  O   UNL     1       2.681   6.749  19.963  0.00  0.00    +0.000 OA
BRANCH  19  21
ATOM     20  C   UNL     1       2.790   4.373  19.610  0.00  0.00    +0.000 C 
ATOM     21  C   UNL     1       2.036   5.508  20.266  0.00  0.00    +0.000 C 
ENDBRANCH  19  21
ENDBRANCH  11  19
ENDBRANCH   1  15
BRANCH   7  22
ATOM     22  C   UNL     1      -5.614  11.937  19.198  0.00  0.00    +0.000 C 
ATOM     23  C   UNL     1      -6.584  10.821  18.803  0.00  0.00    +0.000 C 
BRANCH  22  24
ATOM     24  C   UNL     1      -6.104  13.307  18.761  0.00  0.00    +0.000 C 
ATOM     25  C   UNL     1      -7.342  13.956  19.350  0.00  0.00    +0.000 C 
ATOM     26  C   UNL     1      -5.983  14.516  19.661  0.00  0.00    +0.000 C 
ENDBRANCH  22  24
ENDBRANCH   7  22
TORSDOF 5
ENDMDL
