MODEL 1
REMARK VINA RESULT:      -7.7      0.000      0.000
REMARK  Name = 
REMARK  3 active torsions:
REMARK  status: ('A' for Active; 'I' for Inactive)
REMARK    1  A    between atoms: C_1  and  S_2
REMARK    2  A    between atoms: S_2  and  C_3
REMARK    3  A    between atoms: C_6  and  C_7
REMARK                            x       y       z     vdW  Elec       q    Type
REMARK                         _______ _______ _______ _____ _____    ______ ____
ROOT
ATOM      1  C   UNL     1       3.172   7.470  17.835  0.00  0.00    +0.000 C 
ATOM      2  C   UNL     1       3.526   6.192  17.585  0.00  0.00    +0.000 C 
ATOM      3  C   UNL     1       4.900   5.983  17.118  0.00  0.00    +0.000 C 
ATOM      4  C   UNL     1       5.161   4.677  16.987  0.00  0.00    +0.000 C 
ATOM      5  C   UNL     1       3.983   3.956  17.435  0.00  0.00    +0.000 A 
ATOM      6  C   UNL     1       3.867   2.584  17.593  0.00  0.00    +0.000 A 
ATOM      7  C   UNL     1       2.639   2.077  18.015  0.00  0.00    +0.000 A 
ATOM      8  C   UNL     1       1.558   2.944  18.235  0.00  0.00    +0.000 A 
ATOM      9  C   UNL     1       1.698   4.340  18.112  0.00  0.00    +0.000 A 
ATOM     10  C   UNL     1       2.939   4.851  17.772  0.00  0.00    +0.000 A 
ENDROOT
BRANCH   1  14
ATOM     11  C   UNL     1       0.742   9.783  20.446  0.00  0.00    +0.000 A 
ATOM     12  C   UNL     1       1.203   8.526  20.848  0.00  0.00    +0.000 A 
ATOM     13  C   UNL     1       1.892   7.693  19.957  0.00  0.00    +0.000 A 
ATOM     14  C   UNL     1       2.120   8.093  18.648  0.00  0.00    +0.000 A 
ATOM     15  C   UNL     1       1.612   9.335  18.221  0.00  0.00    +0.000 A 
ATOM     16  C   UNL     1       0.934  10.169  19.115  0.00  0.00    +0.000 A 
BRANCH  11  18
ATOM     17  C   UNL     1      -0.424   9.988  23.009  0.00  0.00    +0.000 C 
ATOM     18  S   UNL     1      -0.054  10.965  21.527  0.00  0.00    +0.000 S 
ENDBRANCH  11  18
ENDBRANCH   1  14
TORSDOF 2
ENDMDL
MODEL 2
REMARK VINA RESULT:      -7.3      0.858      1.529
REMARK  Name = 
REMARK  3 active torsions:
REMARK  status: ('A' for Active; 'I' for Inactive)
REMARK    1  A    between atoms: C_1  and  S_2
REMARK    2  A    between atoms: S_2  and  C_3
REMARK    3  A    between atoms: C_6  and  C_7
REMARK                            x       y       z     vdW  Elec       q    Type
REMARK                         _______ _______ _______ _____ _____    ______ ____
ROOT
ATOM      1  C   UNL     1       3.322   6.775  17.606  0.00  0.00    +0.000 C 
ATOM      2  C   UNL     1       3.315   5.425  17.618  0.00  0.00    +0.000 C 
ATOM      3  C   UNL     1       4.426   4.769  16.921  0.00  0.00    +0.000 C 
ATOM      4  C   UNL     1       4.361   3.441  17.074  0.00  0.00    +0.000 C 
ATOM      5  C   UNL     1       3.234   3.163  17.948  0.00  0.00    +0.000 A 
ATOM      6  C   UNL     1       2.885   1.930  18.474  0.00  0.00    +0.000 A 
ATOM      7  C   UNL     1       1.749   1.863  19.280  0.00  0.00    +0.000 A 
ATOM      8  C   UNL     1       0.980   3.014  19.510  0.00  0.00    +0.000 A 
ATOM      9  C   UNL     1       1.368   4.270  19.004  0.00  0.00    +0.000 A 
ATOM     10  C   UNL     1       2.540   4.354  18.271  0.00  0.00    +0.000 A 
ENDROOT
BRANCH   1  14
ATOM     11  C   UNL     1       0.811   9.309  19.919  0.00  0.00    +0.000 A 
ATOM     12  C   UNL     1       1.172   9.676  18.619  0.00  0.00    +0.000 A 
ATOM     13  C   UNL     1       2.102   8.924  17.890  0.00  0.00    +0.000 A 
ATOM     14  C   UNL     1       2.697   7.802  18.448  0.00  0.00    +0.000 A 
ATOM     15  C   UNL     1       2.380   7.456  19.776  0.00  0.00    +0.000 A 
ATOM     16  C   UNL     1       1.444   8.203  20.498  0.00  0.00    +0.000 A 
BRANCH  11  18
ATOM     17  C   UNL     1      -0.131   9.511  22.572  0.00  0.00    +0.000 C 
ATOM     18  S   UNL     1      -0.438  10.134  20.897  0.00  0.00    +0.000 S 
ENDBRANCH  11  18
ENDBRANCH   1  14
TORSDOF 2
ENDMDL
MODEL 3
REMARK VINA RESULT:      -7.3      3.948      6.239
REMARK  Name = 
REMARK  3 active torsions:
REMARK  status: ('A' for Active; 'I' for Inactive)
REMARK    1  A    between atoms: C_1  and  S_2
REMARK    2  A    between atoms: S_2  and  C_3
REMARK    3  A    between atoms: C_6  and  C_7
REMARK                            x       y       z     vdW  Elec       q    Type
REMARK                         _______ _______ _______ _____ _____    ______ ____
ROOT
ATOM      1  C   UNL     1       4.582   6.054  18.847  0.00  0.00    +0.000 C 
ATOM      2  C   UNL     1       3.508   5.371  19.294  0.00  0.00    +0.000 C 
ATOM      3  C   UNL     1       2.657   6.069  20.263  0.00  0.00    +0.000 C 
ATOM      4  C   UNL     1       1.582   5.331  20.566  0.00  0.00    +0.000 C 
ATOM      5  C   UNL     1       1.639   4.132  19.749  0.00  0.00    +0.000 A 
ATOM      6  C   UNL     1       0.660   3.158  19.646  0.00  0.00    +0.000 A 
ATOM      7  C   UNL     1       0.911   2.064  18.819  0.00  0.00    +0.000 A 
ATOM      8  C   UNL     1       2.138   1.957  18.148  0.00  0.00    +0.000 A 
ATOM      9  C   UNL     1       3.111   2.973  18.227  0.00  0.00    +0.000 A 
ATOM     10  C   UNL     1       2.829   4.099  18.982  0.00  0.00    +0.000 A 
ENDROOT
BRANCH   1  14
ATOM     11  C   UNL     1       6.561   5.080  15.213  0.00  0.00    +0.000 A 
ATOM     12  C   UNL     1       7.118   4.700  16.438  0.00  0.00    +0.000 A 
ATOM     13  C   UNL     1       6.553   5.124  17.648  0.00  0.00    +0.000 A 
ATOM     14  C   UNL     1       5.434   5.944  17.657  0.00  0.00    +0.000 A 
ATOM     15  C   UNL     1       4.900   6.374  16.427  0.00  0.00    +0.000 A 
ATOM     16  C   UNL     1       5.458   5.941  15.221  0.00  0.00    +0.000 A 
BRANCH  11  18
ATOM     17  C   UNL     1       5.733   3.551  12.989  0.00  0.00    +0.000 C 
ATOM     18  S   UNL     1       7.136   4.512  13.618  0.00  0.00    +0.000 S 
ENDBRANCH  11  18
ENDBRANCH   1  14
TORSDOF 2
ENDMDL
MODEL 4
REMARK VINA RESULT:      -7.2      1.325      2.835
REMARK  Name = 
REMARK  3 active torsions:
REMARK  status: ('A' for Active; 'I' for Inactive)
REMARK    1  A    between atoms: C_1  and  S_2
REMARK    2  A    between atoms: S_2  and  C_3
REMARK    3  A    between atoms: C_6  and  C_7
REMARK                            x       y       z     vdW  Elec       q    Type
REMARK                         _______ _______ _______ _____ _____    ______ ____
ROOT
ATOM      1  C   UNL     1       2.595   6.240  19.423  0.00  0.00    +0.000 C 
ATOM      2  C   UNL     1       3.296   5.425  18.606  0.00  0.00    +0.000 C 
ATOM      3  C   UNL     1       3.098   3.986  18.806  0.00  0.00    +0.000 C 
ATOM      4  C   UNL     1       3.774   3.285  17.888  0.00  0.00    +0.000 C 
ATOM      5  C   UNL     1       4.395   4.240  16.988  0.00  0.00    +0.000 A 
ATOM      6  C   UNL     1       5.078   3.946  15.819  0.00  0.00    +0.000 A 
ATOM      7  C   UNL     1       5.625   5.007  15.099  0.00  0.00    +0.000 A 
ATOM      8  C   UNL     1       5.505   6.320  15.579  0.00  0.00    +0.000 A 
ATOM      9  C   UNL     1       4.773   6.612  16.746  0.00  0.00    +0.000 A 
ATOM     10  C   UNL     1       4.160   5.568  17.419  0.00  0.00    +0.000 A 
ENDROOT
BRANCH   1  14
ATOM     11  C   UNL     1       0.612   9.987  19.111  0.00  0.00    +0.000 A 
ATOM     12  C   UNL     1       1.277   9.452  18.004  0.00  0.00    +0.000 A 
ATOM     13  C   UNL     1       2.046   8.287  18.120  0.00  0.00    +0.000 A 
ATOM     14  C   UNL     1       2.176   7.645  19.343  0.00  0.00    +0.000 A 
ATOM     15  C   UNL     1       1.553   8.207  20.473  0.00  0.00    +0.000 A 
ATOM     16  C   UNL     1       0.778   9.364  20.353  0.00  0.00    +0.000 A 
BRANCH  11  18
ATOM     17  C   UNL     1      -0.889  11.682  20.797  0.00  0.00    +0.000 C 
ATOM     18  S   UNL     1      -0.477  11.404  19.053  0.00  0.00    +0.000 S 
ENDBRANCH  11  18
ENDBRANCH   1  14
TORSDOF 2
ENDMDL
MODEL 5
REMARK VINA RESULT:      -7.1      1.340      3.176
REMARK  Name = 
REMARK  3 active torsions:
REMARK  status: ('A' for Active; 'I' for Inactive)
REMARK    1  A    between atoms: C_1  and  S_2
REMARK    2  A    between atoms: S_2  and  C_3
REMARK    3  A    between atoms: C_6  and  C_7
REMARK                            x       y       z     vdW  Elec       q    Type
REMARK                         _______ _______ _______ _____ _____    ______ ____
ROOT
ATOM      1  C   UNL     1       2.420   5.993  18.817  0.00  0.00    +0.000 C 
ATOM      2  C   UNL     1       3.268   5.201  18.126  0.00  0.00    +0.000 C 
ATOM      3  C   UNL     1       2.809   3.832  17.874  0.00  0.00    +0.000 C 
ATOM      4  C   UNL     1       3.690   3.172  17.111  0.00  0.00    +0.000 C 
ATOM      5  C   UNL     1       4.744   4.108  16.763  0.00  0.00    +0.000 A 
ATOM      6  C   UNL     1       5.787   3.882  15.880  0.00  0.00    +0.000 A 
ATOM      7  C   UNL     1       6.717   4.904  15.693  0.00  0.00    +0.000 A 
ATOM      8  C   UNL     1       6.599   6.103  16.413  0.00  0.00    +0.000 A 
ATOM      9  C   UNL     1       5.512   6.338  17.277  0.00  0.00    +0.000 A 
ATOM     10  C   UNL     1       4.543   5.356  17.401  0.00  0.00    +0.000 A 
ENDROOT
BRANCH   1  14
ATOM     11  C   UNL     1       1.168  10.049  19.044  0.00  0.00    +0.000 A 
ATOM     12  C   UNL     1       1.794   9.572  17.888  0.00  0.00    +0.000 A 
ATOM     13  C   UNL     1       2.332   8.280  17.842  0.00  0.00    +0.000 A 
ATOM     14  C   UNL     1       2.267   7.447  18.949  0.00  0.00    +0.000 A 
ATOM     15  C   UNL     1       1.686   7.938  20.134  0.00  0.00    +0.000 A 
ATOM     16  C   UNL     1       1.141   9.225  20.175  0.00  0.00    +0.000 A 
BRANCH  11  18
ATOM     17  C   UNL     1       1.676  12.811  18.762  0.00  0.00    +0.000 C 
ATOM     18  S   UNL     1       0.358  11.638  19.177  0.00  0.00    +0.000 S 
ENDBRANCH  11  18
ENDBRANCH   1  14
TORSDOF 2
ENDMDL
MODEL 6
REMARK VINA RESULT:      -7.1      1.545      2.000
REMARK  Name = 
REMARK  3 active torsions:
REMARK  status: ('A' for Active; 'I' for Inactive)
REMARK    1  A    between atoms: C_1  and  S_2
REMARK    2  A    between atoms: S_2  and  C_3
REMARK    3  A    between atoms: C_6  and  C_7
REMARK                            x       y       z     vdW  Elec       q    Type
REMARK                         _______ _______ _______ _____ _____    ______ ____
ROOT
ATOM      1  C   UNL     1       2.668   6.897  17.948  0.00  0.00    +0.000 C 
ATOM      2  C   UNL     1       2.915   5.615  18.293  0.00  0.00    +0.000 C 
ATOM      3  C   UNL     1       3.833   4.878  17.420  0.00  0.00    +0.000 C 
ATOM      4  C   UNL     1       4.067   3.653  17.908  0.00  0.00    +0.000 C 
ATOM      5  C   UNL     1       3.364   3.553  19.174  0.00  0.00    +0.000 A 
ATOM      6  C   UNL     1       3.442   2.506  20.078  0.00  0.00    +0.000 A 
ATOM      7  C   UNL     1       2.669   2.585  21.236  0.00  0.00    +0.000 A 
ATOM      8  C   UNL     1       1.822   3.684  21.443  0.00  0.00    +0.000 A 
ATOM      9  C   UNL     1       1.782   4.762  20.538  0.00  0.00    +0.000 A 
ATOM     10  C   UNL     1       2.610   4.724  19.428  0.00  0.00    +0.000 A 
ENDROOT
BRANCH   1  14
ATOM     11  C   UNL     1       0.511   9.909  20.031  0.00  0.00    +0.000 A 
ATOM     12  C   UNL     1       0.829  10.082  18.681  0.00  0.00    +0.000 A 
ATOM     13  C   UNL     1       1.651   9.166  18.012  0.00  0.00    +0.000 A 
ATOM     14  C   UNL     1       2.180   8.071  18.681  0.00  0.00    +0.000 A 
ATOM     15  C   UNL     1       1.907   7.919  20.054  0.00  0.00    +0.000 A 
ATOM     16  C   UNL     1       1.079   8.830  20.717  0.00  0.00    +0.000 A 
BRANCH  11  18
ATOM     17  C   UNL     1      -0.477  10.318  22.643  0.00  0.00    +0.000 C 
ATOM     18  S   UNL     1      -0.609  10.957  20.952  0.00  0.00    +0.000 S 
ENDBRANCH  11  18
ENDBRANCH   1  14
TORSDOF 2
ENDMDL
MODEL 7
REMARK VINA RESULT:      -7.0      3.478      5.659
REMARK  Name = 
REMARK  3 active torsions:
REMARK  status: ('A' for Active; 'I' for Inactive)
REMARK    1  A    between atoms: C_1  and  S_2
REMARK    2  A    between atoms: S_2  and  C_3
REMARK    3  A    between atoms: C_6  and  C_7
REMARK                            x       y       z     vdW  Elec       q    Type
REMARK                         _______ _______ _______ _____ _____    ______ ____
ROOT
ATOM      1  C   UNL     1       4.615   3.909  16.729  0.00  0.00    +0.000 C 
ATOM      2  C   UNL     1       3.531   3.607  17.474  0.00  0.00    +0.000 C 
ATOM      3  C   UNL     1       2.966   2.269  17.277  0.00  0.00    +0.000 C 
ATOM      4  C   UNL     1       1.954   2.054  18.128  0.00  0.00    +0.000 C 
ATOM      5  C   UNL     1       1.854   3.224  18.981  0.00  0.00    +0.000 A 
ATOM      6  C   UNL     1       1.029   3.370  20.085  0.00  0.00    +0.000 A 
ATOM      7  C   UNL     1       1.060   4.585  20.767  0.00  0.00    +0.000 A 
ATOM      8  C   UNL     1       1.884   5.626  20.312  0.00  0.00    +0.000 A 
ATOM      9  C   UNL     1       2.749   5.454  19.214  0.00  0.00    +0.000 A 
ATOM     10  C   UNL     1       2.779   4.220  18.585  0.00  0.00    +0.000 A 
ENDROOT
BRANCH   1  14
ATOM     11  C   UNL     1       7.418   6.896  17.863  0.00  0.00    +0.000 A 
ATOM     12  C   UNL     1       6.354   7.220  17.016  0.00  0.00    +0.000 A 
ATOM     13  C   UNL     1       5.498   6.226  16.525  0.00  0.00    +0.000 A 
ATOM     14  C   UNL     1       5.696   4.893  16.858  0.00  0.00    +0.000 A 
ATOM     15  C   UNL     1       6.797   4.554  17.667  0.00  0.00    +0.000 A 
ATOM     16  C   UNL     1       7.645   5.549  18.165  0.00  0.00    +0.000 A 
BRANCH  11  18
ATOM     17  C   UNL     1       8.082   9.639  17.781  0.00  0.00    +0.000 C 
ATOM     18  S   UNL     1       8.505   8.093  18.629  0.00  0.00    +0.000 S 
ENDBRANCH  11  18
ENDBRANCH   1  14
TORSDOF 2
ENDMDL
MODEL 8
REMARK VINA RESULT:      -7.0      1.658      1.717
REMARK  Name = 
REMARK  3 active torsions:
REMARK  status: ('A' for Active; 'I' for Inactive)
REMARK    1  A    between atoms: C_1  and  S_2
REMARK    2  A    between atoms: S_2  and  C_3
REMARK    3  A    between atoms: C_6  and  C_7
REMARK                            x       y       z     vdW  Elec       q    Type
REMARK                         _______ _______ _______ _____ _____    ______ ____
ROOT
ATOM      1  C   UNL     1       2.810   7.187  18.353  0.00  0.00    +0.000 C 
ATOM      2  C   UNL     1       3.142   5.925  18.697  0.00  0.00    +0.000 C 
ATOM      3  C   UNL     1       4.445   5.448  18.220  0.00  0.00    +0.000 C 
ATOM      4  C   UNL     1       4.700   4.222  18.693  0.00  0.00    +0.000 C 
ATOM      5  C   UNL     1       3.601   3.861  19.570  0.00  0.00    +0.000 A 
ATOM      6  C   UNL     1       3.523   2.734  20.371  0.00  0.00    +0.000 A 
ATOM      7  C   UNL     1       2.368   2.551  21.131  0.00  0.00    +0.000 A 
ATOM      8  C   UNL     1       1.316   3.475  21.044  0.00  0.00    +0.000 A 
ATOM      9  C   UNL     1       1.423   4.639  20.258  0.00  0.00    +0.000 A 
ATOM     10  C   UNL     1       2.601   4.864  19.567  0.00  0.00    +0.000 A 
ENDROOT
BRANCH   1  14
ATOM     11  C   UNL     1       0.775  10.500  20.070  0.00  0.00    +0.000 A 
ATOM     12  C   UNL     1       1.006   9.349  20.830  0.00  0.00    +0.000 A 
ATOM     13  C   UNL     1       1.555   8.200  20.247  0.00  0.00    +0.000 A 
ATOM     14  C   UNL     1       1.869   8.174  18.895  0.00  0.00    +0.000 A 
ATOM     15  C   UNL     1       1.590   9.311  18.113  0.00  0.00    +0.000 A 
ATOM     16  C   UNL     1       1.051  10.460  18.699  0.00  0.00    +0.000 A 
BRANCH  11  18
ATOM     17  C   UNL     1      -0.677  11.550  22.252  0.00  0.00    +0.000 C 
ATOM     18  S   UNL     1       0.178  12.050  20.733  0.00  0.00    +0.000 S 
ENDBRANCH  11  18
ENDBRANCH   1  14
TORSDOF 2
ENDMDL
MODEL 9
REMARK VINA RESULT:      -6.9      2.549      6.805
REMARK  Name = 
REMARK  3 active torsions:
REMARK  status: ('A' for Active; 'I' for Inactive)
REMARK    1  A    between atoms: C_1  and  S_2
REMARK    2  A    between atoms: S_2  and  C_3
REMARK    3  A    between atoms: C_6  and  C_7
REMARK                            x       y       z     vdW  Elec       q    Type
REMARK                         _______ _______ _______ _____ _____    ______ ____
ROOT
ATOM      1  C   UNL     1       2.111   8.123  18.660  0.00  0.00    +0.000 C 
ATOM      2  C   UNL     1       1.416   9.111  19.263  0.00  0.00    +0.000 C 
ATOM      3  C   UNL     1       0.952  10.197  18.393  0.00  0.00    +0.000 C 
ATOM      4  C   UNL     1       0.207  11.068  19.083  0.00  0.00    +0.000 C 
ATOM      5  C   UNL     1       0.083  10.554  20.435  0.00  0.00    +0.000 A 
ATOM      6  C   UNL     1      -0.712  11.072  21.443  0.00  0.00    +0.000 A 
ATOM      7  C   UNL     1      -0.678  10.445  22.688  0.00  0.00    +0.000 A 
ATOM      8  C   UNL     1       0.169   9.346  22.900  0.00  0.00    +0.000 A 
ATOM      9  C   UNL     1       0.942   8.802  21.856  0.00  0.00    +0.000 A 
ATOM     10  C   UNL     1       0.847   9.373  20.598  0.00  0.00    +0.000 A 
ENDROOT
BRANCH   1  14
ATOM     11  C   UNL     1       2.212   3.927  19.332  0.00  0.00    +0.000 A 
ATOM     12  C   UNL     1       1.895   4.797  20.380  0.00  0.00    +0.000 A 
ATOM     13  C   UNL     1       1.985   6.185  20.214  0.00  0.00    +0.000 A 
ATOM     14  C   UNL     1       2.405   6.728  19.008  0.00  0.00    +0.000 A 
ATOM     15  C   UNL     1       2.778   5.857  17.967  0.00  0.00    +0.000 A 
ATOM     16  C   UNL     1       2.677   4.473  18.130  0.00  0.00    +0.000 A 
BRANCH  11  18
ATOM     17  C   UNL     1       3.455   1.552  18.447  0.00  0.00    +0.000 C 
ATOM     18  S   UNL     1       2.033   2.149  19.401  0.00  0.00    +0.000 S 
ENDBRANCH  11  18
ENDBRANCH   1  14
TORSDOF 2
ENDMDL
