MODEL 1
REMARK VINA RESULT:      -7.9      0.000      0.000
REMARK  Name = 
REMARK  3 active torsions:
REMARK  status: ('A' for Active; 'I' for Inactive)
REMARK    1  A    between atoms: C_2  and  C_14
REMARK    2  A    between atoms: N_3  and  C_4
REMARK    3  A    between atoms: C_4  and  C_5
REMARK                            x       y       z     vdW  Elec       q    Type
REMARK                         _______ _______ _______ _____ _____    ______ ____
ROOT
ATOM      1  O   UNL     1       2.013   5.693  18.302  0.00  0.00    +0.000 OA
ATOM      2  C   UNL     1       2.543   6.362  19.181  0.00  0.00    +0.000 C 
ATOM      3  N   UNL     1       3.721   6.016  19.803  0.00  0.00    +0.000 N 
ATOM      4  H   UNL     1       4.022   6.505  20.634  0.00  0.00    +0.000 HD
ENDROOT
BRANCH   2   5
ATOM      5  C   UNL     1       1.886   7.620  19.625  0.00  0.00    +0.000 A 
ATOM      6  C   UNL     1       1.706   8.633  18.675  0.00  0.00    +0.000 A 
ATOM      7  C   UNL     1       1.173   9.876  19.029  0.00  0.00    +0.000 A 
ATOM      8  C   UNL     1       0.844  10.077  20.375  0.00  0.00    +0.000 A 
ATOM      9  S   UNL     1       0.211  11.462  21.183  0.00  0.00    +0.000 S 
ATOM     10  N   UNL     1       0.198  10.713  22.677  0.00  0.00    +0.000 NA
ATOM     11  N   UNL     1       0.639   9.468  22.635  0.00  0.00    +0.000 NA
ATOM     12  C   UNL     1       1.010   9.088  21.349  0.00  0.00    +0.000 A 
ATOM     13  C   UNL     1       1.535   7.834  20.967  0.00  0.00    +0.000 A 
ENDBRANCH   2   5
BRANCH   3  14
ATOM     14  C   UNL     1       4.432   4.812  19.429  0.00  0.00    +0.000 C 
BRANCH  14  15
ATOM     15  C   UNL     1       5.289   5.004  18.202  0.00  0.00    +0.000 A 
ATOM     16  C   UNL     1       6.418   5.857  18.250  0.00  0.00    +0.000 A 
ATOM     17  C   UNL     1       7.249   6.024  17.137  0.00  0.00    +0.000 A 
ATOM     18  C   UNL     1       6.924   5.338  15.988  0.00  0.00    +0.000 A 
ATOM     19  C   UNL     1       5.821   4.520  15.923  0.00  0.00    +0.000 A 
ATOM     20  C   UNL     1       4.983   4.334  17.006  0.00  0.00    +0.000 A 
ATOM     21  O   UNL     1       5.680   3.937  14.702  0.00  0.00    +0.000 OA
ATOM     22  C   UNL     1       6.808   4.502  14.001  0.00  0.00    +0.000 C 
ATOM     23  O   UNL     1       7.616   5.372  14.819  0.00  0.00    +0.000 OA
ENDBRANCH  14  15
ENDBRANCH   3  14
TORSDOF 3
ENDMDL
MODEL 2
REMARK VINA RESULT:      -7.7      3.811      8.185
REMARK  Name = 
REMARK  3 active torsions:
REMARK  status: ('A' for Active; 'I' for Inactive)
REMARK    1  A    between atoms: C_2  and  C_14
REMARK    2  A    between atoms: N_3  and  C_4
REMARK    3  A    between atoms: C_4  and  C_5
REMARK                            x       y       z     vdW  Elec       q    Type
REMARK                         _______ _______ _______ _____ _____    ______ ____
ROOT
ATOM      1  O   UNL     1       1.436   4.764  19.240  0.00  0.00    +0.000 OA
ATOM      2  C   UNL     1       2.380   5.542  19.173  0.00  0.00    +0.000 C 
ATOM      3  N   UNL     1       2.517   6.652  19.974  0.00  0.00    +0.000 N 
ATOM      4  H   UNL     1       3.216   7.350  19.765  0.00  0.00    +0.000 HD
ENDROOT
BRANCH   2   5
ATOM      5  C   UNL     1       3.447   5.296  18.167  0.00  0.00    +0.000 A 
ATOM      6  C   UNL     1       3.453   4.061  17.510  0.00  0.00    +0.000 A 
ATOM      7  C   UNL     1       4.468   3.718  16.612  0.00  0.00    +0.000 A 
ATOM      8  C   UNL     1       5.493   4.652  16.409  0.00  0.00    +0.000 A 
ATOM      9  S   UNL     1       6.907   4.574  15.428  0.00  0.00    +0.000 S 
ATOM     10  N   UNL     1       7.431   6.095  15.881  0.00  0.00    +0.000 NA
ATOM     11  N   UNL     1       6.616   6.690  16.736  0.00  0.00    +0.000 NA
ATOM     12  C   UNL     1       5.517   5.895  17.049  0.00  0.00    +0.000 A 
ATOM     13  C   UNL     1       4.473   6.227  17.940  0.00  0.00    +0.000 A 
ENDBRANCH   2   5
BRANCH   3  14
ATOM     14  C   UNL     1       1.530   6.964  20.986  0.00  0.00    +0.000 C 
BRANCH  14  15
ATOM     15  C   UNL     1       1.078   8.404  20.930  0.00  0.00    +0.000 A 
ATOM     16  C   UNL     1       1.122   9.114  19.706  0.00  0.00    +0.000 A 
ATOM     17  C   UNL     1       0.676  10.437  19.619  0.00  0.00    +0.000 A 
ATOM     18  C   UNL     1       0.203  11.029  20.769  0.00  0.00    +0.000 A 
ATOM     19  C   UNL     1       0.171  10.356  21.967  0.00  0.00    +0.000 A 
ATOM     20  C   UNL     1       0.603   9.049  22.083  0.00  0.00    +0.000 A 
ATOM     21  O   UNL     1      -0.333  11.117  22.976  0.00  0.00    +0.000 OA
ATOM     22  C   UNL     1      -0.589  12.354  22.278  0.00  0.00    +0.000 C 
ATOM     23  O   UNL     1      -0.276  12.297  20.872  0.00  0.00    +0.000 OA
ENDBRANCH  14  15
ENDBRANCH   3  14
TORSDOF 3
ENDMDL
MODEL 3
REMARK VINA RESULT:      -7.7      3.892      8.375
REMARK  Name = 
REMARK  3 active torsions:
REMARK  status: ('A' for Active; 'I' for Inactive)
REMARK    1  A    between atoms: C_2  and  C_14
REMARK    2  A    between atoms: N_3  and  C_4
REMARK    3  A    between atoms: C_4  and  C_5
REMARK                            x       y       z     vdW  Elec       q    Type
REMARK                         _______ _______ _______ _____ _____    ______ ____
ROOT
ATOM      1  O   UNL     1       2.310   4.636  20.695  0.00  0.00    +0.000 OA
ATOM      2  C   UNL     1       2.720   5.594  20.048  0.00  0.00    +0.000 C 
ATOM      3  N   UNL     1       2.263   6.881  20.212  0.00  0.00    +0.000 N 
ATOM      4  H   UNL     1       2.504   7.597  19.542  0.00  0.00    +0.000 HD
ENDROOT
BRANCH   2   5
ATOM      5  C   UNL     1       3.765   5.371  19.014  0.00  0.00    +0.000 A 
ATOM      6  C   UNL     1       3.346   5.202  17.689  0.00  0.00    +0.000 A 
ATOM      7  C   UNL     1       4.257   4.905  16.671  0.00  0.00    +0.000 A 
ATOM      8  C   UNL     1       5.603   4.764  17.029  0.00  0.00    +0.000 A 
ATOM      9  S   UNL     1       6.985   4.371  16.077  0.00  0.00    +0.000 S 
ATOM     10  N   UNL     1       8.030   4.436  17.380  0.00  0.00    +0.000 NA
ATOM     11  N   UNL     1       7.423   4.738  18.515  0.00  0.00    +0.000 NA
ATOM     12  C   UNL     1       6.055   4.926  18.342  0.00  0.00    +0.000 A 
ATOM     13  C   UNL     1       5.120   5.241  19.353  0.00  0.00    +0.000 A 
ENDBRANCH   2   5
BRANCH   3  14
ATOM     14  C   UNL     1       1.253   7.190  21.201  0.00  0.00    +0.000 C 
BRANCH  14  15
ATOM     15  C   UNL     1       0.823   8.637  21.157  0.00  0.00    +0.000 A 
ATOM     16  C   UNL     1       0.921   9.369  19.950  0.00  0.00    +0.000 A 
ATOM     17  C   UNL     1       0.496  10.701  19.873  0.00  0.00    +0.000 A 
ATOM     18  C   UNL     1      -0.010  11.276  21.016  0.00  0.00    +0.000 A 
ATOM     19  C   UNL     1      -0.095  10.581  22.199  0.00  0.00    +0.000 A 
ATOM     20  C   UNL     1       0.315   9.266  22.305  0.00  0.00    +0.000 A 
ATOM     21  O   UNL     1      -0.624  11.330  23.204  0.00  0.00    +0.000 OA
ATOM     22  C   UNL     1      -0.839  12.584  22.522  0.00  0.00    +0.000 C 
ATOM     23  O   UNL     1      -0.476  12.549  21.126  0.00  0.00    +0.000 OA
ENDBRANCH  14  15
ENDBRANCH   3  14
TORSDOF 3
ENDMDL
MODEL 4
REMARK VINA RESULT:      -7.7      4.328      8.346
REMARK  Name = 
REMARK  3 active torsions:
REMARK  status: ('A' for Active; 'I' for Inactive)
REMARK    1  A    between atoms: C_2  and  C_14
REMARK    2  A    between atoms: N_3  and  C_4
REMARK    3  A    between atoms: C_4  and  C_5
REMARK                            x       y       z     vdW  Elec       q    Type
REMARK                         _______ _______ _______ _____ _____    ______ ____
ROOT
ATOM      1  O   UNL     1       1.837   7.620  20.503  0.00  0.00    +0.000 OA
ATOM      2  C   UNL     1       1.989   7.907  19.321  0.00  0.00    +0.000 C 
ATOM      3  N   UNL     1       1.494   9.051  18.739  0.00  0.00    +0.000 N 
ATOM      4  H   UNL     1       1.496   9.155  17.734  0.00  0.00    +0.000 HD
ENDROOT
BRANCH   2   5
ATOM      5  C   UNL     1       2.742   6.971  18.444  0.00  0.00    +0.000 A 
ATOM      6  C   UNL     1       2.471   5.603  18.563  0.00  0.00    +0.000 A 
ATOM      7  C   UNL     1       3.193   4.652  17.836  0.00  0.00    +0.000 A 
ATOM      8  C   UNL     1       4.212   5.118  16.996  0.00  0.00    +0.000 A 
ATOM      9  S   UNL     1       5.321   4.263  15.991  0.00  0.00    +0.000 S 
ATOM     10  N   UNL     1       6.077   5.657  15.462  0.00  0.00    +0.000 NA
ATOM     11  N   UNL     1       5.560   6.756  15.985  0.00  0.00    +0.000 NA
ATOM     12  C   UNL     1       4.509   6.477  16.853  0.00  0.00    +0.000 A 
ATOM     13  C   UNL     1       3.757   7.422  17.585  0.00  0.00    +0.000 A 
ENDBRANCH   2   5
BRANCH   3  14
ATOM     14  C   UNL     1       0.756  10.021  19.520  0.00  0.00    +0.000 C 
BRANCH  14  15
ATOM     15  C   UNL     1      -0.532  10.441  18.854  0.00  0.00    +0.000 A 
ATOM     16  C   UNL     1      -1.379  11.387  19.480  0.00  0.00    +0.000 A 
ATOM     17  C   UNL     1      -2.561  11.820  18.868  0.00  0.00    +0.000 A 
ATOM     18  C   UNL     1      -2.877  11.284  17.640  0.00  0.00    +0.000 A 
ATOM     19  C   UNL     1      -2.071  10.352  17.029  0.00  0.00    +0.000 A 
ATOM     20  C   UNL     1      -0.899   9.907  17.608  0.00  0.00    +0.000 A 
ATOM     21  O   UNL     1      -2.562   9.954  15.824  0.00  0.00    +0.000 OA
ATOM     22  C   UNL     1      -3.780  10.724  15.760  0.00  0.00    +0.000 C 
ATOM     23  O   UNL     1      -3.974  11.591  16.897  0.00  0.00    +0.000 OA
ENDBRANCH  14  15
ENDBRANCH   3  14
TORSDOF 3
ENDMDL
MODEL 5
REMARK VINA RESULT:      -7.6      1.294      1.670
REMARK  Name = 
REMARK  3 active torsions:
REMARK  status: ('A' for Active; 'I' for Inactive)
REMARK    1  A    between atoms: C_2  and  C_14
REMARK    2  A    between atoms: N_3  and  C_4
REMARK    3  A    between atoms: C_4  and  C_5
REMARK                            x       y       z     vdW  Elec       q    Type
REMARK                         _______ _______ _______ _____ _____    ______ ____
ROOT
ATOM      1  O   UNL     1       1.849   5.365  18.528  0.00  0.00    +0.000 OA
ATOM      2  C   UNL     1       2.508   6.049  19.303  0.00  0.00    +0.000 C 
ATOM      3  N   UNL     1       3.726   5.668  19.817  0.00  0.00    +0.000 N 
ATOM      4  H   UNL     1       4.142   6.185  20.579  0.00  0.00    +0.000 HD
ENDROOT
BRANCH   2   5
ATOM      5  C   UNL     1       1.973   7.369  19.733  0.00  0.00    +0.000 A 
ATOM      6  C   UNL     1       1.475   7.478  21.037  0.00  0.00    +0.000 A 
ATOM      7  C   UNL     1       0.879   8.658  21.491  0.00  0.00    +0.000 A 
ATOM      8  C   UNL     1       0.780   9.722  20.586  0.00  0.00    +0.000 A 
ATOM      9  S   UNL     1       0.089  11.290  20.765  0.00  0.00    +0.000 S 
ATOM     10  N   UNL     1       0.453  11.744  19.198  0.00  0.00    +0.000 NA
ATOM     11  N   UNL     1       1.073  10.795  18.516  0.00  0.00    +0.000 NA
ATOM     12  C   UNL     1       1.267   9.647  19.277  0.00  0.00    +0.000 A 
ATOM     13  C   UNL     1       1.880   8.451  18.844  0.00  0.00    +0.000 A 
ENDBRANCH   2   5
BRANCH   3  14
ATOM     14  C   UNL     1       4.325   4.404  19.447  0.00  0.00    +0.000 C 
BRANCH  14  15
ATOM     15  C   UNL     1       5.244   4.526  18.256  0.00  0.00    +0.000 A 
ATOM     16  C   UNL     1       6.613   4.835  18.444  0.00  0.00    +0.000 A 
ATOM     17  C   UNL     1       7.494   4.919  17.360  0.00  0.00    +0.000 A 
ATOM     18  C   UNL     1       6.980   4.701  16.101  0.00  0.00    +0.000 A 
ATOM     19  C   UNL     1       5.649   4.417  15.903  0.00  0.00    +0.000 A 
ATOM     20  C   UNL     1       4.757   4.326  16.954  0.00  0.00    +0.000 A 
ATOM     21  O   UNL     1       5.349   4.235  14.589  0.00  0.00    +0.000 OA
ATOM     22  C   UNL     1       6.638   4.463  13.983  0.00  0.00    +0.000 C 
ATOM     23  O   UNL     1       7.684   4.734  14.939  0.00  0.00    +0.000 OA
ENDBRANCH  14  15
ENDBRANCH   3  14
TORSDOF 3
ENDMDL
MODEL 6
REMARK VINA RESULT:      -7.4      2.629      3.657
REMARK  Name = 
REMARK  3 active torsions:
REMARK  status: ('A' for Active; 'I' for Inactive)
REMARK    1  A    between atoms: C_2  and  C_14
REMARK    2  A    between atoms: N_3  and  C_4
REMARK    3  A    between atoms: C_4  and  C_5
REMARK                            x       y       z     vdW  Elec       q    Type
REMARK                         _______ _______ _______ _____ _____    ______ ____
ROOT
ATOM      1  O   UNL     1       1.666   9.356  17.058  0.00  0.00    +0.000 OA
ATOM      2  C   UNL     1       1.762   8.999  18.227  0.00  0.00    +0.000 C 
ATOM      3  N   UNL     1       2.626   8.020  18.661  0.00  0.00    +0.000 N 
ATOM      4  H   UNL     1       2.544   7.645  19.595  0.00  0.00    +0.000 HD
ENDROOT
BRANCH   2   5
ATOM      5  C   UNL     1       0.896   9.642  19.250  0.00  0.00    +0.000 A 
ATOM      6  C   UNL     1      -0.004  10.624  18.821  0.00  0.00    +0.000 A 
ATOM      7  C   UNL     1      -0.794  11.335  19.729  0.00  0.00    +0.000 A 
ATOM      8  C   UNL     1      -0.637  11.041  21.089  0.00  0.00    +0.000 A 
ATOM      9  S   UNL     1      -1.392  11.720  22.481  0.00  0.00    +0.000 S 
ATOM     10  N   UNL     1      -0.549  10.743  23.544  0.00  0.00    +0.000 NA
ATOM     11  N   UNL     1       0.283   9.916  22.936  0.00  0.00    +0.000 NA
ATOM     12  C   UNL     1       0.252  10.065  21.553  0.00  0.00    +0.000 A 
ATOM     13  C   UNL     1       1.029   9.348  20.616  0.00  0.00    +0.000 A 
ENDBRANCH   2   5
BRANCH   3  14
ATOM     14  C   UNL     1       3.512   7.347  17.734  0.00  0.00    +0.000 C 
BRANCH  14  15
ATOM     15  C   UNL     1       3.339   5.848  17.755  0.00  0.00    +0.000 A 
ATOM     16  C   UNL     1       4.316   5.013  17.160  0.00  0.00    +0.000 A 
ATOM     17  C   UNL     1       4.198   3.619  17.196  0.00  0.00    +0.000 A 
ATOM     18  C   UNL     1       3.092   3.088  17.821  0.00  0.00    +0.000 A 
ATOM     19  C   UNL     1       2.128   3.887  18.388  0.00  0.00    +0.000 A 
ATOM     20  C   UNL     1       2.219   5.266  18.369  0.00  0.00    +0.000 A 
ATOM     21  O   UNL     1       1.124   3.166  18.954  0.00  0.00    +0.000 OA
ATOM     22  C   UNL     1       1.555   1.822  18.656  0.00  0.00    +0.000 C 
ATOM     23  O   UNL     1       2.816   1.763  17.959  0.00  0.00    +0.000 OA
ENDBRANCH  14  15
ENDBRANCH   3  14
TORSDOF 3
ENDMDL
MODEL 7
REMARK VINA RESULT:      -7.4      3.759      8.153
REMARK  Name = 
REMARK  3 active torsions:
REMARK  status: ('A' for Active; 'I' for Inactive)
REMARK    1  A    between atoms: C_2  and  C_14
REMARK    2  A    between atoms: N_3  and  C_4
REMARK    3  A    between atoms: C_4  and  C_5
REMARK                            x       y       z     vdW  Elec       q    Type
REMARK                         _______ _______ _______ _____ _____    ______ ____
ROOT
ATOM      1  O   UNL     1       2.318   4.931  20.554  0.00  0.00    +0.000 OA
ATOM      2  C   UNL     1       2.710   5.967  20.027  0.00  0.00    +0.000 C 
ATOM      3  N   UNL     1       2.191   7.211  20.302  0.00  0.00    +0.000 N 
ATOM      4  H   UNL     1       2.427   8.002  19.720  0.00  0.00    +0.000 HD
ENDROOT
BRANCH   2   5
ATOM      5  C   UNL     1       3.803   5.894  19.021  0.00  0.00    +0.000 A 
ATOM      6  C   UNL     1       3.564   6.443  17.756  0.00  0.00    +0.000 A 
ATOM      7  C   UNL     1       4.506   6.342  16.729  0.00  0.00    +0.000 A 
ATOM      8  C   UNL     1       5.694   5.653  17.008  0.00  0.00    +0.000 A 
ATOM      9  S   UNL     1       7.049   5.297  16.005  0.00  0.00    +0.000 S 
ATOM     10  N   UNL     1       7.859   4.475  17.214  0.00  0.00    +0.000 NA
ATOM     11  N   UNL     1       7.188   4.437  18.352  0.00  0.00    +0.000 NA
ATOM     12  C   UNL     1       5.965   5.094  18.260  0.00  0.00    +0.000 A 
ATOM     13  C   UNL     1       5.005   5.221  19.288  0.00  0.00    +0.000 A 
ENDBRANCH   2   5
BRANCH   3  14
ATOM     14  C   UNL     1       1.131   7.375  21.274  0.00  0.00    +0.000 C 
BRANCH  14  15
ATOM     15  C   UNL     1       0.620   8.794  21.338  0.00  0.00    +0.000 A 
ATOM     16  C   UNL     1      -0.020   9.266  22.510  0.00  0.00    +0.000 A 
ATOM     17  C   UNL     1      -0.471  10.587  22.609  0.00  0.00    +0.000 A 
ATOM     18  C   UNL     1      -0.280  11.409  21.521  0.00  0.00    +0.000 A 
ATOM     19  C   UNL     1       0.324  10.959  20.371  0.00  0.00    +0.000 A 
ATOM     20  C   UNL     1       0.781   9.662  20.245  0.00  0.00    +0.000 A 
ATOM     21  O   UNL     1       0.416  11.928  19.421  0.00  0.00    +0.000 OA
ATOM     22  C   UNL     1      -0.223  13.031  20.097  0.00  0.00    +0.000 C 
ATOM     23  O   UNL     1      -0.644  12.717  21.440  0.00  0.00    +0.000 OA
ENDBRANCH  14  15
ENDBRANCH   3  14
TORSDOF 3
ENDMDL
MODEL 8
REMARK VINA RESULT:      -7.4      3.709      7.902
REMARK  Name = 
REMARK  3 active torsions:
REMARK  status: ('A' for Active; 'I' for Inactive)
REMARK    1  A    between atoms: C_2  and  C_14
REMARK    2  A    between atoms: N_3  and  C_4
REMARK    3  A    between atoms: C_4  and  C_5
REMARK                            x       y       z     vdW  Elec       q    Type
REMARK                         _______ _______ _______ _____ _____    ______ ____
ROOT
ATOM      1  O   UNL     1       1.914   4.596  19.802  0.00  0.00    +0.000 OA
ATOM      2  C   UNL     1       2.591   5.538  19.405  0.00  0.00    +0.000 C 
ATOM      3  N   UNL     1       2.491   6.816  19.904  0.00  0.00    +0.000 N 
ATOM      4  H   UNL     1       2.941   7.586  19.428  0.00  0.00    +0.000 HD
ENDROOT
BRANCH   2   5
ATOM      5  C   UNL     1       3.575   5.309  18.314  0.00  0.00    +0.000 A 
ATOM      6  C   UNL     1       3.463   4.130  17.570  0.00  0.00    +0.000 A 
ATOM      7  C   UNL     1       4.397   3.800  16.584  0.00  0.00    +0.000 A 
ATOM      8  C   UNL     1       5.462   4.686  16.381  0.00  0.00    +0.000 A 
ATOM      9  S   UNL     1       6.804   4.604  15.303  0.00  0.00    +0.000 S 
ATOM     10  N   UNL     1       7.449   6.053  15.830  0.00  0.00    +0.000 NA
ATOM     11  N   UNL     1       6.728   6.626  16.778  0.00  0.00    +0.000 NA
ATOM     12  C   UNL     1       5.604   5.874  17.106  0.00  0.00    +0.000 A 
ATOM     13  C   UNL     1       4.640   6.195  18.087  0.00  0.00    +0.000 A 
ENDBRANCH   2   5
BRANCH   3  14
ATOM     14  C   UNL     1       1.565   7.127  20.972  0.00  0.00    +0.000 C 
BRANCH  14  15
ATOM     15  C   UNL     1       1.004   8.524  20.862  0.00  0.00    +0.000 A 
ATOM     16  C   UNL     1       0.266   9.079  21.936  0.00  0.00    +0.000 A 
ATOM     17  C   UNL     1      -0.235  10.384  21.875  0.00  0.00    +0.000 A 
ATOM     18  C   UNL     1       0.006  11.107  20.728  0.00  0.00    +0.000 A 
ATOM     19  C   UNL     1       0.706  10.574  19.672  0.00  0.00    +0.000 A 
ATOM     20  C   UNL     1       1.214   9.290  19.704  0.00  0.00    +0.000 A 
ATOM     21  O   UNL     1       0.834  11.452  18.640  0.00  0.00    +0.000 OA
ATOM     22  C   UNL     1       0.111  12.587  19.160  0.00  0.00    +0.000 C 
ATOM     23  O   UNL     1      -0.395  12.385  20.495  0.00  0.00    +0.000 OA
ENDBRANCH  14  15
ENDBRANCH   3  14
TORSDOF 3
ENDMDL
MODEL 9
REMARK VINA RESULT:      -7.3      3.921      8.310
REMARK  Name = 
REMARK  3 active torsions:
REMARK  status: ('A' for Active; 'I' for Inactive)
REMARK    1  A    between atoms: C_2  and  C_14
REMARK    2  A    between atoms: N_3  and  C_4
REMARK    3  A    between atoms: C_4  and  C_5
REMARK                            x       y       z     vdW  Elec       q    Type
REMARK                         _______ _______ _______ _____ _____    ______ ____
ROOT
ATOM      1  O   UNL     1       1.609   5.306  20.415  0.00  0.00    +0.000 OA
ATOM      2  C   UNL     1       2.278   6.082  19.742  0.00  0.00    +0.000 C 
ATOM      3  N   UNL     1       2.290   7.445  19.928  0.00  0.00    +0.000 N 
ATOM      4  H   UNL     1       2.719   8.050  19.243  0.00  0.00    +0.000 HD
ENDROOT
BRANCH   2   5
ATOM      5  C   UNL     1       3.127   5.539  18.647  0.00  0.00    +0.000 A 
ATOM      6  C   UNL     1       3.331   4.156  18.604  0.00  0.00    +0.000 A 
ATOM      7  C   UNL     1       4.182   3.575  17.659  0.00  0.00    +0.000 A 
ATOM      8  C   UNL     1       4.838   4.433  16.767  0.00  0.00    +0.000 A 
ATOM      9  S   UNL     1       5.969   4.098  15.511  0.00  0.00    +0.000 S 
ATOM     10  N   UNL     1       6.138   5.707  15.092  0.00  0.00    +0.000 NA
ATOM     11  N   UNL     1       5.396   6.514  15.831  0.00  0.00    +0.000 NA
ATOM     12  C   UNL     1       4.656   5.819  16.782  0.00  0.00    +0.000 A 
ATOM     13  C   UNL     1       3.780   6.383  17.736  0.00  0.00    +0.000 A 
ENDBRANCH   2   5
BRANCH   3  14
ATOM     14  C   UNL     1       1.501   8.058  20.975  0.00  0.00    +0.000 C 
BRANCH  14  15
ATOM     15  C   UNL     1       0.726   9.258  20.489  0.00  0.00    +0.000 A 
ATOM     16  C   UNL     1       0.817   9.660  19.134  0.00  0.00    +0.000 A 
ATOM     17  C   UNL     1       0.082  10.747  18.649  0.00  0.00    +0.000 A 
ATOM     18  C   UNL     1      -0.726  11.420  19.538  0.00  0.00    +0.000 A 
ATOM     19  C   UNL     1      -0.810  11.051  20.860  0.00  0.00    +0.000 A 
ATOM     20  C   UNL     1      -0.098   9.981  21.367  0.00  0.00    +0.000 A 
ATOM     21  O   UNL     1      -1.662  11.842  21.566  0.00  0.00    +0.000 OA
ATOM     22  C   UNL     1      -2.084  12.766  20.541  0.00  0.00    +0.000 C 
ATOM     23  O   UNL     1      -1.514  12.489  19.246  0.00  0.00    +0.000 OA
ENDBRANCH  14  15
ENDBRANCH   3  14
TORSDOF 3
ENDMDL
