MODEL 1
REMARK VINA RESULT:      -7.4      0.000      0.000
REMARK  Name = 
REMARK  7 active torsions:
REMARK  status: ('A' for Active; 'I' for Inactive)
REMARK    1  A    between atoms: C_1  and  C_2
REMARK    2  A    between atoms: C_2  and  C_3
REMARK    3  A    between atoms: C_3  and  C_4
REMARK    4  A    between atoms: C_4  and  N_5
REMARK    5  A    between atoms: C_6  and  S_7
REMARK    6  A    between atoms: S_7  and  C_8
REMARK    7  A    between atoms: C_8  and  C_9
REMARK                            x       y       z     vdW  Elec       q    Type
REMARK                         _______ _______ _______ _____ _____    ______ ____
ROOT
ATOM      1  N   UNL     1       4.080   5.945  17.219  0.00  0.00    +0.000 N 
ATOM      2  C   UNL     1       2.981   6.422  17.946  0.00  0.00    +0.000 A 
ATOM      3  N   UNL     1       2.175   5.665  18.613  0.00  0.00    +0.000 NA
ATOM      4  C   UNL     1       2.425   4.287  18.637  0.00  0.00    +0.000 A 
ATOM      5  C   UNL     1       1.639   3.464  19.447  0.00  0.00    +0.000 A 
ATOM      6  C   UNL     1       1.799   2.075  19.436  0.00  0.00    +0.000 A 
ATOM      7  C   UNL     1       2.761   1.490  18.617  0.00  0.00    +0.000 A 
ATOM      8  C   UNL     1       3.587   2.295  17.842  0.00  0.00    +0.000 A 
ATOM      9  C   UNL     1       3.424   3.686  17.870  0.00  0.00    +0.000 A 
ATOM     10  C   UNL     1       4.319   4.572  17.112  0.00  0.00    +0.000 A 
ATOM     11  O   UNL     1       5.215   4.058  16.440  0.00  0.00    +0.000 OA
ENDROOT
BRANCH   1  12
ATOM     12  C   UNL     1       5.036   6.799  16.488  0.00  0.00    +0.000 C 
BRANCH  12  13
ATOM     13  C   UNL     1       6.139   7.373  17.388  0.00  0.00    +0.000 C 
BRANCH  13  15
ATOM     14  C   UNL     1       7.663   5.711  18.473  0.00  0.00    +0.000 C 
ATOM     15  C   UNL     1       7.441   6.590  17.252  0.00  0.00    +0.000 C 
ENDBRANCH  13  15
ENDBRANCH  12  13
ENDBRANCH   1  12
BRANCH   2  16
ATOM     16  S   UNL     1       2.669   8.153  17.926  0.00  0.00    +0.000 S 
BRANCH  16  17
ATOM     17  C   UNL     1       1.665   8.522  19.382  0.00  0.00    +0.000 C 
BRANCH  17  18
ATOM     18  C   UNL     1       1.080   9.933  19.491  0.00  0.00    +0.000 C 
ATOM     19  O   UNL     1       1.037  10.718  18.543  0.00  0.00    +0.000 OA
ATOM     20  N   UNL     1       0.561  10.292  20.754  0.00  0.00    +0.000 N 
ATOM     21  C   UNL     1       0.706   9.483  21.973  0.00  0.00    +0.000 C 
ATOM     22  C   UNL     1      -0.417   9.760  22.982  0.00  0.00    +0.000 C 
ATOM     23  O   UNL     1      -0.495  11.156  23.288  0.00  0.00    +0.000 OA
ATOM     24  C   UNL     1      -0.800  11.907  22.103  0.00  0.00    +0.000 C 
ATOM     25  C   UNL     1       0.271  11.710  21.019  0.00  0.00    +0.000 C 
ENDBRANCH  17  18
ENDBRANCH  16  17
ENDBRANCH   2  16
TORSDOF 6
ENDMDL
MODEL 2
REMARK VINA RESULT:      -7.2      1.893      2.425
REMARK  Name = 
REMARK  7 active torsions:
REMARK  status: ('A' for Active; 'I' for Inactive)
REMARK    1  A    between atoms: C_1  and  C_2
REMARK    2  A    between atoms: C_2  and  C_3
REMARK    3  A    between atoms: C_3  and  C_4
REMARK    4  A    between atoms: C_4  and  N_5
REMARK    5  A    between atoms: C_6  and  S_7
REMARK    6  A    between atoms: S_7  and  C_8
REMARK    7  A    between atoms: C_8  and  C_9
REMARK                            x       y       z     vdW  Elec       q    Type
REMARK                         _______ _______ _______ _____ _____    ______ ____
ROOT
ATOM      1  N   UNL     1       3.762   5.856  17.477  0.00  0.00    +0.000 N 
ATOM      2  C   UNL     1       2.898   6.680  18.211  0.00  0.00    +0.000 A 
ATOM      3  N   UNL     1       2.070   6.245  19.100  0.00  0.00    +0.000 NA
ATOM      4  C   UNL     1       2.048   4.871  19.373  0.00  0.00    +0.000 A 
ATOM      5  C   UNL     1       1.247   4.394  20.413  0.00  0.00    +0.000 A 
ATOM      6  C   UNL     1       1.132   3.023  20.663  0.00  0.00    +0.000 A 
ATOM      7  C   UNL     1       1.828   2.109  19.878  0.00  0.00    +0.000 A 
ATOM      8  C   UNL     1       2.669   2.567  18.870  0.00  0.00    +0.000 A 
ATOM      9  C   UNL     1       2.784   3.944  18.637  0.00  0.00    +0.000 A 
ATOM     10  C   UNL     1       3.711   4.467  17.622  0.00  0.00    +0.000 A 
ATOM     11  O   UNL     1       4.379   3.660  16.972  0.00  0.00    +0.000 OA
ENDROOT
BRANCH   1  12
ATOM     12  C   UNL     1       4.744   6.340  16.488  0.00  0.00    +0.000 C 
BRANCH  12  13
ATOM     13  C   UNL     1       6.082   6.748  17.121  0.00  0.00    +0.000 C 
BRANCH  13  15
ATOM     14  C   UNL     1       7.544   4.843  17.829  0.00  0.00    +0.000 C 
ATOM     15  C   UNL     1       7.211   5.810  16.703  0.00  0.00    +0.000 C 
ENDBRANCH  13  15
ENDBRANCH  12  13
ENDBRANCH   1  12
BRANCH   2  16
ATOM     16  S   UNL     1       2.928   8.408  17.878  0.00  0.00    +0.000 S 
BRANCH  16  17
ATOM     17  C   UNL     1       1.210   8.941  17.715  0.00  0.00    +0.000 C 
BRANCH  17  18
ATOM     18  C   UNL     1       0.662   9.881  18.793  0.00  0.00    +0.000 C 
ATOM     19  O   UNL     1       1.281  10.157  19.821  0.00  0.00    +0.000 OA
ATOM     20  N   UNL     1      -0.607  10.444  18.536  0.00  0.00    +0.000 N 
ATOM     21  C   UNL     1      -1.478  10.056  17.416  0.00  0.00    +0.000 C 
ATOM     22  C   UNL     1      -2.438  11.185  17.018  0.00  0.00    +0.000 C 
ATOM     23  O   UNL     1      -3.202  11.627  18.146  0.00  0.00    +0.000 OA
ATOM     24  C   UNL     1      -2.331  12.153  19.159  0.00  0.00    +0.000 C 
ATOM     25  C   UNL     1      -1.325  11.097  19.642  0.00  0.00    +0.000 C 
ENDBRANCH  17  18
ENDBRANCH  16  17
ENDBRANCH   2  16
TORSDOF 6
ENDMDL
MODEL 3
REMARK VINA RESULT:      -7.2      2.320      4.127
REMARK  Name = 
REMARK  7 active torsions:
REMARK  status: ('A' for Active; 'I' for Inactive)
REMARK    1  A    between atoms: C_1  and  C_2
REMARK    2  A    between atoms: C_2  and  C_3
REMARK    3  A    between atoms: C_3  and  C_4
REMARK    4  A    between atoms: C_4  and  N_5
REMARK    5  A    between atoms: C_6  and  S_7
REMARK    6  A    between atoms: S_7  and  C_8
REMARK    7  A    between atoms: C_8  and  C_9
REMARK                            x       y       z     vdW  Elec       q    Type
REMARK                         _______ _______ _______ _____ _____    ______ ____
ROOT
ATOM      1  N   UNL     1       3.234   5.430  19.241  0.00  0.00    +0.000 N 
ATOM      2  C   UNL     1       3.108   6.662  18.586  0.00  0.00    +0.000 A 
ATOM      3  N   UNL     1       3.732   6.966  17.497  0.00  0.00    +0.000 NA
ATOM      4  C   UNL     1       4.565   6.001  16.917  0.00  0.00    +0.000 A 
ATOM      5  C   UNL     1       5.155   6.265  15.679  0.00  0.00    +0.000 A 
ATOM      6  C   UNL     1       6.059   5.365  15.105  0.00  0.00    +0.000 A 
ATOM      7  C   UNL     1       6.377   4.180  15.762  0.00  0.00    +0.000 A 
ATOM      8  C   UNL     1       5.762   3.877  16.971  0.00  0.00    +0.000 A 
ATOM      9  C   UNL     1       4.849   4.782  17.530  0.00  0.00    +0.000 A 
ATOM     10  C   UNL     1       4.133   4.467  18.775  0.00  0.00    +0.000 A 
ATOM     11  O   UNL     1       4.364   3.387  19.323  0.00  0.00    +0.000 OA
ENDROOT
BRANCH   1  12
ATOM     12  C   UNL     1       2.497   5.050  20.462  0.00  0.00    +0.000 C 
BRANCH  12  13
ATOM     13  C   UNL     1       1.114   4.452  20.166  0.00  0.00    +0.000 C 
BRANCH  13  15
ATOM     14  C   UNL     1       1.631   2.575  21.737  0.00  0.00    +0.000 C 
ATOM     15  C   UNL     1       1.102   2.939  20.359  0.00  0.00    +0.000 C 
ENDBRANCH  13  15
ENDBRANCH  12  13
ENDBRANCH   1  12
BRANCH   2  16
ATOM     16  S   UNL     1       2.055   7.874  19.307  0.00  0.00    +0.000 S 
BRANCH  16  17
ATOM     17  C   UNL     1       1.495   8.946  17.966  0.00  0.00    +0.000 C 
BRANCH  17  18
ATOM     18  C   UNL     1       1.589  10.458  18.190  0.00  0.00    +0.000 C 
ATOM     19  O   UNL     1       2.621  11.102  18.004  0.00  0.00    +0.000 OA
ATOM     20  N   UNL     1       0.401  11.097  18.612  0.00  0.00    +0.000 N 
ATOM     21  C   UNL     1      -0.828  10.391  19.003  0.00  0.00    +0.000 C 
ATOM     22  C   UNL     1      -2.076  11.263  18.810  0.00  0.00    +0.000 C 
ATOM     23  O   UNL     1      -1.942  12.507  19.507  0.00  0.00    +0.000 OA
ATOM     24  C   UNL     1      -0.827  13.248  18.989  0.00  0.00    +0.000 C 
ATOM     25  C   UNL     1       0.488  12.468  19.139  0.00  0.00    +0.000 C 
ENDBRANCH  17  18
ENDBRANCH  16  17
ENDBRANCH   2  16
TORSDOF 6
ENDMDL
MODEL 4
REMARK VINA RESULT:      -7.2      2.317      4.411
REMARK  Name = 
REMARK  7 active torsions:
REMARK  status: ('A' for Active; 'I' for Inactive)
REMARK    1  A    between atoms: C_1  and  C_2
REMARK    2  A    between atoms: C_2  and  C_3
REMARK    3  A    between atoms: C_3  and  C_4
REMARK    4  A    between atoms: C_4  and  N_5
REMARK    5  A    between atoms: C_6  and  S_7
REMARK    6  A    between atoms: S_7  and  C_8
REMARK    7  A    between atoms: C_8  and  C_9
REMARK                            x       y       z     vdW  Elec       q    Type
REMARK                         _______ _______ _______ _____ _____    ______ ____
ROOT
ATOM      1  N   UNL     1       3.150   5.422  19.440  0.00  0.00    +0.000 N 
ATOM      2  C   UNL     1       2.990   6.679  18.844  0.00  0.00    +0.000 A 
ATOM      3  N   UNL     1       3.585   7.042  17.757  0.00  0.00    +0.000 NA
ATOM      4  C   UNL     1       4.420   6.118  17.116  0.00  0.00    +0.000 A 
ATOM      5  C   UNL     1       4.979   6.446  15.879  0.00  0.00    +0.000 A 
ATOM      6  C   UNL     1       5.885   5.588  15.246  0.00  0.00    +0.000 A 
ATOM      7  C   UNL     1       6.236   4.381  15.843  0.00  0.00    +0.000 A 
ATOM      8  C   UNL     1       5.652   4.014  17.050  0.00  0.00    +0.000 A 
ATOM      9  C   UNL     1       4.738   4.877  17.668  0.00  0.00    +0.000 A 
ATOM     10  C   UNL     1       4.054   4.495  18.912  0.00  0.00    +0.000 A 
ATOM     11  O   UNL     1       4.313   3.396  19.406  0.00  0.00    +0.000 OA
ENDROOT
BRANCH   1  12
ATOM     12  C   UNL     1       2.445   4.975  20.657  0.00  0.00    +0.000 C 
BRANCH  12  13
ATOM     13  C   UNL     1       1.051   4.401  20.367  0.00  0.00    +0.000 C 
BRANCH  13  15
ATOM     14  C   UNL     1       0.887   2.420  18.847  0.00  0.00    +0.000 C 
ATOM     15  C   UNL     1       1.075   2.878  20.285  0.00  0.00    +0.000 C 
ENDBRANCH  13  15
ENDBRANCH  12  13
ENDBRANCH   1  12
BRANCH   2  16
ATOM     16  S   UNL     1       1.934   7.840  19.640  0.00  0.00    +0.000 S 
BRANCH  16  17
ATOM     17  C   UNL     1       1.734   9.231  18.506  0.00  0.00    +0.000 C 
BRANCH  17  18
ATOM     18  C   UNL     1       0.684  10.286  18.868  0.00  0.00    +0.000 C 
ATOM     19  O   UNL     1      -0.443  10.000  19.272  0.00  0.00    +0.000 OA
ATOM     20  N   UNL     1       1.087  11.633  18.732  0.00  0.00    +0.000 N 
ATOM     21  C   UNL     1       2.351  12.065  18.117  0.00  0.00    +0.000 C 
ATOM     22  C   UNL     1       2.804  13.435  18.638  0.00  0.00    +0.000 C 
ATOM     23  O   UNL     1       1.775  14.414  18.462  0.00  0.00    +0.000 OA
ATOM     24  C   UNL     1       0.606  14.045  19.209  0.00  0.00    +0.000 C 
ATOM     25  C   UNL     1       0.056  12.683  18.760  0.00  0.00    +0.000 C 
ENDBRANCH  17  18
ENDBRANCH  16  17
ENDBRANCH   2  16
TORSDOF 6
ENDMDL
MODEL 5
REMARK VINA RESULT:      -7.2      1.567      1.840
REMARK  Name = 
REMARK  7 active torsions:
REMARK  status: ('A' for Active; 'I' for Inactive)
REMARK    1  A    between atoms: C_1  and  C_2
REMARK    2  A    between atoms: C_2  and  C_3
REMARK    3  A    between atoms: C_3  and  C_4
REMARK    4  A    between atoms: C_4  and  N_5
REMARK    5  A    between atoms: C_6  and  S_7
REMARK    6  A    between atoms: S_7  and  C_8
REMARK    7  A    between atoms: C_8  and  C_9
REMARK                            x       y       z     vdW  Elec       q    Type
REMARK                         _______ _______ _______ _____ _____    ______ ____
ROOT
ATOM      1  N   UNL     1       4.423   5.891  18.265  0.00  0.00    +0.000 N 
ATOM      2  C   UNL     1       3.228   6.593  18.472  0.00  0.00    +0.000 A 
ATOM      3  N   UNL     1       2.266   6.171  19.223  0.00  0.00    +0.000 NA
ATOM      4  C   UNL     1       2.432   4.953  19.895  0.00  0.00    +0.000 A 
ATOM      5  C   UNL     1       1.456   4.537  20.803  0.00  0.00    +0.000 A 
ATOM      6  C   UNL     1       1.542   3.290  21.431  0.00  0.00    +0.000 A 
ATOM      7  C   UNL     1       2.614   2.445  21.163  0.00  0.00    +0.000 A 
ATOM      8  C   UNL     1       3.621   2.863  20.300  0.00  0.00    +0.000 A 
ATOM      9  C   UNL     1       3.530   4.119  19.686  0.00  0.00    +0.000 A 
ATOM     10  C   UNL     1       4.605   4.620  18.817  0.00  0.00    +0.000 A 
ATOM     11  O   UNL     1       5.588   3.900  18.633  0.00  0.00    +0.000 OA
ENDROOT
BRANCH   1  12
ATOM     12  C   UNL     1       5.550   6.377  17.446  0.00  0.00    +0.000 C 
BRANCH  12  13
ATOM     13  C   UNL     1       5.393   6.048  15.954  0.00  0.00    +0.000 C 
BRANCH  13  15
ATOM     14  C   UNL     1       6.142   3.939  14.834  0.00  0.00    +0.000 C 
ATOM     15  C   UNL     1       6.592   5.268  15.421  0.00  0.00    +0.000 C 
ENDBRANCH  13  15
ENDBRANCH  12  13
ENDBRANCH   1  12
BRANCH   2  16
ATOM     16  S   UNL     1       3.020   8.128  17.638  0.00  0.00    +0.000 S 
BRANCH  16  17
ATOM     17  C   UNL     1       1.564   8.921  18.354  0.00  0.00    +0.000 C 
BRANCH  17  18
ATOM     18  C   UNL     1       1.650  10.424  18.634  0.00  0.00    +0.000 C 
ATOM     19  O   UNL     1       2.183  11.221  17.862  0.00  0.00    +0.000 OA
ATOM     20  N   UNL     1       1.057  10.865  19.838  0.00  0.00    +0.000 N 
ATOM     21  C   UNL     1       0.537   9.972  20.884  0.00  0.00    +0.000 C 
ATOM     22  C   UNL     1      -0.554  10.648  21.725  0.00  0.00    +0.000 C 
ATOM     23  O   UNL     1      -0.082  11.882  22.277  0.00  0.00    +0.000 OA
ATOM     24  C   UNL     1       0.266  12.795  21.225  0.00  0.00    +0.000 C 
ATOM     25  C   UNL     1       1.365  12.221  20.319  0.00  0.00    +0.000 C 
ENDBRANCH  17  18
ENDBRANCH  16  17
ENDBRANCH   2  16
TORSDOF 6
ENDMDL
MODEL 6
REMARK VINA RESULT:      -7.1      2.155      2.434
REMARK  Name = 
REMARK  7 active torsions:
REMARK  status: ('A' for Active; 'I' for Inactive)
REMARK    1  A    between atoms: C_1  and  C_2
REMARK    2  A    between atoms: C_2  and  C_3
REMARK    3  A    between atoms: C_3  and  C_4
REMARK    4  A    between atoms: C_4  and  N_5
REMARK    5  A    between atoms: C_6  and  S_7
REMARK    6  A    between atoms: S_7  and  C_8
REMARK    7  A    between atoms: C_8  and  C_9
REMARK                            x       y       z     vdW  Elec       q    Type
REMARK                         _______ _______ _______ _____ _____    ______ ____
ROOT
ATOM      1  N   UNL     1       4.399   5.874  18.304  0.00  0.00    +0.000 N 
ATOM      2  C   UNL     1       3.168   6.531  18.436  0.00  0.00    +0.000 A 
ATOM      3  N   UNL     1       2.184   6.082  19.140  0.00  0.00    +0.000 NA
ATOM      4  C   UNL     1       2.361   4.881  19.840  0.00  0.00    +0.000 A 
ATOM      5  C   UNL     1       1.354   4.438  20.702  0.00  0.00    +0.000 A 
ATOM      6  C   UNL     1       1.454   3.205  21.353  0.00  0.00    +0.000 A 
ATOM      7  C   UNL     1       2.572   2.400  21.157  0.00  0.00    +0.000 A 
ATOM      8  C   UNL     1       3.607   2.845  20.343  0.00  0.00    +0.000 A 
ATOM      9  C   UNL     1       3.500   4.088  19.704  0.00  0.00    +0.000 A 
ATOM     10  C   UNL     1       4.600   4.619  18.886  0.00  0.00    +0.000 A 
ATOM     11  O   UNL     1       5.619   3.937  18.767  0.00  0.00    +0.000 OA
ENDROOT
BRANCH   1  12
ATOM     12  C   UNL     1       5.548   6.394  17.539  0.00  0.00    +0.000 C 
BRANCH  12  13
ATOM     13  C   UNL     1       5.488   6.034  16.047  0.00  0.00    +0.000 C 
BRANCH  13  15
ATOM     14  C   UNL     1       6.134   3.974  14.781  0.00  0.00    +0.000 C 
ATOM     15  C   UNL     1       6.641   5.120  15.642  0.00  0.00    +0.000 C 
ENDBRANCH  13  15
ENDBRANCH  12  13
ENDBRANCH   1  12
BRANCH   2  16
ATOM     16  S   UNL     1       2.945   8.044  17.566  0.00  0.00    +0.000 S 
BRANCH  16  17
ATOM     17  C   UNL     1       1.658   8.965  18.438  0.00  0.00    +0.000 C 
BRANCH  17  18
ATOM     18  C   UNL     1       1.681  10.491  18.312  0.00  0.00    +0.000 C 
ATOM     19  O   UNL     1       2.661  11.117  17.907  0.00  0.00    +0.000 OA
ATOM     20  N   UNL     1       0.490  11.160  18.673  0.00  0.00    +0.000 N 
ATOM     21  C   UNL     1      -0.667  10.512  19.306  0.00  0.00    +0.000 C 
ATOM     22  C   UNL     1      -1.973  11.267  19.023  0.00  0.00    +0.000 C 
ATOM     23  O   UNL     1      -1.864  12.641  19.412  0.00  0.00    +0.000 OA
ATOM     24  C   UNL     1      -0.830  13.289  18.656  0.00  0.00    +0.000 C 
ATOM     25  C   UNL     1       0.534  12.617  18.873  0.00  0.00    +0.000 C 
ENDBRANCH  17  18
ENDBRANCH  16  17
ENDBRANCH   2  16
TORSDOF 6
ENDMDL
MODEL 7
REMARK VINA RESULT:      -7.1      1.102      1.204
REMARK  Name = 
REMARK  7 active torsions:
REMARK  status: ('A' for Active; 'I' for Inactive)
REMARK    1  A    between atoms: C_1  and  C_2
REMARK    2  A    between atoms: C_2  and  C_3
REMARK    3  A    between atoms: C_3  and  C_4
REMARK    4  A    between atoms: C_4  and  N_5
REMARK    5  A    between atoms: C_6  and  S_7
REMARK    6  A    between atoms: S_7  and  C_8
REMARK    7  A    between atoms: C_8  and  C_9
REMARK                            x       y       z     vdW  Elec       q    Type
REMARK                         _______ _______ _______ _____ _____    ______ ____
ROOT
ATOM      1  N   UNL     1       3.916   5.967  17.783  0.00  0.00    +0.000 N 
ATOM      2  C   UNL     1       2.912   6.733  18.389  0.00  0.00    +0.000 A 
ATOM      3  N   UNL     1       2.156   6.304  19.344  0.00  0.00    +0.000 NA
ATOM      4  C   UNL     1       2.366   5.006  19.825  0.00  0.00    +0.000 A 
ATOM      5  C   UNL     1       1.641   4.564  20.935  0.00  0.00    +0.000 A 
ATOM      6  C   UNL     1       1.758   3.248  21.395  0.00  0.00    +0.000 A 
ATOM      7  C   UNL     1       2.613   2.357  20.753  0.00  0.00    +0.000 A 
ATOM      8  C   UNL     1       3.380   2.792  19.678  0.00  0.00    +0.000 A 
ATOM      9  C   UNL     1       3.262   4.116  19.234  0.00  0.00    +0.000 A 
ATOM     10  C   UNL     1       4.102   4.628  18.141  0.00  0.00    +0.000 A 
ATOM     11  O   UNL     1       4.908   3.858  17.617  0.00  0.00    +0.000 OA
ENDROOT
BRANCH   1  12
ATOM     12  C   UNL     1       4.817   6.454  16.721  0.00  0.00    +0.000 C 
BRANCH  12  13
ATOM     13  C   UNL     1       6.026   7.228  17.268  0.00  0.00    +0.000 C 
BRANCH  13  15
ATOM     14  C   UNL     1       7.737   6.162  18.751  0.00  0.00    +0.000 C 
ATOM     15  C   UNL     1       7.278   6.357  17.314  0.00  0.00    +0.000 C 
ENDBRANCH  13  15
ENDBRANCH  12  13
ENDBRANCH   1  12
BRANCH   2  16
ATOM     16  S   UNL     1       2.652   8.368  17.794  0.00  0.00    +0.000 S 
BRANCH  16  17
ATOM     17  C   UNL     1       1.292   9.067  18.756  0.00  0.00    +0.000 C 
BRANCH  17  18
ATOM     18  C   UNL     1       1.330  10.572  19.034  0.00  0.00    +0.000 C 
ATOM     19  O   UNL     1       1.793  11.390  18.238  0.00  0.00    +0.000 OA
ATOM     20  N   UNL     1       0.779  10.989  20.265  0.00  0.00    +0.000 N 
ATOM     21  C   UNL     1       0.346  10.077  21.333  0.00  0.00    +0.000 C 
ATOM     22  C   UNL     1      -0.731  10.708  22.226  0.00  0.00    +0.000 C 
ATOM     23  O   UNL     1      -0.283  11.961  22.757  0.00  0.00    +0.000 OA
ATOM     24  C   UNL     1      -0.024  12.886  21.692  0.00  0.00    +0.000 C 
ATOM     25  C   UNL     1       1.054  12.357  20.733  0.00  0.00    +0.000 C 
ENDBRANCH  17  18
ENDBRANCH  16  17
ENDBRANCH   2  16
TORSDOF 6
ENDMDL
MODEL 8
REMARK VINA RESULT:      -7.0      2.277      4.435
REMARK  Name = 
REMARK  7 active torsions:
REMARK  status: ('A' for Active; 'I' for Inactive)
REMARK    1  A    between atoms: C_1  and  C_2
REMARK    2  A    between atoms: C_2  and  C_3
REMARK    3  A    between atoms: C_3  and  C_4
REMARK    4  A    between atoms: C_4  and  N_5
REMARK    5  A    between atoms: C_6  and  S_7
REMARK    6  A    between atoms: S_7  and  C_8
REMARK    7  A    between atoms: C_8  and  C_9
REMARK                            x       y       z     vdW  Elec       q    Type
REMARK                         _______ _______ _______ _____ _____    ______ ____
ROOT
ATOM      1  N   UNL     1       3.136   5.375  19.284  0.00  0.00    +0.000 N 
ATOM      2  C   UNL     1       3.052   6.684  18.790  0.00  0.00    +0.000 A 
ATOM      3  N   UNL     1       3.662   7.095  17.729  0.00  0.00    +0.000 NA
ATOM      4  C   UNL     1       4.434   6.175  17.008  0.00  0.00    +0.000 A 
ATOM      5  C   UNL     1       5.004   6.565  15.795  0.00  0.00    +0.000 A 
ATOM      6  C   UNL     1       5.850   5.706  15.086  0.00  0.00    +0.000 A 
ATOM      7  C   UNL     1       6.129   4.435  15.581  0.00  0.00    +0.000 A 
ATOM      8  C   UNL     1       5.531   4.010  16.762  0.00  0.00    +0.000 A 
ATOM      9  C   UNL     1       4.676   4.877  17.456  0.00  0.00    +0.000 A 
ATOM     10  C   UNL     1       3.977   4.439  18.674  0.00  0.00    +0.000 A 
ATOM     11  O   UNL     1       4.170   3.291  19.076  0.00  0.00    +0.000 OA
ENDROOT
BRANCH   1  12
ATOM     12  C   UNL     1       2.413   4.878  20.469  0.00  0.00    +0.000 C 
BRANCH  12  13
ATOM     13  C   UNL     1       1.151   4.079  20.111  0.00  0.00    +0.000 C 
BRANCH  13  15
ATOM     14  C   UNL     1       2.248   2.631  21.832  0.00  0.00    +0.000 C 
ATOM     15  C   UNL     1       0.998   2.843  20.992  0.00  0.00    +0.000 C 
ENDBRANCH  13  15
ENDBRANCH  12  13
ENDBRANCH   1  12
BRANCH   2  16
ATOM     16  S   UNL     1       2.076   7.841  19.688  0.00  0.00    +0.000 S 
BRANCH  16  17
ATOM     17  C   UNL     1       1.643   9.165  18.539  0.00  0.00    +0.000 C 
BRANCH  17  18
ATOM     18  C   UNL     1       0.772  10.304  19.077  0.00  0.00    +0.000 C 
ATOM     19  O   UNL     1       1.149  11.081  19.954  0.00  0.00    +0.000 OA
ATOM     20  N   UNL     1      -0.507  10.435  18.491  0.00  0.00    +0.000 N 
ATOM     21  C   UNL     1      -1.095   9.468  17.553  0.00  0.00    +0.000 C 
ATOM     22  C   UNL     1      -2.139  10.119  16.636  0.00  0.00    +0.000 C 
ATOM     23  O   UNL     1      -3.148  10.784  17.403  0.00  0.00    +0.000 OA
ATOM     24  C   UNL     1      -2.563  11.834  18.188  0.00  0.00    +0.000 C 
ATOM     25  C   UNL     1      -1.502  11.291  19.156  0.00  0.00    +0.000 C 
ENDBRANCH  17  18
ENDBRANCH  16  17
ENDBRANCH   2  16
TORSDOF 6
ENDMDL
MODEL 9
REMARK VINA RESULT:      -7.0      2.140      4.016
REMARK  Name = 
REMARK  7 active torsions:
REMARK  status: ('A' for Active; 'I' for Inactive)
REMARK    1  A    between atoms: C_1  and  C_2
REMARK    2  A    between atoms: C_2  and  C_3
REMARK    3  A    between atoms: C_3  and  C_4
REMARK    4  A    between atoms: C_4  and  N_5
REMARK    5  A    between atoms: C_6  and  S_7
REMARK    6  A    between atoms: S_7  and  C_8
REMARK    7  A    between atoms: C_8  and  C_9
REMARK                            x       y       z     vdW  Elec       q    Type
REMARK                         _______ _______ _______ _____ _____    ______ ____
ROOT
ATOM      1  N   UNL     1       3.080   5.532  19.356  0.00  0.00    +0.000 N 
ATOM      2  C   UNL     1       2.968   6.790  18.748  0.00  0.00    +0.000 A 
ATOM      3  N   UNL     1       3.599   7.129  17.674  0.00  0.00    +0.000 NA
ATOM      4  C   UNL     1       4.424   6.179  17.060  0.00  0.00    +0.000 A 
ATOM      5  C   UNL     1       5.022   6.484  15.835  0.00  0.00    +0.000 A 
ATOM      6  C   UNL     1       5.919   5.598  15.230  0.00  0.00    +0.000 A 
ATOM      7  C   UNL     1       6.224   4.386  15.842  0.00  0.00    +0.000 A 
ATOM      8  C   UNL     1       5.601   4.043  17.036  0.00  0.00    +0.000 A 
ATOM      9  C   UNL     1       4.695   4.934  17.627  0.00  0.00    +0.000 A 
ATOM     10  C   UNL     1       3.971   4.578  18.856  0.00  0.00    +0.000 A 
ATOM     11  O   UNL     1       4.189   3.476  19.363  0.00  0.00    +0.000 OA
ENDROOT
BRANCH   1  12
ATOM     12  C   UNL     1       2.334   5.112  20.558  0.00  0.00    +0.000 C 
BRANCH  12  13
ATOM     13  C   UNL     1       1.014   4.401  20.228  0.00  0.00    +0.000 C 
BRANCH  13  15
ATOM     14  C   UNL     1       2.048   2.747  21.796  0.00  0.00    +0.000 C 
ATOM     15  C   UNL     1       1.031   2.944  20.682  0.00  0.00    +0.000 C 
ENDBRANCH  13  15
ENDBRANCH  12  13
ENDBRANCH   1  12
BRANCH   2  16
ATOM     16  S   UNL     1       1.924   7.983  19.511  0.00  0.00    +0.000 S 
BRANCH  16  17
ATOM     17  C   UNL     1       1.704   9.325  18.322  0.00  0.00    +0.000 C 
BRANCH  17  18
ATOM     18  C   UNL     1       0.317   9.969  18.240  0.00  0.00    +0.000 C 
ATOM     19  O   UNL     1      -0.579   9.542  17.512  0.00  0.00    +0.000 OA
ATOM     20  N   UNL     1       0.105  11.090  19.073  0.00  0.00    +0.000 N 
ATOM     21  C   UNL     1       1.157  11.756  19.854  0.00  0.00    +0.000 C 
ATOM     22  C   UNL     1       0.588  12.484  21.079  0.00  0.00    +0.000 C 
ATOM     23  O   UNL     1      -0.440  13.403  20.695  0.00  0.00    +0.000 OA
ATOM     24  C   UNL     1      -1.529  12.700  20.080  0.00  0.00    +0.000 C 
ATOM     25  C   UNL     1      -1.073  11.937  18.827  0.00  0.00    +0.000 C 
ENDBRANCH  17  18
ENDBRANCH  16  17
ENDBRANCH   2  16
TORSDOF 6
ENDMDL
