MODEL 1
REMARK VINA RESULT:      -6.6      0.000      0.000
REMARK  Name = 
REMARK  5 active torsions:
REMARK  status: ('A' for Active; 'I' for Inactive)
REMARK    1  A    between atoms: C_2  and  C_3
REMARK    2  A    between atoms: N_5  and  C_6
REMARK    3  A    between atoms: C_6  and  C_7
REMARK    4  A    between atoms: C_14  and  C_15
REMARK    5  A    between atoms: N_17  and  C_18
REMARK                            x       y       z     vdW  Elec       q    Type
REMARK                         _______ _______ _______ _____ _____    ______ ____
ROOT
ATOM      1  C   UNL     1       5.965   6.368  15.815  0.00  0.00    +0.000 C 
ATOM      2  C   UNL     1       4.603   6.794  16.396  0.00  0.00    +0.000 C 
ATOM      3  N   UNL     1       4.206   5.873  17.480  0.00  0.00    +0.000 NA
ATOM      4  C   UNL     1       5.234   5.801  18.537  0.00  0.00    +0.000 C 
ATOM      5  C   UNL     1       6.631   5.441  17.966  0.00  0.00    +0.000 C 
ATOM      6  N   UNL     1       7.020   6.361  16.868  0.00  0.00    +0.000 NA
ATOM      7  C   UNL     1       7.345   7.731  17.331  0.00  0.00    +0.000 C 
ENDROOT
BRANCH   1   9
ATOM      8  C   UNL     1       5.739   3.946  14.688  0.00  0.00    +0.000 C 
ATOM      9  C   UNL     1       5.806   5.019  15.233  0.00  0.00    +0.000 C 
ENDBRANCH   1   9
BRANCH   5  10
ATOM     10  C   UNL     1       7.587   5.449  19.148  0.00  0.00    +0.000 C 
ATOM     11  C   UNL     1       8.406   5.457  20.163  0.00  0.00    +0.000 C 
ENDBRANCH   5  10
BRANCH   3  12
ATOM     12  C   UNL     1       2.862   6.180  18.031  0.00  0.00    +0.000 C 
BRANCH  12  13
ATOM     13  C   UNL     1       2.175   4.987  18.673  0.00  0.00    +0.000 A 
ATOM     14  C   UNL     1       1.832   5.010  20.037  0.00  0.00    +0.000 A 
ATOM     15  C   UNL     1       1.219   3.905  20.629  0.00  0.00    +0.000 A 
ATOM     16  C   UNL     1       0.937   2.767  19.871  0.00  0.00    +0.000 A 
ATOM     17  C   UNL     1       1.264   2.739  18.512  0.00  0.00    +0.000 A 
ATOM     18  C   UNL     1       1.874   3.844  17.913  0.00  0.00    +0.000 A 
ENDBRANCH  12  13
ENDBRANCH   3  12
TORSDOF 4
ENDMDL
MODEL 2
REMARK VINA RESULT:      -6.5      0.072      1.143
REMARK  Name = 
REMARK  5 active torsions:
REMARK  status: ('A' for Active; 'I' for Inactive)
REMARK    1  A    between atoms: C_2  and  C_3
REMARK    2  A    between atoms: N_5  and  C_6
REMARK    3  A    between atoms: C_6  and  C_7
REMARK    4  A    between atoms: C_14  and  C_15
REMARK    5  A    between atoms: N_17  and  C_18
REMARK                            x       y       z     vdW  Elec       q    Type
REMARK                         _______ _______ _______ _____ _____    ______ ____
ROOT
ATOM      1  C   UNL     1       5.991   6.428  15.846  0.00  0.00    +0.000 C 
ATOM      2  C   UNL     1       4.629   6.853  16.427  0.00  0.00    +0.000 C 
ATOM      3  N   UNL     1       4.226   5.923  17.501  0.00  0.00    +0.000 NA
ATOM      4  C   UNL     1       5.250   5.837  18.560  0.00  0.00    +0.000 C 
ATOM      5  C   UNL     1       6.647   5.477  17.989  0.00  0.00    +0.000 C 
ATOM      6  N   UNL     1       7.043   6.406  16.901  0.00  0.00    +0.000 NA
ATOM      7  C   UNL     1       7.371   7.771  17.379  0.00  0.00    +0.000 C 
ENDROOT
BRANCH   1   9
ATOM      8  C   UNL     1       5.789   3.971  14.792  0.00  0.00    +0.000 C 
ATOM      9  C   UNL     1       5.828   5.085  15.251  0.00  0.00    +0.000 C 
ENDBRANCH   1   9
BRANCH   5  10
ATOM     10  C   UNL     1       7.600   5.471  19.174  0.00  0.00    +0.000 C 
ATOM     11  C   UNL     1       8.418   5.465  20.190  0.00  0.00    +0.000 C 
ENDBRANCH   5  10
BRANCH   3  12
ATOM     12  C   UNL     1       2.882   6.231  18.052  0.00  0.00    +0.000 C 
BRANCH  12  13
ATOM     13  C   UNL     1       2.194   5.037  18.692  0.00  0.00    +0.000 A 
ATOM     14  C   UNL     1       1.839   3.917  17.919  0.00  0.00    +0.000 A 
ATOM     15  C   UNL     1       1.190   2.830  18.506  0.00  0.00    +0.000 A 
ATOM     16  C   UNL     1       0.890   2.844  19.870  0.00  0.00    +0.000 A 
ATOM     17  C   UNL     1       1.248   3.948  20.650  0.00  0.00    +0.000 A 
ATOM     18  C   UNL     1       1.902   5.036  20.067  0.00  0.00    +0.000 A 
ENDBRANCH  12  13
ENDBRANCH   3  12
TORSDOF 4
ENDMDL
MODEL 3
REMARK VINA RESULT:      -6.4      1.606      3.308
REMARK  Name = 
REMARK  5 active torsions:
REMARK  status: ('A' for Active; 'I' for Inactive)
REMARK    1  A    between atoms: C_2  and  C_3
REMARK    2  A    between atoms: N_5  and  C_6
REMARK    3  A    between atoms: C_6  and  C_7
REMARK    4  A    between atoms: C_14  and  C_15
REMARK    5  A    between atoms: N_17  and  C_18
REMARK                            x       y       z     vdW  Elec       q    Type
REMARK                         _______ _______ _______ _____ _____    ______ ____
ROOT
ATOM      1  C   UNL     1       5.601   6.604  17.456  0.00  0.00    +0.000 C 
ATOM      2  C   UNL     1       5.639   5.477  18.507  0.00  0.00    +0.000 C 
ATOM      3  N   UNL     1       4.755   4.369  18.093  0.00  0.00    +0.000 NA
ATOM      4  C   UNL     1       5.113   3.859  16.755  0.00  0.00    +0.000 C 
ATOM      5  C   UNL     1       5.148   4.988  15.692  0.00  0.00    +0.000 C 
ATOM      6  N   UNL     1       6.028   6.105  16.119  0.00  0.00    +0.000 NA
ATOM      7  C   UNL     1       7.471   5.765  16.092  0.00  0.00    +0.000 C 
ENDROOT
BRANCH   1   9
ATOM      8  C   UNL     1       3.107   7.587  17.437  0.00  0.00    +0.000 C 
ATOM      9  C   UNL     1       4.218   7.120  17.399  0.00  0.00    +0.000 C 
ENDBRANCH   1   9
BRANCH   5  10
ATOM     10  C   UNL     1       5.572   4.329  14.388  0.00  0.00    +0.000 C 
ATOM     11  C   UNL     1       5.936   3.766  13.270  0.00  0.00    +0.000 C 
ENDBRANCH   5  10
BRANCH   3  12
ATOM     12  C   UNL     1       4.685   3.283  19.102  0.00  0.00    +0.000 C 
BRANCH  12  13
ATOM     13  C   UNL     1       3.354   3.209  19.831  0.00  0.00    +0.000 A 
ATOM     14  C   UNL     1       3.254   2.555  21.072  0.00  0.00    +0.000 A 
ATOM     15  C   UNL     1       2.026   2.471  21.730  0.00  0.00    +0.000 A 
ATOM     16  C   UNL     1       0.885   3.040  21.162  0.00  0.00    +0.000 A 
ATOM     17  C   UNL     1       0.975   3.702  19.934  0.00  0.00    +0.000 A 
ATOM     18  C   UNL     1       2.202   3.792  19.273  0.00  0.00    +0.000 A 
ENDBRANCH  12  13
ENDBRANCH   3  12
TORSDOF 4
ENDMDL
MODEL 4
REMARK VINA RESULT:      -6.4      1.624      3.342
REMARK  Name = 
REMARK  5 active torsions:
REMARK  status: ('A' for Active; 'I' for Inactive)
REMARK    1  A    between atoms: C_2  and  C_3
REMARK    2  A    between atoms: N_5  and  C_6
REMARK    3  A    between atoms: C_6  and  C_7
REMARK    4  A    between atoms: C_14  and  C_15
REMARK    5  A    between atoms: N_17  and  C_18
REMARK                            x       y       z     vdW  Elec       q    Type
REMARK                         _______ _______ _______ _____ _____    ______ ____
ROOT
ATOM      1  C   UNL     1       5.387   5.978  18.026  0.00  0.00    +0.000 C 
ATOM      2  C   UNL     1       4.871   4.609  18.511  0.00  0.00    +0.000 C 
ATOM      3  N   UNL     1       4.100   3.950  17.437  0.00  0.00    +0.000 NA
ATOM      4  C   UNL     1       4.896   3.810  16.203  0.00  0.00    +0.000 C 
ATOM      5  C   UNL     1       5.483   5.166  15.732  0.00  0.00    +0.000 C 
ATOM      6  N   UNL     1       6.246   5.831  16.818  0.00  0.00    +0.000 NA
ATOM      7  C   UNL     1       7.531   5.161  17.134  0.00  0.00    +0.000 C 
ENDROOT
BRANCH   1   9
ATOM      8  C   UNL     1       3.244   7.525  17.575  0.00  0.00    +0.000 C 
ATOM      9  C   UNL     1       4.211   6.821  17.724  0.00  0.00    +0.000 C 
ENDBRANCH   1   9
BRANCH   5  10
ATOM     10  C   UNL     1       6.308   4.863  14.491  0.00  0.00    +0.000 C 
ATOM     11  C   UNL     1       7.016   4.603  13.427  0.00  0.00    +0.000 C 
ENDBRANCH   5  10
BRANCH   3  12
ATOM     12  C   UNL     1       3.507   2.659  17.867  0.00  0.00    +0.000 C 
BRANCH  12  13
ATOM     13  C   UNL     1       2.719   2.747  19.163  0.00  0.00    +0.000 A 
ATOM     14  C   UNL     1       1.377   3.167  19.155  0.00  0.00    +0.000 A 
ATOM     15  C   UNL     1       0.661   3.267  20.349  0.00  0.00    +0.000 A 
ATOM     16  C   UNL     1       1.271   2.945  21.563  0.00  0.00    +0.000 A 
ATOM     17  C   UNL     1       2.601   2.515  21.580  0.00  0.00    +0.000 A 
ATOM     18  C   UNL     1       3.321   2.411  20.388  0.00  0.00    +0.000 A 
ENDBRANCH  12  13
ENDBRANCH   3  12
TORSDOF 4
ENDMDL
MODEL 5
REMARK VINA RESULT:      -6.4      1.611      3.321
REMARK  Name = 
REMARK  5 active torsions:
REMARK  status: ('A' for Active; 'I' for Inactive)
REMARK    1  A    between atoms: C_2  and  C_3
REMARK    2  A    between atoms: N_5  and  C_6
REMARK    3  A    between atoms: C_6  and  C_7
REMARK    4  A    between atoms: C_14  and  C_15
REMARK    5  A    between atoms: N_17  and  C_18
REMARK                            x       y       z     vdW  Elec       q    Type
REMARK                         _______ _______ _______ _____ _____    ______ ____
ROOT
ATOM      1  C   UNL     1       6.496   5.599  16.833  0.00  0.00    +0.000 C 
ATOM      2  C   UNL     1       5.765   4.242  16.831  0.00  0.00    +0.000 C 
ATOM      3  N   UNL     1       4.798   4.186  17.945  0.00  0.00    +0.000 NA
ATOM      4  C   UNL     1       3.838   5.305  17.889  0.00  0.00    +0.000 C 
ATOM      5  C   UNL     1       4.551   6.681  17.821  0.00  0.00    +0.000 C 
ATOM      6  N   UNL     1       5.532   6.728  16.708  0.00  0.00    +0.000 NA
ATOM      7  C   UNL     1       4.902   6.767  15.366  0.00  0.00    +0.000 C 
ENDROOT
BRANCH   1   9
ATOM      8  C   UNL     1       7.782   5.816  19.176  0.00  0.00    +0.000 C 
ATOM      9  C   UNL     1       7.251   5.702  18.100  0.00  0.00    +0.000 C 
ENDBRANCH   1   9
BRANCH   5  10
ATOM     10  C   UNL     1       3.450   7.725  17.721  0.00  0.00    +0.000 C 
ATOM     11  C   UNL     1       2.505   8.619  17.635  0.00  0.00    +0.000 C 
ENDBRANCH   5  10
BRANCH   3  12
ATOM     12  C   UNL     1       4.116   2.872  18.048  0.00  0.00    +0.000 C 
BRANCH  12  13
ATOM     13  C   UNL     1       3.072   2.807  19.150  0.00  0.00    +0.000 A 
ATOM     14  C   UNL     1       1.701   2.829  18.838  0.00  0.00    +0.000 A 
ATOM     15  C   UNL     1       0.745   2.789  19.853  0.00  0.00    +0.000 A 
ATOM     16  C   UNL     1       1.142   2.723  21.190  0.00  0.00    +0.000 A 
ATOM     17  C   UNL     1       2.502   2.689  21.511  0.00  0.00    +0.000 A 
ATOM     18  C   UNL     1       3.463   2.725  20.498  0.00  0.00    +0.000 A 
ENDBRANCH  12  13
ENDBRANCH   3  12
TORSDOF 4
ENDMDL
MODEL 6
REMARK VINA RESULT:      -6.3      1.604      3.191
REMARK  Name = 
REMARK  5 active torsions:
REMARK  status: ('A' for Active; 'I' for Inactive)
REMARK    1  A    between atoms: C_2  and  C_3
REMARK    2  A    between atoms: N_5  and  C_6
REMARK    3  A    between atoms: C_6  and  C_7
REMARK    4  A    between atoms: C_14  and  C_15
REMARK    5  A    between atoms: N_17  and  C_18
REMARK                            x       y       z     vdW  Elec       q    Type
REMARK                         _______ _______ _______ _____ _____    ______ ____
ROOT
ATOM      1  C   UNL     1       6.497   5.609  16.809  0.00  0.00    +0.000 C 
ATOM      2  C   UNL     1       5.754   4.259  16.803  0.00  0.00    +0.000 C 
ATOM      3  N   UNL     1       4.789   4.208  17.920  0.00  0.00    +0.000 NA
ATOM      4  C   UNL     1       3.839   5.335  17.870  0.00  0.00    +0.000 C 
ATOM      5  C   UNL     1       4.564   6.705  17.806  0.00  0.00    +0.000 C 
ATOM      6  N   UNL     1       5.543   6.747  16.690  0.00  0.00    +0.000 NA
ATOM      7  C   UNL     1       4.910   6.797  15.350  0.00  0.00    +0.000 C 
ENDROOT
BRANCH   1   9
ATOM      8  C   UNL     1       7.801   5.830  19.141  0.00  0.00    +0.000 C 
ATOM      9  C   UNL     1       7.256   5.701  18.073  0.00  0.00    +0.000 C 
ENDBRANCH   1   9
BRANCH   5  10
ATOM     10  C   UNL     1       3.473   7.759  17.712  0.00  0.00    +0.000 C 
ATOM     11  C   UNL     1       2.536   8.663  17.631  0.00  0.00    +0.000 C 
ENDBRANCH   5  10
BRANCH   3  12
ATOM     12  C   UNL     1       4.095   2.899  18.019  0.00  0.00    +0.000 C 
BRANCH  12  13
ATOM     13  C   UNL     1       3.048   2.843  19.119  0.00  0.00    +0.000 A 
ATOM     14  C   UNL     1       3.433   2.749  20.468  0.00  0.00    +0.000 A 
ATOM     15  C   UNL     1       2.469   2.677  21.475  0.00  0.00    +0.000 A 
ATOM     16  C   UNL     1       1.112   2.702  21.150  0.00  0.00    +0.000 A 
ATOM     17  C   UNL     1       0.718   2.807  19.812  0.00  0.00    +0.000 A 
ATOM     18  C   UNL     1       1.679   2.882  18.802  0.00  0.00    +0.000 A 
ENDBRANCH  12  13
ENDBRANCH   3  12
TORSDOF 4
ENDMDL
MODEL 7
REMARK VINA RESULT:      -6.1      1.415      1.963
REMARK  Name = 
REMARK  5 active torsions:
REMARK  status: ('A' for Active; 'I' for Inactive)
REMARK    1  A    between atoms: C_2  and  C_3
REMARK    2  A    between atoms: N_5  and  C_6
REMARK    3  A    between atoms: C_6  and  C_7
REMARK    4  A    between atoms: C_14  and  C_15
REMARK    5  A    between atoms: N_17  and  C_18
REMARK                            x       y       z     vdW  Elec       q    Type
REMARK                         _______ _______ _______ _____ _____    ______ ____
ROOT
ATOM      1  C   UNL     1       4.779   5.429  15.950  0.00  0.00    +0.000 C 
ATOM      2  C   UNL     1       4.294   4.704  17.221  0.00  0.00    +0.000 C 
ATOM      3  N   UNL     1       5.450   4.322  18.056  0.00  0.00    +0.000 NA
ATOM      4  C   UNL     1       6.284   5.490  18.398  0.00  0.00    +0.000 C 
ATOM      5  C   UNL     1       6.729   6.277  17.137  0.00  0.00    +0.000 C 
ATOM      6  N   UNL     1       5.565   6.647  16.293  0.00  0.00    +0.000 NA
ATOM      7  C   UNL     1       4.712   7.702  16.891  0.00  0.00    +0.000 C 
ENDROOT
BRANCH   1   9
ATOM      8  C   UNL     1       6.230   3.729  14.468  0.00  0.00    +0.000 C 
ATOM      9  C   UNL     1       5.608   4.480  15.178  0.00  0.00    +0.000 C 
ENDBRANCH   1   9
BRANCH   5  10
ATOM     10  C   UNL     1       7.532   7.466  17.640  0.00  0.00    +0.000 C 
ATOM     11  C   UNL     1       8.220   8.486  18.070  0.00  0.00    +0.000 C 
ENDBRANCH   5  10
BRANCH   3  12
ATOM     12  C   UNL     1       5.057   3.548  19.260  0.00  0.00    +0.000 C 
BRANCH  12  13
ATOM     13  C   UNL     1       3.554   3.406  19.433  0.00  0.00    +0.000 A 
ATOM     14  C   UNL     1       2.831   4.338  20.199  0.00  0.00    +0.000 A 
ATOM     15  C   UNL     1       1.454   4.194  20.372  0.00  0.00    +0.000 A 
ATOM     16  C   UNL     1       0.780   3.123  19.782  0.00  0.00    +0.000 A 
ATOM     17  C   UNL     1       1.487   2.197  19.010  0.00  0.00    +0.000 A 
ATOM     18  C   UNL     1       2.865   2.339  18.831  0.00  0.00    +0.000 A 
ENDBRANCH  12  13
ENDBRANCH   3  12
TORSDOF 4
ENDMDL
MODEL 8
REMARK VINA RESULT:      -6.1      1.422      2.249
REMARK  Name = 
REMARK  5 active torsions:
REMARK  status: ('A' for Active; 'I' for Inactive)
REMARK    1  A    between atoms: C_2  and  C_3
REMARK    2  A    between atoms: N_5  and  C_6
REMARK    3  A    between atoms: C_6  and  C_7
REMARK    4  A    between atoms: C_14  and  C_15
REMARK    5  A    between atoms: N_17  and  C_18
REMARK                            x       y       z     vdW  Elec       q    Type
REMARK                         _______ _______ _______ _____ _____    ______ ____
ROOT
ATOM      1  C   UNL     1       4.742   5.404  15.956  0.00  0.00    +0.000 C 
ATOM      2  C   UNL     1       4.276   4.679  17.234  0.00  0.00    +0.000 C 
ATOM      3  N   UNL     1       5.443   4.300  18.054  0.00  0.00    +0.000 NA
ATOM      4  C   UNL     1       6.279   5.471  18.385  0.00  0.00    +0.000 C 
ATOM      5  C   UNL     1       6.705   6.258  17.118  0.00  0.00    +0.000 C 
ATOM      6  N   UNL     1       5.529   6.625  16.289  0.00  0.00    +0.000 NA
ATOM      7  C   UNL     1       4.681   7.678  16.898  0.00  0.00    +0.000 C 
ENDROOT
BRANCH   1   9
ATOM      8  C   UNL     1       6.287   3.762  14.507  0.00  0.00    +0.000 C 
ATOM      9  C   UNL     1       5.563   4.457  15.174  0.00  0.00    +0.000 C 
ENDBRANCH   1   9
BRANCH   5  10
ATOM     10  C   UNL     1       7.512   7.449  17.610  0.00  0.00    +0.000 C 
ATOM     11  C   UNL     1       8.203   8.471  18.031  0.00  0.00    +0.000 C 
ENDBRANCH   5  10
BRANCH   3  12
ATOM     12  C   UNL     1       5.067   3.526  19.264  0.00  0.00    +0.000 C 
BRANCH  12  13
ATOM     13  C   UNL     1       3.568   3.436  19.493  0.00  0.00    +0.000 A 
ATOM     14  C   UNL     1       2.831   2.351  18.985  0.00  0.00    +0.000 A 
ATOM     15  C   UNL     1       1.451   2.282  19.180  0.00  0.00    +0.000 A 
ATOM     16  C   UNL     1       0.789   3.289  19.885  0.00  0.00    +0.000 A 
ATOM     17  C   UNL     1       1.514   4.366  20.403  0.00  0.00    +0.000 A 
ATOM     18  C   UNL     1       2.896   4.439  20.214  0.00  0.00    +0.000 A 
ENDBRANCH  12  13
ENDBRANCH   3  12
TORSDOF 4
ENDMDL
MODEL 9
REMARK VINA RESULT:      -6.1      1.609      3.441
REMARK  Name = 
REMARK  5 active torsions:
REMARK  status: ('A' for Active; 'I' for Inactive)
REMARK    1  A    between atoms: C_2  and  C_3
REMARK    2  A    between atoms: N_5  and  C_6
REMARK    3  A    between atoms: C_6  and  C_7
REMARK    4  A    between atoms: C_14  and  C_15
REMARK    5  A    between atoms: N_17  and  C_18
REMARK                            x       y       z     vdW  Elec       q    Type
REMARK                         _______ _______ _______ _____ _____    ______ ____
ROOT
ATOM      1  C   UNL     1       5.901   6.317  17.411  0.00  0.00    +0.000 C 
ATOM      2  C   UNL     1       5.790   5.134  18.393  0.00  0.00    +0.000 C 
ATOM      3  N   UNL     1       4.777   4.172  17.912  0.00  0.00    +0.000 NA
ATOM      4  C   UNL     1       5.079   3.701  16.547  0.00  0.00    +0.000 C 
ATOM      5  C   UNL     1       5.264   4.878  15.553  0.00  0.00    +0.000 C 
ATOM      6  N   UNL     1       6.273   5.849  16.047  0.00  0.00    +0.000 NA
ATOM      7  C   UNL     1       7.663   5.333  16.001  0.00  0.00    +0.000 C 
ENDROOT
BRANCH   1   9
ATOM      8  C   UNL     1       3.564   7.624  17.289  0.00  0.00    +0.000 C 
ATOM      9  C   UNL     1       4.594   7.005  17.384  0.00  0.00    +0.000 C 
ENDBRANCH   1   9
BRANCH   5  10
ATOM     10  C   UNL     1       5.613   4.250  14.213  0.00  0.00    +0.000 C 
ATOM     11  C   UNL     1       5.913   3.712  13.063  0.00  0.00    +0.000 C 
ENDBRANCH   5  10
BRANCH   3  12
ATOM     12  C   UNL     1       4.563   3.045  18.855  0.00  0.00    +0.000 C 
BRANCH  12  13
ATOM     13  C   UNL     1       3.152   2.974  19.414  0.00  0.00    +0.000 A 
ATOM     14  C   UNL     1       2.066   2.669  18.574  0.00  0.00    +0.000 A 
ATOM     15  C   UNL     1       0.768   2.623  19.087  0.00  0.00    +0.000 A 
ATOM     16  C   UNL     1       0.538   2.875  20.440  0.00  0.00    +0.000 A 
ATOM     17  C   UNL     1       1.613   3.168  21.286  0.00  0.00    +0.000 A 
ATOM     18  C   UNL     1       2.913   3.212  20.778  0.00  0.00    +0.000 A 
ENDBRANCH  12  13
ENDBRANCH   3  12
TORSDOF 4
ENDMDL
