MODEL 1
REMARK VINA RESULT:      -8.2      0.000      0.000
REMARK  Name = 
REMARK  18 active torsions:
REMARK  status: ('A' for Active; 'I' for Inactive)
REMARK    1  A    between atoms: C_2  and  C_3
REMARK    2  A    between atoms: C_2  and  C_4
REMARK    3  A    between atoms: C_4  and  C_5
REMARK    4  A    between atoms: C_4  and  C_10
REMARK    5  A    between atoms: C_5  and  C_6
REMARK    6  A    between atoms: C_7  and  C_8
REMARK    7  A    between atoms: C_7  and  C_9
REMARK    8  A    between atoms: C_10  and  C_11
REMARK    9  A    between atoms: C_12  and  O_13
REMARK   10  A    between atoms: C_15  and  O_16
REMARK   11  A    between atoms: O_16  and  C_17
REMARK   12  A    between atoms: C_18  and  C_19
REMARK   13  A    between atoms: C_19  and  C_21
REMARK   14  A    between atoms: C_21  and  O_22
REMARK   15  A    between atoms: C_23  and  C_24
REMARK   16  A    between atoms: C_27  and  O_28
REMARK   17  A    between atoms: C_30  and  O_31
REMARK   18  A    between atoms: C_32  and  O_33
REMARK                            x       y       z     vdW  Elec       q    Type
REMARK                         _______ _______ _______ _____ _____    ______ ____
ROOT
ATOM      1  C   UNL     1       2.363   7.535  19.014  0.00  0.00    +0.000 A 
ATOM      2  C   UNL     1       2.000   7.182  20.311  0.00  0.00    +0.000 A 
ATOM      3  C   UNL     1       1.317   8.068  21.132  0.00  0.00    +0.000 A 
ATOM      4  C   UNL     1       0.987   9.356  20.705  0.00  0.00    +0.000 A 
ATOM      5  C   UNL     1       1.264   9.729  19.384  0.00  0.00    +0.000 A 
ATOM      6  C   UNL     1       1.883   8.776  18.526  0.00  0.00    +0.000 A 
ENDROOT
BRANCH   2   7
ATOM      7  O   UNL     1       2.318   5.993  20.908  0.00  0.00    +0.000 OA
ATOM      8  H   UNL     1       3.279   5.879  20.928  0.00  0.00    +0.000 HD
ENDBRANCH   2   7
BRANCH   4   9
ATOM      9  O   UNL     1       0.342  10.226  21.558  0.00  0.00    +0.000 OA
ATOM     10  C   UNL     1      -0.427   9.606  22.600  0.00  0.00    +0.000 C 
ENDBRANCH   4   9
BRANCH   5  11
ATOM     11  C   UNL     1       0.972  11.082  18.795  0.00  0.00    +0.000 C 
ATOM     12  O   UNL     1       1.905  11.885  18.651  0.00  0.00    +0.000 OA
BRANCH  11  13
ATOM     13  C   UNL     1      -0.406  11.533  18.401  0.00  0.00    +0.000 C 
ATOM     14  C   UNL     1      -1.505  10.772  18.537  0.00  0.00    +0.000 C 
BRANCH  14  15
ATOM     15  C   UNL     1      -2.832  11.160  18.056  0.00  0.00    +0.000 A 
ATOM     16  C   UNL     1      -3.743  11.721  18.966  0.00  0.00    +0.000 A 
ATOM     17  C   UNL     1      -5.011  12.125  18.547  0.00  0.00    +0.000 A 
ATOM     18  C   UNL     1      -5.370  11.959  17.213  0.00  0.00    +0.000 A 
ATOM     19  C   UNL     1      -4.480  11.411  16.293  0.00  0.00    +0.000 A 
ATOM     20  C   UNL     1      -3.210  11.019  16.716  0.00  0.00    +0.000 A 
BRANCH  18  21
ATOM     21  O   UNL     1      -6.603  12.328  16.763  0.00  0.00    +0.000 OA
ATOM     22  H   UNL     1      -6.493  13.028  16.099  0.00  0.00    +0.000 HD
ENDBRANCH  18  21
BRANCH  20  23
ATOM     23  O   UNL     1      -2.314  10.505  15.820  0.00  0.00    +0.000 OA
ATOM     24  H   UNL     1      -2.785   9.896  15.228  0.00  0.00    +0.000 HD
ENDBRANCH  20  23
ENDBRANCH  14  15
BRANCH  13  25
ATOM     25  O   UNL     1      -0.531  12.857  17.975  0.00  0.00    +0.000 OA
ATOM     26  H   UNL     1      -0.823  12.806  17.044  0.00  0.00    +0.000 HD
ENDBRANCH  13  25
ENDBRANCH  11  13
ENDBRANCH   5  11
BRANCH   6  27
ATOM     27  O   UNL     1       2.057   9.003  17.183  0.00  0.00    +0.000 OA
ATOM     28  H   UNL     1       1.226   8.743  16.724  0.00  0.00    +0.000 HD
ENDBRANCH   6  27
BRANCH   1  29
ATOM     29  C   UNL     1       3.328   6.699  18.195  0.00  0.00    +0.000 C 
BRANCH  29  30
ATOM     30  C   UNL     1       3.558   5.222  18.662  0.00  0.00    +0.000 C 
BRANCH  30  32
ATOM     31  C   UNL     1       1.356   4.040  18.044  0.00  0.00    +0.000 C 
ATOM     32  C   UNL     1       2.695   4.179  17.911  0.00  0.00    +0.000 C 
ATOM     33  C   UNL     1       3.360   3.307  16.872  0.00  0.00    +0.000 C 
ENDBRANCH  30  32
BRANCH  30  34
ATOM     34  C   UNL     1       5.109   4.980  18.593  0.00  0.00    +0.000 C 
BRANCH  34  35
ATOM     35  C   UNL     1       5.891   6.072  17.903  0.00  0.00    +0.000 C 
ATOM     36  C   UNL     1       7.142   6.483  18.202  0.00  0.00    +0.000 C 
ATOM     37  C   UNL     1       8.048   5.826  19.207  0.00  0.00    +0.000 C 
ATOM     38  C   UNL     1       7.730   7.698  17.537  0.00  0.00    +0.000 C 
ENDBRANCH  34  35
ENDBRANCH  30  34
ENDBRANCH  29  30
ENDBRANCH   1  29
TORSDOF 14
ENDMDL
MODEL 2
REMARK VINA RESULT:      -8.2      1.188      1.513
REMARK  Name = 
REMARK  18 active torsions:
REMARK  status: ('A' for Active; 'I' for Inactive)
REMARK    1  A    between atoms: C_2  and  C_3
REMARK    2  A    between atoms: C_2  and  C_4
REMARK    3  A    between atoms: C_4  and  C_5
REMARK    4  A    between atoms: C_4  and  C_10
REMARK    5  A    between atoms: C_5  and  C_6
REMARK    6  A    between atoms: C_7  and  C_8
REMARK    7  A    between atoms: C_7  and  C_9
REMARK    8  A    between atoms: C_10  and  C_11
REMARK    9  A    between atoms: C_12  and  O_13
REMARK   10  A    between atoms: C_15  and  O_16
REMARK   11  A    between atoms: O_16  and  C_17
REMARK   12  A    between atoms: C_18  and  C_19
REMARK   13  A    between atoms: C_19  and  C_21
REMARK   14  A    between atoms: C_21  and  O_22
REMARK   15  A    between atoms: C_23  and  C_24
REMARK   16  A    between atoms: C_27  and  O_28
REMARK   17  A    between atoms: C_30  and  O_31
REMARK   18  A    between atoms: C_32  and  O_33
REMARK                            x       y       z     vdW  Elec       q    Type
REMARK                         _______ _______ _______ _____ _____    ______ ____
ROOT
ATOM      1  C   UNL     1       1.855   8.116  18.933  0.00  0.00    +0.000 A 
ATOM      2  C   UNL     1       1.812   7.693  20.259  0.00  0.00    +0.000 A 
ATOM      3  C   UNL     1       1.365   8.535  21.267  0.00  0.00    +0.000 A 
ATOM      4  C   UNL     1       0.965   9.847  21.002  0.00  0.00    +0.000 A 
ATOM      5  C   UNL     1       0.920  10.292  19.675  0.00  0.00    +0.000 A 
ATOM      6  C   UNL     1       1.295   9.385  18.643  0.00  0.00    +0.000 A 
ENDROOT
BRANCH   2   7
ATOM      7  O   UNL     1       2.243   6.471  20.697  0.00  0.00    +0.000 OA
ATOM      8  H   UNL     1       2.633   5.975  19.963  0.00  0.00    +0.000 HD
ENDBRANCH   2   7
BRANCH   4   9
ATOM      9  O   UNL     1       0.564  10.672  22.032  0.00  0.00    +0.000 OA
ATOM     10  C   UNL     1      -0.524  10.174  22.826  0.00  0.00    +0.000 C 
ENDBRANCH   4   9
BRANCH   5  11
ATOM     11  C   UNL     1       0.520  11.677  19.248  0.00  0.00    +0.000 C 
ATOM     12  O   UNL     1       1.334  12.603  19.380  0.00  0.00    +0.000 OA
BRANCH  11  13
ATOM     13  C   UNL     1      -0.837  12.013  18.696  0.00  0.00    +0.000 C 
ATOM     14  C   UNL     1      -1.979  11.462  19.142  0.00  0.00    +0.000 C 
BRANCH  14  15
ATOM     15  C   UNL     1      -3.291  11.701  18.539  0.00  0.00    +0.000 A 
ATOM     16  C   UNL     1      -4.294  12.299  19.320  0.00  0.00    +0.000 A 
ATOM     17  C   UNL     1      -5.553  12.564  18.779  0.00  0.00    +0.000 A 
ATOM     18  C   UNL     1      -5.809  12.223  17.456  0.00  0.00    +0.000 A 
ATOM     19  C   UNL     1      -4.827  11.636  16.662  0.00  0.00    +0.000 A 
ATOM     20  C   UNL     1      -3.567  11.383  17.204  0.00  0.00    +0.000 A 
BRANCH  18  21
ATOM     21  O   UNL     1      -7.029  12.453  16.891  0.00  0.00    +0.000 OA
ATOM     22  H   UNL     1      -7.716  12.272  17.554  0.00  0.00    +0.000 HD
ENDBRANCH  18  21
BRANCH  20  23
ATOM     23  O   UNL     1      -2.582  10.832  16.432  0.00  0.00    +0.000 OA
ATOM     24  H   UNL     1      -2.931  10.026  16.017  0.00  0.00    +0.000 HD
ENDBRANCH  20  23
ENDBRANCH  14  15
BRANCH  13  25
ATOM     25  O   UNL     1      -0.888  13.034  17.745  0.00  0.00    +0.000 OA
ATOM     26  H   UNL     1      -0.562  13.834  18.203  0.00  0.00    +0.000 HD
ENDBRANCH  13  25
ENDBRANCH  11  13
ENDBRANCH   5  11
BRANCH   6  27
ATOM     27  O   UNL     1       1.142   9.686  17.312  0.00  0.00    +0.000 OA
ATOM     28  H   UNL     1       1.985  10.085  16.995  0.00  0.00    +0.000 HD
ENDBRANCH   6  27
BRANCH   1  29
ATOM     29  C   UNL     1       2.577   7.322  17.861  0.00  0.00    +0.000 C 
BRANCH  29  30
ATOM     30  C   UNL     1       3.736   6.382  18.335  0.00  0.00    +0.000 C 
BRANCH  30  32
ATOM     31  C   UNL     1       4.109   3.898  18.899  0.00  0.00    +0.000 C 
ATOM     32  C   UNL     1       3.374   4.877  18.325  0.00  0.00    +0.000 C 
ATOM     33  C   UNL     1       2.055   4.458  17.720  0.00  0.00    +0.000 C 
ENDBRANCH  30  32
BRANCH  30  34
ATOM     34  C   UNL     1       4.993   6.773  17.478  0.00  0.00    +0.000 C 
BRANCH  34  35
ATOM     35  C   UNL     1       5.115   6.043  16.163  0.00  0.00    +0.000 C 
ATOM     36  C   UNL     1       6.065   5.145  15.821  0.00  0.00    +0.000 C 
ATOM     37  C   UNL     1       7.112   4.601  16.754  0.00  0.00    +0.000 C 
ATOM     38  C   UNL     1       6.157   4.623  14.412  0.00  0.00    +0.000 C 
ENDBRANCH  34  35
ENDBRANCH  30  34
ENDBRANCH  29  30
ENDBRANCH   1  29
TORSDOF 14
ENDMDL
MODEL 3
REMARK VINA RESULT:      -7.8      0.798      1.422
REMARK  Name = 
REMARK  18 active torsions:
REMARK  status: ('A' for Active; 'I' for Inactive)
REMARK    1  A    between atoms: C_2  and  C_3
REMARK    2  A    between atoms: C_2  and  C_4
REMARK    3  A    between atoms: C_4  and  C_5
REMARK    4  A    between atoms: C_4  and  C_10
REMARK    5  A    between atoms: C_5  and  C_6
REMARK    6  A    between atoms: C_7  and  C_8
REMARK    7  A    between atoms: C_7  and  C_9
REMARK    8  A    between atoms: C_10  and  C_11
REMARK    9  A    between atoms: C_12  and  O_13
REMARK   10  A    between atoms: C_15  and  O_16
REMARK   11  A    between atoms: O_16  and  C_17
REMARK   12  A    between atoms: C_18  and  C_19
REMARK   13  A    between atoms: C_19  and  C_21
REMARK   14  A    between atoms: C_21  and  O_22
REMARK   15  A    between atoms: C_23  and  C_24
REMARK   16  A    between atoms: C_27  and  O_28
REMARK   17  A    between atoms: C_30  and  O_31
REMARK   18  A    between atoms: C_32  and  O_33
REMARK                            x       y       z     vdW  Elec       q    Type
REMARK                         _______ _______ _______ _____ _____    ______ ____
ROOT
ATOM      1  C   UNL     1       2.286   7.416  19.210  0.00  0.00    +0.000 A 
ATOM      2  C   UNL     1       1.892   7.137  20.516  0.00  0.00    +0.000 A 
ATOM      3  C   UNL     1       1.203   8.074  21.273  0.00  0.00    +0.000 A 
ATOM      4  C   UNL     1       0.898   9.341  20.771  0.00  0.00    +0.000 A 
ATOM      5  C   UNL     1       1.206   9.639  19.437  0.00  0.00    +0.000 A 
ATOM      6  C   UNL     1       1.831   8.634  18.646  0.00  0.00    +0.000 A 
ENDROOT
BRANCH   2   7
ATOM      7  O   UNL     1       2.183   5.979  21.183  0.00  0.00    +0.000 OA
ATOM      8  H   UNL     1       2.666   5.375  20.601  0.00  0.00    +0.000 HD
ENDBRANCH   2   7
BRANCH   4   9
ATOM      9  O   UNL     1       0.247  10.264  21.562  0.00  0.00    +0.000 OA
ATOM     10  C   UNL     1      -0.387   9.727  22.733  0.00  0.00    +0.000 C 
ENDBRANCH   4   9
BRANCH   5  11
ATOM     11  C   UNL     1       0.944  10.961  18.771  0.00  0.00    +0.000 C 
ATOM     12  O   UNL     1       1.906  11.689  18.486  0.00  0.00    +0.000 OA
BRANCH  11  13
ATOM     13  C   UNL     1      -0.435  11.471  18.459  0.00  0.00    +0.000 C 
ATOM     14  C   UNL     1      -1.541  10.712  18.526  0.00  0.00    +0.000 C 
BRANCH  14  15
ATOM     15  C   UNL     1      -2.872  11.169  18.120  0.00  0.00    +0.000 A 
ATOM     16  C   UNL     1      -3.379  10.751  16.878  0.00  0.00    +0.000 A 
ATOM     17  C   UNL     1      -4.651  11.146  16.461  0.00  0.00    +0.000 A 
ATOM     18  C   UNL     1      -5.412  11.967  17.286  0.00  0.00    +0.000 A 
ATOM     19  C   UNL     1      -4.931  12.387  18.523  0.00  0.00    +0.000 A 
ATOM     20  C   UNL     1      -3.663  11.980  18.940  0.00  0.00    +0.000 A 
BRANCH  18  21
ATOM     21  O   UNL     1      -6.655  12.386  16.912  0.00  0.00    +0.000 OA
ATOM     22  H   UNL     1      -6.861  12.005  16.043  0.00  0.00    +0.000 HD
ENDBRANCH  18  21
BRANCH  20  23
ATOM     23  O   UNL     1      -3.185  12.361  20.163  0.00  0.00    +0.000 OA
ATOM     24  H   UNL     1      -2.217  12.413  20.113  0.00  0.00    +0.000 HD
ENDBRANCH  20  23
ENDBRANCH  14  15
BRANCH  13  25
ATOM     25  O   UNL     1      -0.550  12.837  18.195  0.00  0.00    +0.000 OA
ATOM     26  H   UNL     1      -1.483  13.061  18.378  0.00  0.00    +0.000 HD
ENDBRANCH  13  25
ENDBRANCH  11  13
ENDBRANCH   5  11
BRANCH   6  27
ATOM     27  O   UNL     1       2.036   8.786  17.296  0.00  0.00    +0.000 OA
ATOM     28  H   UNL     1       1.618   8.020  16.841  0.00  0.00    +0.000 HD
ENDBRANCH   6  27
BRANCH   1  29
ATOM     29  C   UNL     1       3.257   6.526  18.458  0.00  0.00    +0.000 C 
BRANCH  29  30
ATOM     30  C   UNL     1       3.345   5.030  18.912  0.00  0.00    +0.000 C 
BRANCH  30  32
ATOM     31  C   UNL     1       2.994   3.507  16.866  0.00  0.00    +0.000 C 
ATOM     32  C   UNL     1       2.545   4.050  18.020  0.00  0.00    +0.000 C 
ATOM     33  C   UNL     1       1.197   3.571  18.505  0.00  0.00    +0.000 C 
ENDBRANCH  30  32
BRANCH  30  34
ATOM     34  C   UNL     1       4.875   4.707  19.055  0.00  0.00    +0.000 C 
BRANCH  34  35
ATOM     35  C   UNL     1       5.796   5.876  18.799  0.00  0.00    +0.000 C 
ATOM     36  C   UNL     1       6.917   5.872  18.045  0.00  0.00    +0.000 C 
ATOM     37  C   UNL     1       7.386   4.717  17.203  0.00  0.00    +0.000 C 
ATOM     38  C   UNL     1       7.827   7.071  18.017  0.00  0.00    +0.000 C 
ENDBRANCH  34  35
ENDBRANCH  30  34
ENDBRANCH  29  30
ENDBRANCH   1  29
TORSDOF 14
ENDMDL
MODEL 4
REMARK VINA RESULT:      -7.8      1.112      1.429
REMARK  Name = 
REMARK  18 active torsions:
REMARK  status: ('A' for Active; 'I' for Inactive)
REMARK    1  A    between atoms: C_2  and  C_3
REMARK    2  A    between atoms: C_2  and  C_4
REMARK    3  A    between atoms: C_4  and  C_5
REMARK    4  A    between atoms: C_4  and  C_10
REMARK    5  A    between atoms: C_5  and  C_6
REMARK    6  A    between atoms: C_7  and  C_8
REMARK    7  A    between atoms: C_7  and  C_9
REMARK    8  A    between atoms: C_10  and  C_11
REMARK    9  A    between atoms: C_12  and  O_13
REMARK   10  A    between atoms: C_15  and  O_16
REMARK   11  A    between atoms: O_16  and  C_17
REMARK   12  A    between atoms: C_18  and  C_19
REMARK   13  A    between atoms: C_19  and  C_21
REMARK   14  A    between atoms: C_21  and  O_22
REMARK   15  A    between atoms: C_23  and  C_24
REMARK   16  A    between atoms: C_27  and  O_28
REMARK   17  A    between atoms: C_30  and  O_31
REMARK   18  A    between atoms: C_32  and  O_33
REMARK                            x       y       z     vdW  Elec       q    Type
REMARK                         _______ _______ _______ _____ _____    ______ ____
ROOT
ATOM      1  C   UNL     1       2.455   7.044  19.158  0.00  0.00    +0.000 A 
ATOM      2  C   UNL     1       2.009   6.794  20.453  0.00  0.00    +0.000 A 
ATOM      3  C   UNL     1       1.288   7.746  21.160  0.00  0.00    +0.000 A 
ATOM      4  C   UNL     1       1.002   9.001  20.616  0.00  0.00    +0.000 A 
ATOM      5  C   UNL     1       1.364   9.269  19.291  0.00  0.00    +0.000 A 
ATOM      6  C   UNL     1       2.023   8.249  18.548  0.00  0.00    +0.000 A 
ENDROOT
BRANCH   2   7
ATOM      7  O   UNL     1       2.275   5.652  21.157  0.00  0.00    +0.000 OA
ATOM      8  H   UNL     1       1.994   4.878  20.649  0.00  0.00    +0.000 HD
ENDBRANCH   2   7
BRANCH   4   9
ATOM      9  O   UNL     1       0.318   9.939  21.359  0.00  0.00    +0.000 OA
ATOM     10  C   UNL     1       0.207   9.648  22.761  0.00  0.00    +0.000 C 
ENDBRANCH   4   9
BRANCH   5  11
ATOM     11  C   UNL     1       1.127  10.575  18.584  0.00  0.00    +0.000 C 
ATOM     12  O   UNL     1       2.105  11.261  18.250  0.00  0.00    +0.000 OA
BRANCH  11  13
ATOM     13  C   UNL     1      -0.242  11.119  18.288  0.00  0.00    +0.000 C 
ATOM     14  C   UNL     1      -1.352  10.363  18.258  0.00  0.00    +0.000 C 
BRANCH  14  15
ATOM     15  C   UNL     1      -2.671  10.863  17.865  0.00  0.00    +0.000 A 
ATOM     16  C   UNL     1      -3.506  11.413  18.852  0.00  0.00    +0.000 A 
ATOM     17  C   UNL     1      -4.762  11.921  18.518  0.00  0.00    +0.000 A 
ATOM     18  C   UNL     1      -5.186  11.869  17.194  0.00  0.00    +0.000 A 
ATOM     19  C   UNL     1      -4.372  11.334  16.200  0.00  0.00    +0.000 A 
ATOM     20  C   UNL     1      -3.112  10.838  16.537  0.00  0.00    +0.000 A 
BRANCH  18  21
ATOM     21  O   UNL     1      -6.411  12.342  16.826  0.00  0.00    +0.000 OA
ATOM     22  H   UNL     1      -6.846  12.715  17.610  0.00  0.00    +0.000 HD
ENDBRANCH  18  21
BRANCH  20  23
ATOM     23  O   UNL     1      -2.288  10.333  15.570  0.00  0.00    +0.000 OA
ATOM     24  H   UNL     1      -1.991   9.451  15.848  0.00  0.00    +0.000 HD
ENDBRANCH  20  23
ENDBRANCH  14  15
BRANCH  13  25
ATOM     25  O   UNL     1      -0.346  12.505  18.149  0.00  0.00    +0.000 OA
ATOM     26  H   UNL     1      -0.895  12.802  18.901  0.00  0.00    +0.000 HD
ENDBRANCH  13  25
ENDBRANCH  11  13
ENDBRANCH   5  11
BRANCH   6  27
ATOM     27  O   UNL     1       2.282   8.371  17.205  0.00  0.00    +0.000 OA
ATOM     28  H   UNL     1       1.442   8.203  16.720  0.00  0.00    +0.000 HD
ENDBRANCH   6  27
BRANCH   1  29
ATOM     29  C   UNL     1       3.458   6.141  18.466  0.00  0.00    +0.000 C 
BRANCH  29  30
ATOM     30  C   UNL     1       3.372   4.610  18.787  0.00  0.00    +0.000 C 
BRANCH  30  32
ATOM     31  C   UNL     1       1.627   2.721  18.662  0.00  0.00    +0.000 C 
ATOM     32  C   UNL     1       2.093   3.922  18.251  0.00  0.00    +0.000 C 
ATOM     33  C   UNL     1       1.231   4.674  17.264  0.00  0.00    +0.000 C 
ENDBRANCH  30  32
BRANCH  30  34
ATOM     34  C   UNL     1       4.725   3.984  18.293  0.00  0.00    +0.000 C 
BRANCH  34  35
ATOM     35  C   UNL     1       4.865   3.878  16.794  0.00  0.00    +0.000 C 
ATOM     36  C   UNL     1       5.940   4.225  16.055  0.00  0.00    +0.000 C 
ATOM     37  C   UNL     1       7.266   4.663  16.615  0.00  0.00    +0.000 C 
ATOM     38  C   UNL     1       5.873   4.219  14.551  0.00  0.00    +0.000 C 
ENDBRANCH  34  35
ENDBRANCH  30  34
ENDBRANCH  29  30
ENDBRANCH   1  29
TORSDOF 14
ENDMDL
MODEL 5
REMARK VINA RESULT:      -7.8      0.797      1.038
REMARK  Name = 
REMARK  18 active torsions:
REMARK  status: ('A' for Active; 'I' for Inactive)
REMARK    1  A    between atoms: C_2  and  C_3
REMARK    2  A    between atoms: C_2  and  C_4
REMARK    3  A    between atoms: C_4  and  C_5
REMARK    4  A    between atoms: C_4  and  C_10
REMARK    5  A    between atoms: C_5  and  C_6
REMARK    6  A    between atoms: C_7  and  C_8
REMARK    7  A    between atoms: C_7  and  C_9
REMARK    8  A    between atoms: C_10  and  C_11
REMARK    9  A    between atoms: C_12  and  O_13
REMARK   10  A    between atoms: C_15  and  O_16
REMARK   11  A    between atoms: O_16  and  C_17
REMARK   12  A    between atoms: C_18  and  C_19
REMARK   13  A    between atoms: C_19  and  C_21
REMARK   14  A    between atoms: C_21  and  O_22
REMARK   15  A    between atoms: C_23  and  C_24
REMARK   16  A    between atoms: C_27  and  O_28
REMARK   17  A    between atoms: C_30  and  O_31
REMARK   18  A    between atoms: C_32  and  O_33
REMARK                            x       y       z     vdW  Elec       q    Type
REMARK                         _______ _______ _______ _____ _____    ______ ____
ROOT
ATOM      1  C   UNL     1       1.833   8.051  19.118  0.00  0.00    +0.000 A 
ATOM      2  C   UNL     1       1.775   7.665  20.454  0.00  0.00    +0.000 A 
ATOM      3  C   UNL     1       1.349   8.546  21.438  0.00  0.00    +0.000 A 
ATOM      4  C   UNL     1       0.984   9.861  21.137  0.00  0.00    +0.000 A 
ATOM      5  C   UNL     1       0.954  10.270  19.798  0.00  0.00    +0.000 A 
ATOM      6  C   UNL     1       1.307   9.327  18.792  0.00  0.00    +0.000 A 
ENDROOT
BRANCH   2   7
ATOM      7  O   UNL     1       2.173   6.445  20.926  0.00  0.00    +0.000 OA
ATOM      8  H   UNL     1       1.661   6.211  21.713  0.00  0.00    +0.000 HD
ENDBRANCH   2   7
BRANCH   4   9
ATOM      9  O   UNL     1       0.603  10.723  22.143  0.00  0.00    +0.000 OA
ATOM     10  C   UNL     1      -0.717  10.507  22.666  0.00  0.00    +0.000 C 
ENDBRANCH   4   9
BRANCH   5  11
ATOM     11  C   UNL     1       0.591  11.653  19.333  0.00  0.00    +0.000 C 
ATOM     12  O   UNL     1       1.447  12.549  19.393  0.00  0.00    +0.000 OA
BRANCH  11  13
ATOM     13  C   UNL     1      -0.774  12.024  18.826  0.00  0.00    +0.000 C 
ATOM     14  C   UNL     1      -1.853  11.233  18.948  0.00  0.00    +0.000 C 
BRANCH  14  15
ATOM     15  C   UNL     1      -3.160  11.538  18.363  0.00  0.00    +0.000 A 
ATOM     16  C   UNL     1      -4.171  12.043  19.196  0.00  0.00    +0.000 A 
ATOM     17  C   UNL     1      -5.425  12.367  18.676  0.00  0.00    +0.000 A 
ATOM     18  C   UNL     1      -5.668  12.176  17.320  0.00  0.00    +0.000 A 
ATOM     19  C   UNL     1      -4.678  11.682  16.475  0.00  0.00    +0.000 A 
ATOM     20  C   UNL     1      -3.423  11.371  16.998  0.00  0.00    +0.000 A 
BRANCH  18  21
ATOM     21  O   UNL     1      -6.883  12.468  16.773  0.00  0.00    +0.000 OA
ATOM     22  H   UNL     1      -7.422  11.659  16.769  0.00  0.00    +0.000 HD
ENDBRANCH  18  21
BRANCH  20  23
ATOM     23  O   UNL     1      -2.430  10.911  16.179  0.00  0.00    +0.000 OA
ATOM     24  H   UNL     1      -1.650  11.479  16.290  0.00  0.00    +0.000 HD
ENDBRANCH  20  23
ENDBRANCH  14  15
BRANCH  13  25
ATOM     25  O   UNL     1      -0.917  13.311  18.304  0.00  0.00    +0.000 OA
ATOM     26  H   UNL     1      -0.062  13.517  17.877  0.00  0.00    +0.000 HD
ENDBRANCH  13  25
ENDBRANCH  11  13
ENDBRANCH   5  11
BRANCH   6  27
ATOM     27  O   UNL     1       1.165   9.596  17.453  0.00  0.00    +0.000 OA
ATOM     28  H   UNL     1       0.967  10.556  17.358  0.00  0.00    +0.000 HD
ENDBRANCH   6  27
BRANCH   1  29
ATOM     29  C   UNL     1       2.536   7.211  18.070  0.00  0.00    +0.000 C 
BRANCH  29  30
ATOM     30  C   UNL     1       3.312   5.948  18.577  0.00  0.00    +0.000 C 
BRANCH  30  32
ATOM     31  C   UNL     1       1.485   4.407  17.622  0.00  0.00    +0.000 C 
ATOM     32  C   UNL     1       2.509   4.629  18.476  0.00  0.00    +0.000 C 
ATOM     33  C   UNL     1       2.948   3.452  19.316  0.00  0.00    +0.000 C 
ENDBRANCH  30  32
BRANCH  30  34
ATOM     34  C   UNL     1       4.690   5.952  17.824  0.00  0.00    +0.000 C 
BRANCH  34  35
ATOM     35  C   UNL     1       5.885   5.625  18.687  0.00  0.00    +0.000 C 
ATOM     36  C   UNL     1       7.135   6.120  18.558  0.00  0.00    +0.000 C 
ATOM     37  C   UNL     1       7.538   7.206  17.599  0.00  0.00    +0.000 C 
ATOM     38  C   UNL     1       8.266   5.574  19.389  0.00  0.00    +0.000 C 
ENDBRANCH  34  35
ENDBRANCH  30  34
ENDBRANCH  29  30
ENDBRANCH   1  29
TORSDOF 14
ENDMDL
MODEL 6
REMARK VINA RESULT:      -7.8      2.707      4.932
REMARK  Name = 
REMARK  18 active torsions:
REMARK  status: ('A' for Active; 'I' for Inactive)
REMARK    1  A    between atoms: C_2  and  C_3
REMARK    2  A    between atoms: C_2  and  C_4
REMARK    3  A    between atoms: C_4  and  C_5
REMARK    4  A    between atoms: C_4  and  C_10
REMARK    5  A    between atoms: C_5  and  C_6
REMARK    6  A    between atoms: C_7  and  C_8
REMARK    7  A    between atoms: C_7  and  C_9
REMARK    8  A    between atoms: C_10  and  C_11
REMARK    9  A    between atoms: C_12  and  O_13
REMARK   10  A    between atoms: C_15  and  O_16
REMARK   11  A    between atoms: O_16  and  C_17
REMARK   12  A    between atoms: C_18  and  C_19
REMARK   13  A    between atoms: C_19  and  C_21
REMARK   14  A    between atoms: C_21  and  O_22
REMARK   15  A    between atoms: C_23  and  C_24
REMARK   16  A    between atoms: C_27  and  O_28
REMARK   17  A    between atoms: C_30  and  O_31
REMARK   18  A    between atoms: C_32  and  O_33
REMARK                            x       y       z     vdW  Elec       q    Type
REMARK                         _______ _______ _______ _____ _____    ______ ____
ROOT
ATOM      1  C   UNL     1       2.296   7.537  19.070  0.00  0.00    +0.000 A 
ATOM      2  C   UNL     1       1.910   7.165  20.355  0.00  0.00    +0.000 A 
ATOM      3  C   UNL     1       1.177   8.024  21.162  0.00  0.00    +0.000 A 
ATOM      4  C   UNL     1       0.819   9.305  20.733  0.00  0.00    +0.000 A 
ATOM      5  C   UNL     1       1.120   9.694  19.422  0.00  0.00    +0.000 A 
ATOM      6  C   UNL     1       1.791   8.767  18.577  0.00  0.00    +0.000 A 
ENDROOT
BRANCH   2   7
ATOM      7  O   UNL     1       2.248   5.983  20.954  0.00  0.00    +0.000 OA
ATOM      8  H   UNL     1       1.455   5.544  21.292  0.00  0.00    +0.000 HD
ENDBRANCH   2   7
BRANCH   4   9
ATOM      9  O   UNL     1       0.125  10.149  21.574  0.00  0.00    +0.000 OA
ATOM     10  C   UNL     1      -0.389   9.538  22.767  0.00  0.00    +0.000 C 
ENDBRANCH   4   9
BRANCH   5  11
ATOM     11  C   UNL     1       0.803  11.041  18.834  0.00  0.00    +0.000 C 
ATOM     12  O   UNL     1      -0.341  11.254  18.406  0.00  0.00    +0.000 OA
BRANCH  11  13
ATOM     13  C   UNL     1       1.815  12.145  18.702  0.00  0.00    +0.000 C 
ATOM     14  C   UNL     1       1.962  13.130  19.603  0.00  0.00    +0.000 C 
BRANCH  14  15
ATOM     15  C   UNL     1       2.868  14.267  19.430  0.00  0.00    +0.000 A 
ATOM     16  C   UNL     1       2.753  15.051  18.270  0.00  0.00    +0.000 A 
ATOM     17  C   UNL     1       3.582  16.157  18.074  0.00  0.00    +0.000 A 
ATOM     18  C   UNL     1       4.533  16.472  19.039  0.00  0.00    +0.000 A 
ATOM     19  C   UNL     1       4.660  15.712  20.198  0.00  0.00    +0.000 A 
ATOM     20  C   UNL     1       3.821  14.614  20.394  0.00  0.00    +0.000 A 
BRANCH  18  21
ATOM     21  O   UNL     1       5.372  17.536  18.882  0.00  0.00    +0.000 OA
ATOM     22  H   UNL     1       4.843  18.314  18.643  0.00  0.00    +0.000 HD
ENDBRANCH  18  21
BRANCH  20  23
ATOM     23  O   UNL     1       3.913  13.873  21.539  0.00  0.00    +0.000 OA
ATOM     24  H   UNL     1       4.842  13.620  21.669  0.00  0.00    +0.000 HD
ENDBRANCH  20  23
ENDBRANCH  14  15
BRANCH  13  25
ATOM     25  O   UNL     1       2.705  12.050  17.630  0.00  0.00    +0.000 OA
ATOM     26  H   UNL     1       2.171  11.736  16.874  0.00  0.00    +0.000 HD
ENDBRANCH  13  25
ENDBRANCH  11  13
ENDBRANCH   5  11
BRANCH   6  27
ATOM     27  O   UNL     1       1.995   9.008  17.240  0.00  0.00    +0.000 OA
ATOM     28  H   UNL     1       2.961   8.932  17.064  0.00  0.00    +0.000 HD
ENDBRANCH   6  27
BRANCH   1  29
ATOM     29  C   UNL     1       3.308   6.738  18.273  0.00  0.00    +0.000 C 
BRANCH  29  30
ATOM     30  C   UNL     1       3.529   5.247  18.701  0.00  0.00    +0.000 C 
BRANCH  30  32
ATOM     31  C   UNL     1       1.353   4.393  17.622  0.00  0.00    +0.000 C 
ATOM     32  C   UNL     1       2.662   4.229  17.921  0.00  0.00    +0.000 C 
ATOM     33  C   UNL     1       3.330   2.998  17.356  0.00  0.00    +0.000 C 
ENDBRANCH  30  32
BRANCH  30  34
ATOM     34  C   UNL     1       5.078   4.998  18.630  0.00  0.00    +0.000 C 
BRANCH  34  35
ATOM     35  C   UNL     1       5.860   6.071  17.911  0.00  0.00    +0.000 C 
ATOM     36  C   UNL     1       7.109   6.494  18.202  0.00  0.00    +0.000 C 
ATOM     37  C   UNL     1       8.013   5.870  19.230  0.00  0.00    +0.000 C 
ATOM     38  C   UNL     1       7.698   7.690  17.501  0.00  0.00    +0.000 C 
ENDBRANCH  34  35
ENDBRANCH  30  34
ENDBRANCH  29  30
ENDBRANCH   1  29
TORSDOF 14
ENDMDL
MODEL 7
REMARK VINA RESULT:      -7.8      3.064      5.197
REMARK  Name = 
REMARK  18 active torsions:
REMARK  status: ('A' for Active; 'I' for Inactive)
REMARK    1  A    between atoms: C_2  and  C_3
REMARK    2  A    between atoms: C_2  and  C_4
REMARK    3  A    between atoms: C_4  and  C_5
REMARK    4  A    between atoms: C_4  and  C_10
REMARK    5  A    between atoms: C_5  and  C_6
REMARK    6  A    between atoms: C_7  and  C_8
REMARK    7  A    between atoms: C_7  and  C_9
REMARK    8  A    between atoms: C_10  and  C_11
REMARK    9  A    between atoms: C_12  and  O_13
REMARK   10  A    between atoms: C_15  and  O_16
REMARK   11  A    between atoms: O_16  and  C_17
REMARK   12  A    between atoms: C_18  and  C_19
REMARK   13  A    between atoms: C_19  and  C_21
REMARK   14  A    between atoms: C_21  and  O_22
REMARK   15  A    between atoms: C_23  and  C_24
REMARK   16  A    between atoms: C_27  and  O_28
REMARK   17  A    between atoms: C_30  and  O_31
REMARK   18  A    between atoms: C_32  and  O_33
REMARK                            x       y       z     vdW  Elec       q    Type
REMARK                         _______ _______ _______ _____ _____    ______ ____
ROOT
ATOM      1  C   UNL     1       1.915   7.938  18.958  0.00  0.00    +0.000 A 
ATOM      2  C   UNL     1       1.814   7.476  20.267  0.00  0.00    +0.000 A 
ATOM      3  C   UNL     1       1.364   8.302  21.287  0.00  0.00    +0.000 A 
ATOM      4  C   UNL     1       1.019   9.635  21.051  0.00  0.00    +0.000 A 
ATOM      5  C   UNL     1       1.031  10.121  19.738  0.00  0.00    +0.000 A 
ATOM      6  C   UNL     1       1.408   9.234  18.690  0.00  0.00    +0.000 A 
ENDROOT
BRANCH   2   7
ATOM      7  O   UNL     1       2.189   6.227  20.679  0.00  0.00    +0.000 OA
ATOM      8  H   UNL     1       1.633   5.558  20.256  0.00  0.00    +0.000 HD
ENDBRANCH   2   7
BRANCH   4   9
ATOM      9  O   UNL     1       0.613  10.442  22.093  0.00  0.00    +0.000 OA
ATOM     10  C   UNL     1      -0.187   9.793  23.094  0.00  0.00    +0.000 C 
ENDBRANCH   4   9
BRANCH   5  11
ATOM     11  C   UNL     1       0.693  11.532  19.342  0.00  0.00    +0.000 C 
ATOM     12  O   UNL     1      -0.400  11.757  18.803  0.00  0.00    +0.000 OA
BRANCH  11  13
ATOM     13  C   UNL     1       1.630  12.692  19.534  0.00  0.00    +0.000 C 
ATOM     14  C   UNL     1       1.922  13.580  18.569  0.00  0.00    +0.000 C 
BRANCH  14  15
ATOM     15  C   UNL     1       2.914  14.647  18.713  0.00  0.00    +0.000 A 
ATOM     16  C   UNL     1       4.240  14.391  18.329  0.00  0.00    +0.000 A 
ATOM     17  C   UNL     1       5.214  15.386  18.429  0.00  0.00    +0.000 A 
ATOM     18  C   UNL     1       4.858  16.637  18.923  0.00  0.00    +0.000 A 
ATOM     19  C   UNL     1       3.547  16.913  19.303  0.00  0.00    +0.000 A 
ATOM     20  C   UNL     1       2.576  15.918  19.190  0.00  0.00    +0.000 A 
BRANCH  18  21
ATOM     21  O   UNL     1       5.780  17.634  19.050  0.00  0.00    +0.000 OA
ATOM     22  H   UNL     1       6.529  17.439  18.463  0.00  0.00    +0.000 HD
ENDBRANCH  18  21
BRANCH  20  23
ATOM     23  O   UNL     1       1.278  16.180  19.532  0.00  0.00    +0.000 OA
ATOM     24  H   UNL     1       0.798  15.337  19.586  0.00  0.00    +0.000 HD
ENDBRANCH  20  23
ENDBRANCH  14  15
BRANCH  13  25
ATOM     25  O   UNL     1       2.119  12.891  20.826  0.00  0.00    +0.000 OA
ATOM     26  H   UNL     1       2.795  13.593  20.745  0.00  0.00    +0.000 HD
ENDBRANCH  13  25
ENDBRANCH  11  13
ENDBRANCH   5  11
BRANCH   6  27
ATOM     27  O   UNL     1       1.308   9.581  17.365  0.00  0.00    +0.000 OA
ATOM     28  H   UNL     1       0.372   9.829  17.189  0.00  0.00    +0.000 HD
ENDBRANCH   6  27
BRANCH   1  29
ATOM     29  C   UNL     1       2.643   7.152  17.884  0.00  0.00    +0.000 C 
BRANCH  29  30
ATOM     30  C   UNL     1       3.915   6.353  18.330  0.00  0.00    +0.000 C 
BRANCH  30  32
ATOM     31  C   UNL     1       4.489   3.967  19.105  0.00  0.00    +0.000 C 
ATOM     32  C   UNL     1       3.703   4.822  18.413  0.00  0.00    +0.000 C 
ATOM     33  C   UNL     1       2.476   4.228  17.761  0.00  0.00    +0.000 C 
ENDBRANCH  30  32
BRANCH  30  34
ATOM     34  C   UNL     1       5.076   6.817  17.380  0.00  0.00    +0.000 C 
BRANCH  34  35
ATOM     35  C   UNL     1       5.172   6.058  16.078  0.00  0.00    +0.000 C 
ATOM     36  C   UNL     1       6.111   5.148  15.741  0.00  0.00    +0.000 C 
ATOM     37  C   UNL     1       7.172   4.619  16.666  0.00  0.00    +0.000 C 
ATOM     38  C   UNL     1       6.176   4.594  14.342  0.00  0.00    +0.000 C 
ENDBRANCH  34  35
ENDBRANCH  30  34
ENDBRANCH  29  30
ENDBRANCH   1  29
TORSDOF 14
ENDMDL
MODEL 8
REMARK VINA RESULT:      -7.7      1.315      1.913
REMARK  Name = 
REMARK  18 active torsions:
REMARK  status: ('A' for Active; 'I' for Inactive)
REMARK    1  A    between atoms: C_2  and  C_3
REMARK    2  A    between atoms: C_2  and  C_4
REMARK    3  A    between atoms: C_4  and  C_5
REMARK    4  A    between atoms: C_4  and  C_10
REMARK    5  A    between atoms: C_5  and  C_6
REMARK    6  A    between atoms: C_7  and  C_8
REMARK    7  A    between atoms: C_7  and  C_9
REMARK    8  A    between atoms: C_10  and  C_11
REMARK    9  A    between atoms: C_12  and  O_13
REMARK   10  A    between atoms: C_15  and  O_16
REMARK   11  A    between atoms: O_16  and  C_17
REMARK   12  A    between atoms: C_18  and  C_19
REMARK   13  A    between atoms: C_19  and  C_21
REMARK   14  A    between atoms: C_21  and  O_22
REMARK   15  A    between atoms: C_23  and  C_24
REMARK   16  A    between atoms: C_27  and  O_28
REMARK   17  A    between atoms: C_30  and  O_31
REMARK   18  A    between atoms: C_32  and  O_33
REMARK                            x       y       z     vdW  Elec       q    Type
REMARK                         _______ _______ _______ _____ _____    ______ ____
ROOT
ATOM      1  C   UNL     1       1.655   8.208  19.108  0.00  0.00    +0.000 A 
ATOM      2  C   UNL     1       1.675   7.747  20.422  0.00  0.00    +0.000 A 
ATOM      3  C   UNL     1       1.307   8.571  21.477  0.00  0.00    +0.000 A 
ATOM      4  C   UNL     1       0.927   9.899  21.271  0.00  0.00    +0.000 A 
ATOM      5  C   UNL     1       0.819  10.383  19.961  0.00  0.00    +0.000 A 
ATOM      6  C   UNL     1       1.113   9.498  18.885  0.00  0.00    +0.000 A 
ENDROOT
BRANCH   2   7
ATOM      7  O   UNL     1       2.098   6.503  20.801  0.00  0.00    +0.000 OA
ATOM      8  H   UNL     1       1.801   6.313  21.702  0.00  0.00    +0.000 HD
ENDBRANCH   2   7
BRANCH   4   9
ATOM      9  O   UNL     1       0.605  10.703  22.344  0.00  0.00    +0.000 OA
ATOM     10  C   UNL     1      -0.606  10.351  23.031  0.00  0.00    +0.000 C 
ENDBRANCH   4   9
BRANCH   5  11
ATOM     11  C   UNL     1       0.432  11.789  19.596  0.00  0.00    +0.000 C 
ATOM     12  O   UNL     1       1.263  12.698  19.746  0.00  0.00    +0.000 OA
BRANCH  11  13
ATOM     13  C   UNL     1      -0.931  12.166  19.086  0.00  0.00    +0.000 C 
ATOM     14  C   UNL     1      -2.014  11.381  19.208  0.00  0.00    +0.000 C 
BRANCH  14  15
ATOM     15  C   UNL     1      -3.318  11.691  18.620  0.00  0.00    +0.000 A 
ATOM     16  C   UNL     1      -3.546  11.366  17.273  0.00  0.00    +0.000 A 
ATOM     17  C   UNL     1      -4.781  11.623  16.678  0.00  0.00    +0.000 A 
ATOM     18  C   UNL     1      -5.788  12.216  17.433  0.00  0.00    +0.000 A 
ATOM     19  C   UNL     1      -5.586  12.540  18.772  0.00  0.00    +0.000 A 
ATOM     20  C   UNL     1      -4.352  12.270  19.364  0.00  0.00    +0.000 A 
BRANCH  18  21
ATOM     21  O   UNL     1      -7.007  12.497  16.888  0.00  0.00    +0.000 OA
ATOM     22  H   UNL     1      -7.648  12.611  17.608  0.00  0.00    +0.000 HD
ENDBRANCH  18  21
BRANCH  20  23
ATOM     23  O   UNL     1      -4.145  12.556  20.685  0.00  0.00    +0.000 OA
ATOM     24  H   UNL     1      -5.006  12.728  21.102  0.00  0.00    +0.000 HD
ENDBRANCH  20  23
ENDBRANCH  14  15
BRANCH  13  25
ATOM     25  O   UNL     1      -1.066  13.452  18.560  0.00  0.00    +0.000 OA
ATOM     26  H   UNL     1      -0.652  14.048  19.215  0.00  0.00    +0.000 HD
ENDBRANCH  13  25
ENDBRANCH  11  13
ENDBRANCH   5  11
BRANCH   6  27
ATOM     27  O   UNL     1       0.894   9.841  17.574  0.00  0.00    +0.000 OA
ATOM     28  H   UNL     1       0.345  10.659  17.564  0.00  0.00    +0.000 HD
ENDBRANCH   6  27
BRANCH   1  29
ATOM     29  C   UNL     1       2.295   7.429  17.976  0.00  0.00    +0.000 C 
BRANCH  29  30
ATOM     30  C   UNL     1       3.470   6.463  18.354  0.00  0.00    +0.000 C 
BRANCH  30  32
ATOM     31  C   UNL     1       2.105   4.399  17.645  0.00  0.00    +0.000 C 
ATOM     32  C   UNL     1       3.070   4.969  18.402  0.00  0.00    +0.000 C 
ATOM     33  C   UNL     1       3.871   4.037  19.281  0.00  0.00    +0.000 C 
ENDBRANCH  30  32
BRANCH  30  34
ATOM     34  C   UNL     1       4.650   6.809  17.378  0.00  0.00    +0.000 C 
BRANCH  34  35
ATOM     35  C   UNL     1       5.976   6.183  17.739  0.00  0.00    +0.000 C 
ATOM     36  C   UNL     1       6.569   5.136  17.127  0.00  0.00    +0.000 C 
ATOM     37  C   UNL     1       6.072   4.477  15.870  0.00  0.00    +0.000 C 
ATOM     38  C   UNL     1       7.813   4.514  17.704  0.00  0.00    +0.000 C 
ENDBRANCH  34  35
ENDBRANCH  30  34
ENDBRANCH  29  30
ENDBRANCH   1  29
TORSDOF 14
ENDMDL
MODEL 9
REMARK VINA RESULT:      -7.6      2.800      5.176
REMARK  Name = 
REMARK  18 active torsions:
REMARK  status: ('A' for Active; 'I' for Inactive)
REMARK    1  A    between atoms: C_2  and  C_3
REMARK    2  A    between atoms: C_2  and  C_4
REMARK    3  A    between atoms: C_4  and  C_5
REMARK    4  A    between atoms: C_4  and  C_10
REMARK    5  A    between atoms: C_5  and  C_6
REMARK    6  A    between atoms: C_7  and  C_8
REMARK    7  A    between atoms: C_7  and  C_9
REMARK    8  A    between atoms: C_10  and  C_11
REMARK    9  A    between atoms: C_12  and  O_13
REMARK   10  A    between atoms: C_15  and  O_16
REMARK   11  A    between atoms: O_16  and  C_17
REMARK   12  A    between atoms: C_18  and  C_19
REMARK   13  A    between atoms: C_19  and  C_21
REMARK   14  A    between atoms: C_21  and  O_22
REMARK   15  A    between atoms: C_23  and  C_24
REMARK   16  A    between atoms: C_27  and  O_28
REMARK   17  A    between atoms: C_30  and  O_31
REMARK   18  A    between atoms: C_32  and  O_33
REMARK                            x       y       z     vdW  Elec       q    Type
REMARK                         _______ _______ _______ _____ _____    ______ ____
ROOT
ATOM      1  C   UNL     1       2.406   7.791  19.132  0.00  0.00    +0.000 A 
ATOM      2  C   UNL     1       2.256   8.604  18.012  0.00  0.00    +0.000 A 
ATOM      3  C   UNL     1       1.274   9.584  17.962  0.00  0.00    +0.000 A 
ATOM      4  C   UNL     1       0.381   9.780  19.018  0.00  0.00    +0.000 A 
ATOM      5  C   UNL     1       0.542   9.038  20.195  0.00  0.00    +0.000 A 
ATOM      6  C   UNL     1       1.611   8.100  20.265  0.00  0.00    +0.000 A 
ENDROOT
BRANCH   2   7
ATOM      7  O   UNL     1       2.993   8.488  16.866  0.00  0.00    +0.000 OA
ATOM      8  H   UNL     1       3.118   7.554  16.646  0.00  0.00    +0.000 HD
ENDBRANCH   2   7
BRANCH   4   9
ATOM      9  O   UNL     1      -0.609  10.735  18.922  0.00  0.00    +0.000 OA
ATOM     10  C   UNL     1      -1.731  10.374  18.102  0.00  0.00    +0.000 C 
ENDBRANCH   4   9
BRANCH   5  11
ATOM     11  C   UNL     1      -0.350   9.139  21.401  0.00  0.00    +0.000 C 
ATOM     12  O   UNL     1      -1.005   8.145  21.748  0.00  0.00    +0.000 OA
BRANCH  11  13
ATOM     13  C   UNL     1      -0.521  10.401  22.200  0.00  0.00    +0.000 C 
ATOM     14  C   UNL     1      -1.245  11.453  21.783  0.00  0.00    +0.000 C 
BRANCH  14  15
ATOM     15  C   UNL     1      -1.329  12.725  22.503  0.00  0.00    +0.000 A 
ATOM     16  C   UNL     1      -2.449  12.969  23.314  0.00  0.00    +0.000 A 
ATOM     17  C   UNL     1      -2.559  14.159  24.035  0.00  0.00    +0.000 A 
ATOM     18  C   UNL     1      -1.548  15.109  23.935  0.00  0.00    +0.000 A 
ATOM     19  C   UNL     1      -0.426  14.885  23.142  0.00  0.00    +0.000 A 
ATOM     20  C   UNL     1      -0.316  13.688  22.432  0.00  0.00    +0.000 A 
BRANCH  18  21
ATOM     21  O   UNL     1      -1.621  16.291  24.612  0.00  0.00    +0.000 OA
ATOM     22  H   UNL     1      -1.078  16.948  24.146  0.00  0.00    +0.000 HD
ENDBRANCH  18  21
BRANCH  20  23
ATOM     23  O   UNL     1       0.791  13.439  21.670  0.00  0.00    +0.000 OA
ATOM     24  H   UNL     1       0.894  14.163  21.030  0.00  0.00    +0.000 HD
ENDBRANCH  20  23
ENDBRANCH  14  15
BRANCH  13  25
ATOM     25  O   UNL     1       0.025  10.405  23.485  0.00  0.00    +0.000 OA
ATOM     26  H   UNL     1      -0.211  11.273  23.867  0.00  0.00    +0.000 HD
ENDBRANCH  13  25
ENDBRANCH  11  13
ENDBRANCH   5  11
BRANCH   6  27
ATOM     27  O   UNL     1       1.931   7.439  21.425  0.00  0.00    +0.000 OA
ATOM     28  H   UNL     1       2.287   8.101  22.060  0.00  0.00    +0.000 HD
ENDBRANCH   6  27
BRANCH   1  29
ATOM     29  C   UNL     1       3.283   6.554  19.114  0.00  0.00    +0.000 C 
BRANCH  29  30
ATOM     30  C   UNL     1       3.028   5.522  17.963  0.00  0.00    +0.000 C 
BRANCH  30  32
ATOM     31  C   UNL     1       4.377   3.821  16.580  0.00  0.00    +0.000 C 
ATOM     32  C   UNL     1       4.214   4.564  17.698  0.00  0.00    +0.000 C 
ATOM     33  C   UNL     1       5.337   4.512  18.708  0.00  0.00    +0.000 C 
ENDBRANCH  30  32
BRANCH  30  34
ATOM     34  C   UNL     1       1.664   4.820  18.302  0.00  0.00    +0.000 C 
BRANCH  34  35
ATOM     35  C   UNL     1       1.551   4.303  19.716  0.00  0.00    +0.000 C 
ATOM     36  C   UNL     1       1.704   3.025  20.124  0.00  0.00    +0.000 C 
ATOM     37  C   UNL     1       2.154   1.888  19.248  0.00  0.00    +0.000 C 
ATOM     38  C   UNL     1       1.396   2.630  21.544  0.00  0.00    +0.000 C 
ENDBRANCH  34  35
ENDBRANCH  30  34
ENDBRANCH  29  30
ENDBRANCH   1  29
TORSDOF 14
ENDMDL
