MODEL 1
REMARK VINA RESULT:      -8.4      0.000      0.000
REMARK  Name = 
REMARK  9 active torsions:
REMARK  status: ('A' for Active; 'I' for Inactive)
REMARK    1  A    between atoms: C_1  and  C_2
REMARK    2  A    between atoms: C_5  and  S_6
REMARK    3  A    between atoms: S_6  and  C_9
REMARK    4  A    between atoms: C_9  and  C_10
REMARK    5  A    between atoms: C_12  and  C_13
REMARK    6  A    between atoms: C_16  and  C_17
REMARK    7  A    between atoms: N_19  and  C_20
REMARK    8  A    between atoms: C_20  and  C_21
REMARK    9  A    between atoms: C_30  and  C_31
REMARK                            x       y       z     vdW  Elec       q    Type
REMARK                         _______ _______ _______ _____ _____    ______ ____
ROOT
ATOM      1  C   UNL     1      -0.289  12.105  20.695  0.00  0.00    +0.000 A 
ATOM      2  N   UNL     1       0.794  11.255  20.803  0.00  0.00    +0.000 NA
ATOM      3  C   UNL     1       0.521  10.267  19.971  0.00  0.00    +0.000 A 
ATOM      4  O   UNL     1      -0.663  10.418  19.305  0.00  0.00    +0.000 OA
ATOM      5  C   UNL     1      -1.180  11.592  19.771  0.00  0.00    +0.000 A 
ATOM      6  C   UNL     1      -2.477  12.004  19.202  0.00  0.00    +0.000 C 
ENDROOT
BRANCH   3   7
ATOM      7  C   UNL     1       1.285   9.058  19.669  0.00  0.00    +0.000 A 
ATOM      8  C   UNL     1       1.863   8.887  18.402  0.00  0.00    +0.000 A 
ATOM      9  C   UNL     1       2.604   7.737  18.096  0.00  0.00    +0.000 A 
ATOM     10  C   UNL     1       2.770   6.735  19.059  0.00  0.00    +0.000 A 
ATOM     11  C   UNL     1       2.211   6.903  20.329  0.00  0.00    +0.000 A 
ATOM     12  C   UNL     1       1.471   8.051  20.628  0.00  0.00    +0.000 A 
BRANCH  10  13
ATOM     13  C   UNL     1       3.561   5.499  18.802  0.00  0.00    +0.000 C 
ATOM     14  O   UNL     1       3.049   4.402  18.988  0.00  0.00    +0.000 OA
ATOM     15  N   UNL     1       4.844   5.670  18.333  0.00  0.00    +0.000 N 
ATOM     16  H   UNL     1       5.173   6.591  18.080  0.00  0.00    +0.000 HD
BRANCH  15  17
ATOM     17  C   UNL     1       5.694   4.542  18.011  0.00  0.00    +0.000 C 
BRANCH  17  18
ATOM     18  C   UNL     1       6.150   4.587  16.581  0.00  0.00    +0.000 A 
ATOM     19  C   UNL     1       5.495   3.857  15.585  0.00  0.00    +0.000 A 
ATOM     20  C   UNL     1       5.923   3.948  14.263  0.00  0.00    +0.000 A 
ATOM     21  C   UNL     1       6.996   4.775  13.978  0.00  0.00    +0.000 A 
ATOM     22  N   UNL     1       7.657   5.495  14.911  0.00  0.00    +0.000 NA
ATOM     23  C   UNL     1       7.216   5.388  16.186  0.00  0.00    +0.000 A 
ENDBRANCH  17  18
ENDBRANCH  15  17
ENDBRANCH  10  13
ENDBRANCH   3   7
BRANCH   1  24
ATOM     24  C   UNL     1      -0.329  13.372  21.457  0.00  0.00    +0.000 C 
BRANCH  24  25
ATOM     25  S   UNL     1      -1.262  13.289  22.968  0.00  0.00    +0.000 S 
ATOM     26  O   UNL     1      -0.777  14.327  23.861  0.00  0.00    +0.000 OA
ATOM     27  O   UNL     1      -1.261  11.902  23.408  0.00  0.00    +0.000 OA
BRANCH  25  32
ATOM     28  C   UNL     1      -7.053  14.639  21.714  0.00  0.00    +0.000 C 
ATOM     29  C   UNL     1      -5.619  14.291  21.999  0.00  0.00    +0.000 A 
ATOM     30  C   UNL     1      -5.293  13.103  22.663  0.00  0.00    +0.000 A 
ATOM     31  C   UNL     1      -3.960  12.791  22.943  0.00  0.00    +0.000 A 
ATOM     32  C   UNL     1      -2.947  13.668  22.545  0.00  0.00    +0.000 A 
ATOM     33  C   UNL     1      -3.257  14.862  21.892  0.00  0.00    +0.000 A 
ATOM     34  C   UNL     1      -4.594  15.170  21.620  0.00  0.00    +0.000 A 
ENDBRANCH  25  32
ENDBRANCH  24  25
ENDBRANCH   1  24
TORSDOF 7
ENDMDL
MODEL 2
REMARK VINA RESULT:      -8.3      1.576      1.943
REMARK  Name = 
REMARK  9 active torsions:
REMARK  status: ('A' for Active; 'I' for Inactive)
REMARK    1  A    between atoms: C_1  and  C_2
REMARK    2  A    between atoms: C_5  and  S_6
REMARK    3  A    between atoms: S_6  and  C_9
REMARK    4  A    between atoms: C_9  and  C_10
REMARK    5  A    between atoms: C_12  and  C_13
REMARK    6  A    between atoms: C_16  and  C_17
REMARK    7  A    between atoms: N_19  and  C_20
REMARK    8  A    between atoms: C_20  and  C_21
REMARK    9  A    between atoms: C_30  and  C_31
REMARK                            x       y       z     vdW  Elec       q    Type
REMARK                         _______ _______ _______ _____ _____    ______ ____
ROOT
ATOM      1  C   UNL     1      -1.038  12.062  20.283  0.00  0.00    +0.000 A 
ATOM      2  N   UNL     1      -0.670  10.753  20.530  0.00  0.00    +0.000 NA
ATOM      3  C   UNL     1       0.300  10.516  19.665  0.00  0.00    +0.000 A 
ATOM      4  O   UNL     1       0.610  11.590  18.877  0.00  0.00    +0.000 OA
ATOM      5  C   UNL     1      -0.248  12.574  19.272  0.00  0.00    +0.000 A 
ATOM      6  C   UNL     1      -0.122  13.867  18.573  0.00  0.00    +0.000 C 
ENDROOT
BRANCH   3   7
ATOM      7  C   UNL     1       1.070   9.297  19.432  0.00  0.00    +0.000 A 
ATOM      8  C   UNL     1       1.254   8.370  20.470  0.00  0.00    +0.000 A 
ATOM      9  C   UNL     1       1.984   7.191  20.263  0.00  0.00    +0.000 A 
ATOM     10  C   UNL     1       2.548   6.928  19.010  0.00  0.00    +0.000 A 
ATOM     11  C   UNL     1       2.358   7.838  17.966  0.00  0.00    +0.000 A 
ATOM     12  C   UNL     1       1.631   9.013  18.178  0.00  0.00    +0.000 A 
BRANCH  10  13
ATOM     13  C   UNL     1       3.319   5.686  18.722  0.00  0.00    +0.000 C 
ATOM     14  O   UNL     1       2.730   4.677  18.354  0.00  0.00    +0.000 OA
ATOM     15  N   UNL     1       4.687   5.759  18.862  0.00  0.00    +0.000 N 
ATOM     16  H   UNL     1       5.131   6.647  19.047  0.00  0.00    +0.000 HD
BRANCH  15  17
ATOM     17  C   UNL     1       5.543   4.628  18.573  0.00  0.00    +0.000 C 
BRANCH  17  18
ATOM     18  C   UNL     1       6.027   4.653  17.152  0.00  0.00    +0.000 A 
ATOM     19  C   UNL     1       5.372   3.934  16.147  0.00  0.00    +0.000 A 
ATOM     20  C   UNL     1       5.826   4.007  14.833  0.00  0.00    +0.000 A 
ATOM     21  C   UNL     1       6.925   4.805  14.564  0.00  0.00    +0.000 A 
ATOM     22  N   UNL     1       7.586   5.514  15.504  0.00  0.00    +0.000 NA
ATOM     23  C   UNL     1       7.119   5.425  16.772  0.00  0.00    +0.000 A 
ENDBRANCH  17  18
ENDBRANCH  15  17
ENDBRANCH  10  13
ENDBRANCH   3   7
BRANCH   1  24
ATOM     24  C   UNL     1      -2.086  12.713  21.099  0.00  0.00    +0.000 C 
BRANCH  24  25
ATOM     25  S   UNL     1      -1.730  12.768  22.840  0.00  0.00    +0.000 S 
ATOM     26  O   UNL     1      -0.304  12.990  23.007  0.00  0.00    +0.000 OA
ATOM     27  O   UNL     1      -2.354  11.604  23.452  0.00  0.00    +0.000 OA
BRANCH  25  32
ATOM     28  C   UNL     1      -4.691  17.504  25.233  0.00  0.00    +0.000 C 
ATOM     29  C   UNL     1      -3.962  16.345  24.616  0.00  0.00    +0.000 A 
ATOM     30  C   UNL     1      -4.663  15.222  24.160  0.00  0.00    +0.000 A 
ATOM     31  C   UNL     1      -3.981  14.138  23.603  0.00  0.00    +0.000 A 
ATOM     32  C   UNL     1      -2.588  14.183  23.490  0.00  0.00    +0.000 A 
ATOM     33  C   UNL     1      -1.874  15.290  23.949  0.00  0.00    +0.000 A 
ATOM     34  C   UNL     1      -2.564  16.369  24.511  0.00  0.00    +0.000 A 
ENDBRANCH  25  32
ENDBRANCH  24  25
ENDBRANCH   1  24
TORSDOF 7
ENDMDL
MODEL 3
REMARK VINA RESULT:      -8.2      3.047     11.930
REMARK  Name = 
REMARK  9 active torsions:
REMARK  status: ('A' for Active; 'I' for Inactive)
REMARK    1  A    between atoms: C_1  and  C_2
REMARK    2  A    between atoms: C_5  and  S_6
REMARK    3  A    between atoms: S_6  and  C_9
REMARK    4  A    between atoms: C_9  and  C_10
REMARK    5  A    between atoms: C_12  and  C_13
REMARK    6  A    between atoms: C_16  and  C_17
REMARK    7  A    between atoms: N_19  and  C_20
REMARK    8  A    between atoms: C_20  and  C_21
REMARK    9  A    between atoms: C_30  and  C_31
REMARK                            x       y       z     vdW  Elec       q    Type
REMARK                         _______ _______ _______ _____ _____    ______ ____
ROOT
ATOM      1  C   UNL     1       4.199   4.902  18.843  0.00  0.00    +0.000 A 
ATOM      2  N   UNL     1       4.091   6.257  19.087  0.00  0.00    +0.000 NA
ATOM      3  C   UNL     1       2.801   6.512  18.959  0.00  0.00    +0.000 A 
ATOM      4  O   UNL     1       2.048   5.409  18.666  0.00  0.00    +0.000 OA
ATOM      5  C   UNL     1       2.944   4.383  18.590  0.00  0.00    +0.000 A 
ATOM      6  C   UNL     1       2.385   3.052  18.286  0.00  0.00    +0.000 C 
ENDROOT
BRANCH   3   7
ATOM      7  C   UNL     1       2.080   7.777  19.079  0.00  0.00    +0.000 A 
ATOM      8  C   UNL     1       1.576   8.187  20.323  0.00  0.00    +0.000 A 
ATOM      9  C   UNL     1       0.887   9.400  20.458  0.00  0.00    +0.000 A 
ATOM     10  C   UNL     1       0.686  10.219  19.342  0.00  0.00    +0.000 A 
ATOM     11  C   UNL     1       1.197   9.826  18.101  0.00  0.00    +0.000 A 
ATOM     12  C   UNL     1       1.882   8.614  17.971  0.00  0.00    +0.000 A 
BRANCH  10  13
ATOM     13  C   UNL     1      -0.022  11.527  19.423  0.00  0.00    +0.000 C 
ATOM     14  O   UNL     1       0.485  12.524  18.922  0.00  0.00    +0.000 OA
ATOM     15  N   UNL     1      -1.248  11.531  20.049  0.00  0.00    +0.000 N 
ATOM     16  H   UNL     1      -1.674  10.660  20.334  0.00  0.00    +0.000 HD
BRANCH  15  17
ATOM     17  C   UNL     1      -2.046  12.734  20.154  0.00  0.00    +0.000 C 
BRANCH  17  18
ATOM     18  C   UNL     1      -2.924  12.709  21.371  0.00  0.00    +0.000 A 
ATOM     19  C   UNL     1      -2.383  12.770  22.659  0.00  0.00    +0.000 A 
ATOM     20  C   UNL     1      -3.228  12.779  23.766  0.00  0.00    +0.000 A 
ATOM     21  C   UNL     1      -4.594  12.731  23.547  0.00  0.00    +0.000 A 
ATOM     22  N   UNL     1      -5.156  12.670  22.320  0.00  0.00    +0.000 NA
ATOM     23  C   UNL     1      -4.309  12.666  21.264  0.00  0.00    +0.000 A 
ENDBRANCH  17  18
ENDBRANCH  15  17
ENDBRANCH  10  13
ENDBRANCH   3   7
BRANCH   1  24
ATOM     24  C   UNL     1       5.511   4.225  18.940  0.00  0.00    +0.000 C 
BRANCH  24  25
ATOM     25  S   UNL     1       6.806   4.997  17.998  0.00  0.00    +0.000 S 
ATOM     26  O   UNL     1       8.070   4.391  18.377  0.00  0.00    +0.000 OA
ATOM     27  O   UNL     1       6.633   6.438  18.115  0.00  0.00    +0.000 OA
BRANCH  25  32
ATOM     28  C   UNL     1       5.899   3.522  12.173  0.00  0.00    +0.000 C 
ATOM     29  C   UNL     1       6.107   3.909  13.609  0.00  0.00    +0.000 A 
ATOM     30  C   UNL     1       7.160   4.756  13.974  0.00  0.00    +0.000 A 
ATOM     31  C   UNL     1       7.361   5.100  15.313  0.00  0.00    +0.000 A 
ATOM     32  C   UNL     1       6.496   4.604  16.292  0.00  0.00    +0.000 A 
ATOM     33  C   UNL     1       5.447   3.750  15.945  0.00  0.00    +0.000 A 
ATOM     34  C   UNL     1       5.256   3.406  14.603  0.00  0.00    +0.000 A 
ENDBRANCH  25  32
ENDBRANCH  24  25
ENDBRANCH   1  24
TORSDOF 7
ENDMDL
MODEL 4
REMARK VINA RESULT:      -8.2      2.565      3.801
REMARK  Name = 
REMARK  9 active torsions:
REMARK  status: ('A' for Active; 'I' for Inactive)
REMARK    1  A    between atoms: C_1  and  C_2
REMARK    2  A    between atoms: C_5  and  S_6
REMARK    3  A    between atoms: S_6  and  C_9
REMARK    4  A    between atoms: C_9  and  C_10
REMARK    5  A    between atoms: C_12  and  C_13
REMARK    6  A    between atoms: C_16  and  C_17
REMARK    7  A    between atoms: N_19  and  C_20
REMARK    8  A    between atoms: C_20  and  C_21
REMARK    9  A    between atoms: C_30  and  C_31
REMARK                            x       y       z     vdW  Elec       q    Type
REMARK                         _______ _______ _______ _____ _____    ______ ____
ROOT
ATOM      1  C   UNL     1      -0.075  11.324  20.670  0.00  0.00    +0.000 A 
ATOM      2  N   UNL     1       0.647  10.572  19.764  0.00  0.00    +0.000 NA
ATOM      3  C   UNL     1       0.835   9.415  20.372  0.00  0.00    +0.000 A 
ATOM      4  O   UNL     1       0.265   9.346  21.614  0.00  0.00    +0.000 OA
ATOM      5  C   UNL     1      -0.313  10.568  21.802  0.00  0.00    +0.000 A 
ATOM      6  C   UNL     1      -1.015  10.765  23.084  0.00  0.00    +0.000 C 
ENDROOT
BRANCH   3   7
ATOM      7  C   UNL     1       1.552   8.224  19.921  0.00  0.00    +0.000 A 
ATOM      8  C   UNL     1       1.614   7.086  20.739  0.00  0.00    +0.000 A 
ATOM      9  C   UNL     1       2.292   5.932  20.320  0.00  0.00    +0.000 A 
ATOM     10  C   UNL     1       2.925   5.907  19.074  0.00  0.00    +0.000 A 
ATOM     11  C   UNL     1       2.857   7.031  18.244  0.00  0.00    +0.000 A 
ATOM     12  C   UNL     1       2.181   8.180  18.668  0.00  0.00    +0.000 A 
BRANCH  10  13
ATOM     13  C   UNL     1       3.646   4.707  18.564  0.00  0.00    +0.000 C 
ATOM     14  O   UNL     1       3.679   3.686  19.240  0.00  0.00    +0.000 OA
ATOM     15  N   UNL     1       4.222   4.813  17.318  0.00  0.00    +0.000 N 
ATOM     16  H   UNL     1       4.060   5.634  16.752  0.00  0.00    +0.000 HD
BRANCH  15  17
ATOM     17  C   UNL     1       4.915   3.700  16.702  0.00  0.00    +0.000 C 
BRANCH  17  18
ATOM     18  C   UNL     1       5.827   4.160  15.602  0.00  0.00    +0.000 A 
ATOM     19  C   UNL     1       5.683   3.690  14.293  0.00  0.00    +0.000 A 
ATOM     20  C   UNL     1       6.524   4.163  13.289  0.00  0.00    +0.000 A 
ATOM     21  C   UNL     1       7.485   5.101  13.629  0.00  0.00    +0.000 A 
ATOM     22  N   UNL     1       7.657   5.579  14.880  0.00  0.00    +0.000 NA
ATOM     23  C   UNL     1       6.823   5.102  15.833  0.00  0.00    +0.000 A 
ENDBRANCH  17  18
ENDBRANCH  15  17
ENDBRANCH  10  13
ENDBRANCH   3   7
BRANCH   1  24
ATOM     24  C   UNL     1      -0.522  12.690  20.323  0.00  0.00    +0.000 C 
BRANCH  24  25
ATOM     25  S   UNL     1       0.459  13.987  21.044  0.00  0.00    +0.000 S 
ATOM     26  O   UNL     1       1.791  13.466  21.292  0.00  0.00    +0.000 OA
ATOM     27  O   UNL     1      -0.308  14.556  22.142  0.00  0.00    +0.000 OA
BRANCH  25  32
ATOM     28  C   UNL     1       0.921  18.502  17.004  0.00  0.00    +0.000 C 
ATOM     29  C   UNL     1       0.796  17.369  17.983  0.00  0.00    +0.000 A 
ATOM     30  C   UNL     1      -0.384  17.185  18.713  0.00  0.00    +0.000 A 
ATOM     31  C   UNL     1      -0.490  16.141  19.635  0.00  0.00    +0.000 A 
ATOM     32  C   UNL     1       0.586  15.268  19.819  0.00  0.00    +0.000 A 
ATOM     33  C   UNL     1       1.773  15.445  19.106  0.00  0.00    +0.000 A 
ATOM     34  C   UNL     1       1.874  16.496  18.188  0.00  0.00    +0.000 A 
ENDBRANCH  25  32
ENDBRANCH  24  25
ENDBRANCH   1  24
TORSDOF 7
ENDMDL
MODEL 5
REMARK VINA RESULT:      -8.2      2.948     11.997
REMARK  Name = 
REMARK  9 active torsions:
REMARK  status: ('A' for Active; 'I' for Inactive)
REMARK    1  A    between atoms: C_1  and  C_2
REMARK    2  A    between atoms: C_5  and  S_6
REMARK    3  A    between atoms: S_6  and  C_9
REMARK    4  A    between atoms: C_9  and  C_10
REMARK    5  A    between atoms: C_12  and  C_13
REMARK    6  A    between atoms: C_16  and  C_17
REMARK    7  A    between atoms: N_19  and  C_20
REMARK    8  A    between atoms: C_20  and  C_21
REMARK    9  A    between atoms: C_30  and  C_31
REMARK                            x       y       z     vdW  Elec       q    Type
REMARK                         _______ _______ _______ _____ _____    ______ ____
ROOT
ATOM      1  C   UNL     1       2.877   6.075  19.119  0.00  0.00    +0.000 A 
ATOM      2  N   UNL     1       2.023   6.555  20.093  0.00  0.00    +0.000 NA
ATOM      3  C   UNL     1       1.831   7.821  19.767  0.00  0.00    +0.000 A 
ATOM      4  O   UNL     1       2.487   8.203  18.629  0.00  0.00    +0.000 OA
ATOM      5  C   UNL     1       3.156   7.086  18.219  0.00  0.00    +0.000 A 
ATOM      6  C   UNL     1       3.955   7.222  16.987  0.00  0.00    +0.000 C 
ENDROOT
BRANCH   3   7
ATOM      7  C   UNL     1       1.039   8.850  20.436  0.00  0.00    +0.000 A 
ATOM      8  C   UNL     1       0.425   9.866  19.687  0.00  0.00    +0.000 A 
ATOM      9  C   UNL     1      -0.343  10.859  20.311  0.00  0.00    +0.000 A 
ATOM     10  C   UNL     1      -0.502  10.850  21.700  0.00  0.00    +0.000 A 
ATOM     11  C   UNL     1       0.093   9.834  22.454  0.00  0.00    +0.000 A 
ATOM     12  C   UNL     1       0.860   8.848  21.827  0.00  0.00    +0.000 A 
BRANCH  10  13
ATOM     13  C   UNL     1      -1.321  11.866  22.420  0.00  0.00    +0.000 C 
ATOM     14  O   UNL     1      -1.258  11.941  23.642  0.00  0.00    +0.000 OA
ATOM     15  N   UNL     1      -2.098  12.698  21.646  0.00  0.00    +0.000 N 
ATOM     16  H   UNL     1      -2.018  12.675  20.640  0.00  0.00    +0.000 HD
BRANCH  15  17
ATOM     17  C   UNL     1      -2.905  13.748  22.231  0.00  0.00    +0.000 C 
BRANCH  17  18
ATOM     18  C   UNL     1      -4.303  13.278  22.509  0.00  0.00    +0.000 A 
ATOM     19  C   UNL     1      -4.758  13.079  23.816  0.00  0.00    +0.000 A 
ATOM     20  C   UNL     1      -6.072  12.676  24.039  0.00  0.00    +0.000 A 
ATOM     21  C   UNL     1      -6.894  12.488  22.941  0.00  0.00    +0.000 A 
ATOM     22  N   UNL     1      -6.494  12.667  21.664  0.00  0.00    +0.000 NA
ATOM     23  C   UNL     1      -5.213  13.062  21.479  0.00  0.00    +0.000 A 
ENDBRANCH  17  18
ENDBRANCH  15  17
ENDBRANCH  10  13
ENDBRANCH   3   7
BRANCH   1  24
ATOM     24  C   UNL     1       3.294   4.656  19.120  0.00  0.00    +0.000 C 
BRANCH  24  25
ATOM     25  S   UNL     1       5.055   4.410  19.109  0.00  0.00    +0.000 S 
ATOM     26  O   UNL     1       5.335   3.100  19.670  0.00  0.00    +0.000 OA
ATOM     27  O   UNL     1       5.666   5.592  19.700  0.00  0.00    +0.000 OA
BRANCH  25  32
ATOM     28  C   UNL     1       6.881   4.211  13.317  0.00  0.00    +0.000 C 
ATOM     29  C   UNL     1       6.420   4.286  14.745  0.00  0.00    +0.000 A 
ATOM     30  C   UNL     1       7.265   4.789  15.742  0.00  0.00    +0.000 A 
ATOM     31  C   UNL     1       6.840   4.841  17.071  0.00  0.00    +0.000 A 
ATOM     32  C   UNL     1       5.556   4.399  17.404  0.00  0.00    +0.000 A 
ATOM     33  C   UNL     1       4.705   3.886  16.423  0.00  0.00    +0.000 A 
ATOM     34  C   UNL     1       5.140   3.832  15.095  0.00  0.00    +0.000 A 
ENDBRANCH  25  32
ENDBRANCH  24  25
ENDBRANCH   1  24
TORSDOF 7
ENDMDL
MODEL 6
REMARK VINA RESULT:      -8.1      3.008     11.788
REMARK  Name = 
REMARK  9 active torsions:
REMARK  status: ('A' for Active; 'I' for Inactive)
REMARK    1  A    between atoms: C_1  and  C_2
REMARK    2  A    between atoms: C_5  and  S_6
REMARK    3  A    between atoms: S_6  and  C_9
REMARK    4  A    between atoms: C_9  and  C_10
REMARK    5  A    between atoms: C_12  and  C_13
REMARK    6  A    between atoms: C_16  and  C_17
REMARK    7  A    between atoms: N_19  and  C_20
REMARK    8  A    between atoms: C_20  and  C_21
REMARK    9  A    between atoms: C_30  and  C_31
REMARK                            x       y       z     vdW  Elec       q    Type
REMARK                         _______ _______ _______ _____ _____    ______ ____
ROOT
ATOM      1  C   UNL     1       4.155   5.032  18.645  0.00  0.00    +0.000 A 
ATOM      2  N   UNL     1       4.037   6.344  19.060  0.00  0.00    +0.000 NA
ATOM      3  C   UNL     1       2.784   6.663  18.791  0.00  0.00    +0.000 A 
ATOM      4  O   UNL     1       2.061   5.639  18.244  0.00  0.00    +0.000 OA
ATOM      5  C   UNL     1       2.940   4.600  18.150  0.00  0.00    +0.000 A 
ATOM      6  C   UNL     1       2.406   3.346  17.586  0.00  0.00    +0.000 C 
ENDROOT
BRANCH   3   7
ATOM      7  C   UNL     1       2.077   7.926  18.986  0.00  0.00    +0.000 A 
ATOM      8  C   UNL     1       1.938   8.829  17.921  0.00  0.00    +0.000 A 
ATOM      9  C   UNL     1       1.257  10.043  18.088  0.00  0.00    +0.000 A 
ATOM     10  C   UNL     1       0.710  10.373  19.332  0.00  0.00    +0.000 A 
ATOM     11  C   UNL     1       0.830   9.473  20.396  0.00  0.00    +0.000 A 
ATOM     12  C   UNL     1       1.512   8.265  20.225  0.00  0.00    +0.000 A 
BRANCH  10  13
ATOM     13  C   UNL     1      -0.041  11.638  19.569  0.00  0.00    +0.000 C 
ATOM     14  O   UNL     1      -0.838  12.037  18.729  0.00  0.00    +0.000 OA
ATOM     15  N   UNL     1       0.193  12.283  20.763  0.00  0.00    +0.000 N 
ATOM     16  H   UNL     1       0.766  11.846  21.471  0.00  0.00    +0.000 HD
BRANCH  15  17
ATOM     17  C   UNL     1      -0.506  13.499  21.120  0.00  0.00    +0.000 C 
BRANCH  17  18
ATOM     18  C   UNL     1      -1.824  13.205  21.776  0.00  0.00    +0.000 A 
ATOM     19  C   UNL     1      -1.898  12.470  22.963  0.00  0.00    +0.000 A 
ATOM     20  C   UNL     1      -3.134  12.244  23.563  0.00  0.00    +0.000 A 
ATOM     21  C   UNL     1      -4.262  12.767  22.955  0.00  0.00    +0.000 A 
ATOM     22  N   UNL     1      -4.234  13.480  21.808  0.00  0.00    +0.000 NA
ATOM     23  C   UNL     1      -3.018  13.686  21.251  0.00  0.00    +0.000 A 
ENDBRANCH  17  18
ENDBRANCH  15  17
ENDBRANCH  10  13
ENDBRANCH   3   7
BRANCH   1  24
ATOM     24  C   UNL     1       5.426   4.298  18.828  0.00  0.00    +0.000 C 
BRANCH  24  25
ATOM     25  S   UNL     1       6.807   4.997  17.953  0.00  0.00    +0.000 S 
ATOM     26  O   UNL     1       8.023   4.373  18.446  0.00  0.00    +0.000 OA
ATOM     27  O   UNL     1       6.670   6.445  18.002  0.00  0.00    +0.000 OA
BRANCH  25  32
ATOM     28  C   UNL     1       5.960   3.563  12.109  0.00  0.00    +0.000 C 
ATOM     29  C   UNL     1       6.188   3.896  13.556  0.00  0.00    +0.000 A 
ATOM     30  C   UNL     1       5.418   3.291  14.556  0.00  0.00    +0.000 A 
ATOM     31  C   UNL     1       5.621   3.617  15.899  0.00  0.00    +0.000 A 
ATOM     32  C   UNL     1       6.608   4.544  16.245  0.00  0.00    +0.000 A 
ATOM     33  C   UNL     1       7.377   5.163  15.258  0.00  0.00    +0.000 A 
ATOM     34  C   UNL     1       7.165   4.836  13.915  0.00  0.00    +0.000 A 
ENDBRANCH  25  32
ENDBRANCH  24  25
ENDBRANCH   1  24
TORSDOF 7
ENDMDL
MODEL 7
REMARK VINA RESULT:      -8.1      2.971     12.023
REMARK  Name = 
REMARK  9 active torsions:
REMARK  status: ('A' for Active; 'I' for Inactive)
REMARK    1  A    between atoms: C_1  and  C_2
REMARK    2  A    between atoms: C_5  and  S_6
REMARK    3  A    between atoms: S_6  and  C_9
REMARK    4  A    between atoms: C_9  and  C_10
REMARK    5  A    between atoms: C_12  and  C_13
REMARK    6  A    between atoms: C_16  and  C_17
REMARK    7  A    between atoms: N_19  and  C_20
REMARK    8  A    between atoms: C_20  and  C_21
REMARK    9  A    between atoms: C_30  and  C_31
REMARK                            x       y       z     vdW  Elec       q    Type
REMARK                         _______ _______ _______ _____ _____    ______ ____
ROOT
ATOM      1  C   UNL     1       2.488   5.266  19.402  0.00  0.00    +0.000 A 
ATOM      2  N   UNL     1       2.258   6.619  19.237  0.00  0.00    +0.000 NA
ATOM      3  C   UNL     1       1.649   6.987  20.349  0.00  0.00    +0.000 A 
ATOM      4  O   UNL     1       1.480   5.970  21.248  0.00  0.00    +0.000 OA
ATOM      5  C   UNL     1       2.014   4.872  20.639  0.00  0.00    +0.000 A 
ATOM      6  C   UNL     1       1.967   3.614  21.407  0.00  0.00    +0.000 C 
ENDROOT
BRANCH   3   7
ATOM      7  C   UNL     1       1.137   8.296  20.748  0.00  0.00    +0.000 A 
ATOM      8  C   UNL     1       1.041   9.332  19.806  0.00  0.00    +0.000 A 
ATOM      9  C   UNL     1       0.547  10.593  20.169  0.00  0.00    +0.000 A 
ATOM     10  C   UNL     1       0.148  10.835  21.488  0.00  0.00    +0.000 A 
ATOM     11  C   UNL     1       0.225   9.805  22.430  0.00  0.00    +0.000 A 
ATOM     12  C   UNL     1       0.721   8.550  22.064  0.00  0.00    +0.000 A 
BRANCH  10  13
ATOM     13  C   UNL     1      -0.403  12.147  21.932  0.00  0.00    +0.000 C 
ATOM     14  O   UNL     1       0.319  13.137  21.937  0.00  0.00    +0.000 OA
ATOM     15  N   UNL     1      -1.731  12.172  22.291  0.00  0.00    +0.000 N 
ATOM     16  H   UNL     1      -2.310  11.357  22.149  0.00  0.00    +0.000 HD
BRANCH  15  17
ATOM     17  C   UNL     1      -2.386  13.397  22.701  0.00  0.00    +0.000 C 
BRANCH  17  18
ATOM     18  C   UNL     1      -3.881  13.261  22.664  0.00  0.00    +0.000 A 
ATOM     19  C   UNL     1      -4.546  12.851  21.505  0.00  0.00    +0.000 A 
ATOM     20  C   UNL     1      -5.930  12.703  21.514  0.00  0.00    +0.000 A 
ATOM     21  C   UNL     1      -6.608  12.967  22.692  0.00  0.00    +0.000 A 
ATOM     22  N   UNL     1      -6.004  13.367  23.832  0.00  0.00    +0.000 NA
ATOM     23  C   UNL     1      -4.658  13.499  23.792  0.00  0.00    +0.000 A 
ENDBRANCH  17  18
ENDBRANCH  15  17
ENDBRANCH  10  13
ENDBRANCH   3   7
BRANCH   1  24
ATOM     24  C   UNL     1       3.205   4.495  18.364  0.00  0.00    +0.000 C 
BRANCH  24  25
ATOM     25  S   UNL     1       4.953   4.336  18.646  0.00  0.00    +0.000 S 
ATOM     26  O   UNL     1       5.212   3.006  19.168  0.00  0.00    +0.000 OA
ATOM     27  O   UNL     1       5.383   5.503  19.402  0.00  0.00    +0.000 OA
BRANCH  25  32
ATOM     28  C   UNL     1       7.515   4.940  13.168  0.00  0.00    +0.000 C 
ATOM     29  C   UNL     1       6.893   4.765  14.525  0.00  0.00    +0.000 A 
ATOM     30  C   UNL     1       5.633   4.169  14.661  0.00  0.00    +0.000 A 
ATOM     31  C   UNL     1       5.050   4.024  15.922  0.00  0.00    +0.000 A 
ATOM     32  C   UNL     1       5.737   4.467  17.056  0.00  0.00    +0.000 A 
ATOM     33  C   UNL     1       6.989   5.072  16.936  0.00  0.00    +0.000 A 
ATOM     34  C   UNL     1       7.564   5.219  15.669  0.00  0.00    +0.000 A 
ENDBRANCH  25  32
ENDBRANCH  24  25
ENDBRANCH   1  24
TORSDOF 7
ENDMDL
MODEL 8
REMARK VINA RESULT:      -8.1      2.961      4.828
REMARK  Name = 
REMARK  9 active torsions:
REMARK  status: ('A' for Active; 'I' for Inactive)
REMARK    1  A    between atoms: C_1  and  C_2
REMARK    2  A    between atoms: C_5  and  S_6
REMARK    3  A    between atoms: S_6  and  C_9
REMARK    4  A    between atoms: C_9  and  C_10
REMARK    5  A    between atoms: C_12  and  C_13
REMARK    6  A    between atoms: C_16  and  C_17
REMARK    7  A    between atoms: N_19  and  C_20
REMARK    8  A    between atoms: C_20  and  C_21
REMARK    9  A    between atoms: C_30  and  C_31
REMARK                            x       y       z     vdW  Elec       q    Type
REMARK                         _______ _______ _______ _____ _____    ______ ____
ROOT
ATOM      1  C   UNL     1      -0.504  12.938  18.987  0.00  0.00    +0.000 A 
ATOM      2  N   UNL     1       0.628  12.169  18.798  0.00  0.00    +0.000 NA
ATOM      3  C   UNL     1       0.231  10.933  19.043  0.00  0.00    +0.000 A 
ATOM      4  O   UNL     1      -1.095  10.833  19.363  0.00  0.00    +0.000 OA
ATOM      5  C   UNL     1      -1.561  12.115  19.328  0.00  0.00    +0.000 A 
ATOM      6  C   UNL     1      -2.992  12.295  19.635  0.00  0.00    +0.000 C 
ENDROOT
BRANCH   3   7
ATOM      7  C   UNL     1       0.991   9.685  19.027  0.00  0.00    +0.000 A 
ATOM      8  C   UNL     1       1.064   8.889  20.180  0.00  0.00    +0.000 A 
ATOM      9  C   UNL     1       1.784   7.686  20.182  0.00  0.00    +0.000 A 
ATOM     10  C   UNL     1       2.446   7.266  19.024  0.00  0.00    +0.000 A 
ATOM     11  C   UNL     1       2.367   8.044  17.865  0.00  0.00    +0.000 A 
ATOM     12  C   UNL     1       1.650   9.245  17.870  0.00  0.00    +0.000 A 
BRANCH  10  13
ATOM     13  C   UNL     1       3.211   5.989  18.956  0.00  0.00    +0.000 C 
ATOM     14  O   UNL     1       2.693   4.949  19.345  0.00  0.00    +0.000 OA
ATOM     15  N   UNL     1       4.477   6.052  18.419  0.00  0.00    +0.000 N 
ATOM     16  H   UNL     1       4.808   6.910  18.000  0.00  0.00    +0.000 HD
BRANCH  15  17
ATOM     17  C   UNL     1       5.300   4.871  18.265  0.00  0.00    +0.000 C 
BRANCH  17  18
ATOM     18  C   UNL     1       5.899   4.791  16.891  0.00  0.00    +0.000 A 
ATOM     19  C   UNL     1       5.334   3.988  15.896  0.00  0.00    +0.000 A 
ATOM     20  C   UNL     1       5.895   3.964  14.621  0.00  0.00    +0.000 A 
ATOM     21  C   UNL     1       7.007   4.753  14.381  0.00  0.00    +0.000 A 
ATOM     22  N   UNL     1       7.583   5.541  15.314  0.00  0.00    +0.000 NA
ATOM     23  C   UNL     1       7.014   5.546  16.542  0.00  0.00    +0.000 A 
ENDBRANCH  17  18
ENDBRANCH  15  17
ENDBRANCH  10  13
ENDBRANCH   3   7
BRANCH   1  24
ATOM     24  C   UNL     1      -0.467  14.398  18.756  0.00  0.00    +0.000 C 
BRANCH  24  25
ATOM     25  S   UNL     1       0.511  15.301  19.936  0.00  0.00    +0.000 S 
ATOM     26  O   UNL     1       0.486  14.580  21.196  0.00  0.00    +0.000 OA
ATOM     27  O   UNL     1       0.077  16.690  19.892  0.00  0.00    +0.000 OA
BRANCH  25  32
ATOM     28  C   UNL     1       6.196  15.066  17.804  0.00  0.00    +0.000 C 
ATOM     29  C   UNL     1       4.797  15.149  18.343  0.00  0.00    +0.000 A 
ATOM     30  C   UNL     1       4.485  14.620  19.602  0.00  0.00    +0.000 A 
ATOM     31  C   UNL     1       3.179  14.683  20.093  0.00  0.00    +0.000 A 
ATOM     32  C   UNL     1       2.180  15.289  19.326  0.00  0.00    +0.000 A 
ATOM     33  C   UNL     1       2.473  15.812  18.065  0.00  0.00    +0.000 A 
ATOM     34  C   UNL     1       3.782  15.740  17.577  0.00  0.00    +0.000 A 
ENDBRANCH  25  32
ENDBRANCH  24  25
ENDBRANCH   1  24
TORSDOF 7
ENDMDL
MODEL 9
REMARK VINA RESULT:      -8.1      2.981     11.738
REMARK  Name = 
REMARK  9 active torsions:
REMARK  status: ('A' for Active; 'I' for Inactive)
REMARK    1  A    between atoms: C_1  and  C_2
REMARK    2  A    between atoms: C_5  and  S_6
REMARK    3  A    between atoms: S_6  and  C_9
REMARK    4  A    between atoms: C_9  and  C_10
REMARK    5  A    between atoms: C_12  and  C_13
REMARK    6  A    between atoms: C_16  and  C_17
REMARK    7  A    between atoms: N_19  and  C_20
REMARK    8  A    between atoms: C_20  and  C_21
REMARK    9  A    between atoms: C_30  and  C_31
REMARK                            x       y       z     vdW  Elec       q    Type
REMARK                         _______ _______ _______ _____ _____    ______ ____
ROOT
ATOM      1  C   UNL     1       4.157   4.771  18.913  0.00  0.00    +0.000 A 
ATOM      2  N   UNL     1       4.004   6.020  19.483  0.00  0.00    +0.000 NA
ATOM      3  C   UNL     1       2.713   6.276  19.374  0.00  0.00    +0.000 A 
ATOM      4  O   UNL     1       1.999   5.268  18.787  0.00  0.00    +0.000 OA
ATOM      5  C   UNL     1       2.925   4.309  18.492  0.00  0.00    +0.000 A 
ATOM      6  C   UNL     1       2.412   3.087  17.844  0.00  0.00    +0.000 C 
ENDROOT
BRANCH   3   7
ATOM      7  C   UNL     1       1.955   7.458  19.777  0.00  0.00    +0.000 A 
ATOM      8  C   UNL     1       1.791   8.529  18.886  0.00  0.00    +0.000 A 
ATOM      9  C   UNL     1       1.062   9.669  19.254  0.00  0.00    +0.000 A 
ATOM     10  C   UNL     1       0.491   9.753  20.528  0.00  0.00    +0.000 A 
ATOM     11  C   UNL     1       0.635   8.684  21.418  0.00  0.00    +0.000 A 
ATOM     12  C   UNL     1       1.365   7.551  21.047  0.00  0.00    +0.000 A 
BRANCH  10  13
ATOM     13  C   UNL     1      -0.311  10.928  20.972  0.00  0.00    +0.000 C 
ATOM     14  O   UNL     1      -0.509  11.110  22.168  0.00  0.00    +0.000 OA
ATOM     15  N   UNL     1      -0.767  11.775  19.988  0.00  0.00    +0.000 N 
ATOM     16  H   UNL     1      -0.471  11.646  19.031  0.00  0.00    +0.000 HD
BRANCH  15  17
ATOM     17  C   UNL     1      -1.522  12.970  20.302  0.00  0.00    +0.000 C 
BRANCH  17  18
ATOM     18  C   UNL     1      -3.001  12.711  20.269  0.00  0.00    +0.000 A 
ATOM     19  C   UNL     1      -3.621  12.171  19.139  0.00  0.00    +0.000 A 
ATOM     20  C   UNL     1      -4.989  11.912  19.155  0.00  0.00    +0.000 A 
ATOM     21  C   UNL     1      -5.695  12.199  20.310  0.00  0.00    +0.000 A 
ATOM     22  N   UNL     1      -5.135  12.722  21.422  0.00  0.00    +0.000 NA
ATOM     23  C   UNL     1      -3.804  12.961  21.377  0.00  0.00    +0.000 A 
ENDBRANCH  17  18
ENDBRANCH  15  17
ENDBRANCH  10  13
ENDBRANCH   3   7
BRANCH   1  24
ATOM     24  C   UNL     1       5.482   4.114  18.888  0.00  0.00    +0.000 C 
BRANCH  24  25
ATOM     25  S   UNL     1       6.719   4.995  17.964  0.00  0.00    +0.000 S 
ATOM     26  O   UNL     1       8.024   4.494  18.356  0.00  0.00    +0.000 OA
ATOM     27  O   UNL     1       6.427   6.416  18.084  0.00  0.00    +0.000 OA
BRANCH  25  32
ATOM     28  C   UNL     1       6.000   3.471  12.126  0.00  0.00    +0.000 C 
ATOM     29  C   UNL     1       6.160   3.870  13.565  0.00  0.00    +0.000 A 
ATOM     30  C   UNL     1       7.158   4.774  13.948  0.00  0.00    +0.000 A 
ATOM     31  C   UNL     1       7.316   5.128  15.289  0.00  0.00    +0.000 A 
ATOM     32  C   UNL     1       6.462   4.586  16.253  0.00  0.00    +0.000 A 
ATOM     33  C   UNL     1       5.468   3.675  15.889  0.00  0.00    +0.000 A 
ATOM     34  C   UNL     1       5.320   3.320  14.544  0.00  0.00    +0.000 A 
ENDBRANCH  25  32
ENDBRANCH  24  25
ENDBRANCH   1  24
TORSDOF 7
ENDMDL
