MODEL 1
REMARK VINA RESULT:      -7.4      0.000      0.000
REMARK  Name = 
REMARK  8 active torsions:
REMARK  status: ('A' for Active; 'I' for Inactive)
REMARK    1  A    between atoms: C_1  and  C_2
REMARK    2  A    between atoms: C_2  and  N_3
REMARK    3  A    between atoms: C_5  and  C_6
REMARK    4  A    between atoms: C_6  and  N_7
REMARK    5  A    between atoms: C_10  and  N_11
REMARK    6  A    between atoms: C_15  and  N_16
REMARK    7  A    between atoms: C_17  and  C_19
REMARK    8  A    between atoms: C_26  and  C_27
REMARK                            x       y       z     vdW  Elec       q    Type
REMARK                         _______ _______ _______ _____ _____    ______ ____
ROOT
ATOM      1  N   UNL     1       1.730   6.640  19.682  0.00  0.00    +0.000 NA
ATOM      2  C   UNL     1       2.649   6.048  18.704  0.00  0.00    +0.000 C 
ATOM      3  C   UNL     1       2.189   4.682  18.188  0.00  0.00    +0.000 C 
ATOM      4  C   UNL     1       1.834   3.704  19.308  0.00  0.00    +0.000 C 
ATOM      5  C   UNL     1       0.871   4.367  20.306  0.00  0.00    +0.000 C 
ATOM      6  C   UNL     1       1.326   5.744  20.780  0.00  0.00    +0.000 C 
ENDROOT
BRANCH   4   7
ATOM      7  N   UNL     1       3.009   3.044  19.888  0.00  0.00    +0.000 N 
ATOM      8  N   UNL     1       2.942   2.527  21.135  0.00  0.00    +0.000 NA
ATOM      9  C   UNL     1       4.064   1.816  21.261  0.00  0.00    +0.000 A 
ATOM     10  C   UNL     1       4.889   1.917  20.144  0.00  0.00    +0.000 A 
ATOM     11  C   UNL     1       4.236   2.780  19.287  0.00  0.00    +0.000 A 
BRANCH  11  12
ATOM     12  N   UNL     1       4.760   3.253  18.098  0.00  0.00    +0.000 N 
ATOM     13  C   UNL     1       5.794   4.289  18.104  0.00  0.00    +0.000 C 
ATOM     14  O   UNL     1       6.269   4.709  19.129  0.00  0.00    +0.000 OA
ATOM     15  H   UNL     1       4.468   2.843  17.224  0.00  0.00    +0.000 HD
BRANCH  13  16
ATOM     16  C   UNL     1       6.293   4.666  16.758  0.00  0.00    +0.000 C 
ATOM     17  C   UNL     1       6.005   3.589  15.714  0.00  0.00    +0.000 C 
ATOM     18  C   UNL     1       5.943   4.368  14.412  0.00  0.00    +0.000 C 
ATOM     19  C   UNL     1       5.471   5.773  14.776  0.00  0.00    +0.000 C 
ATOM     20  C   UNL     1       5.453   5.851  16.287  0.00  0.00    +0.000 C 
ENDBRANCH  13  16
ENDBRANCH  11  12
ENDBRANCH   4   7
BRANCH   1  21
ATOM     21  C   UNL     1       2.267   7.906  20.244  0.00  0.00    +0.000 C 
BRANCH  21  24
ATOM     22  N   UNL     1      -0.246   9.952  21.985  0.00  0.00    +0.000 N 
ATOM     23  C   UNL     1       0.720   8.984  22.014  0.00  0.00    +0.000 A 
ATOM     24  C   UNL     1       1.185   8.836  20.722  0.00  0.00    +0.000 A 
ATOM     25  C   UNL     1       0.357   9.720  19.967  0.00  0.00    +0.000 A 
ATOM     26  C   UNL     1       0.362   9.906  18.501  0.00  0.00    +0.000 C 
ATOM     27  N   UNL     1      -0.495  10.410  20.746  0.00  0.00    +0.000 NA
BRANCH  22  29
ATOM     28  C   UNL     1      -1.716  11.734  22.851  0.00  0.00    +0.000 C 
ATOM     29  C   UNL     1      -0.957  10.454  23.149  0.00  0.00    +0.000 C 
ENDBRANCH  22  29
ENDBRANCH  21  24
ENDBRANCH   1  21
TORSDOF 6
ENDMDL
MODEL 2
REMARK VINA RESULT:      -7.3      0.773      1.717
REMARK  Name = 
REMARK  8 active torsions:
REMARK  status: ('A' for Active; 'I' for Inactive)
REMARK    1  A    between atoms: C_1  and  C_2
REMARK    2  A    between atoms: C_2  and  N_3
REMARK    3  A    between atoms: C_5  and  C_6
REMARK    4  A    between atoms: C_6  and  N_7
REMARK    5  A    between atoms: C_10  and  N_11
REMARK    6  A    between atoms: C_15  and  N_16
REMARK    7  A    between atoms: C_17  and  C_19
REMARK    8  A    between atoms: C_26  and  C_27
REMARK                            x       y       z     vdW  Elec       q    Type
REMARK                         _______ _______ _______ _____ _____    ______ ____
ROOT
ATOM      1  N   UNL     1       1.568   6.613  19.901  0.00  0.00    +0.000 NA
ATOM      2  C   UNL     1       2.593   6.169  18.949  0.00  0.00    +0.000 C 
ATOM      3  C   UNL     1       2.252   4.844  18.263  0.00  0.00    +0.000 C 
ATOM      4  C   UNL     1       1.865   3.739  19.247  0.00  0.00    +0.000 C 
ATOM      5  C   UNL     1       0.791   4.249  20.222  0.00  0.00    +0.000 C 
ATOM      6  C   UNL     1       1.129   5.589  20.866  0.00  0.00    +0.000 C 
ENDROOT
BRANCH   4   7
ATOM      7  N   UNL     1       3.025   3.080  19.855  0.00  0.00    +0.000 N 
ATOM      8  N   UNL     1       2.929   2.564  21.101  0.00  0.00    +0.000 NA
ATOM      9  C   UNL     1       4.047   1.852  21.254  0.00  0.00    +0.000 A 
ATOM     10  C   UNL     1       4.898   1.952  20.157  0.00  0.00    +0.000 A 
ATOM     11  C   UNL     1       4.266   2.814  19.283  0.00  0.00    +0.000 A 
BRANCH  11  12
ATOM     12  N   UNL     1       4.818   3.284  18.106  0.00  0.00    +0.000 N 
ATOM     13  C   UNL     1       5.815   4.355  18.131  0.00  0.00    +0.000 C 
ATOM     14  O   UNL     1       6.237   4.809  19.166  0.00  0.00    +0.000 OA
ATOM     15  H   UNL     1       4.572   2.850  17.230  0.00  0.00    +0.000 HD
BRANCH  13  16
ATOM     16  C   UNL     1       6.351   4.727  16.798  0.00  0.00    +0.000 C 
ATOM     17  C   UNL     1       6.067   3.658  15.745  0.00  0.00    +0.000 C 
ATOM     18  C   UNL     1       6.048   4.442  14.444  0.00  0.00    +0.000 C 
ATOM     19  C   UNL     1       5.594   5.854  14.802  0.00  0.00    +0.000 C 
ATOM     20  C   UNL     1       5.544   5.929  16.312  0.00  0.00    +0.000 C 
ENDBRANCH  13  16
ENDBRANCH  11  12
ENDBRANCH   4   7
BRANCH   1  21
ATOM     21  C   UNL     1       1.988   7.838  20.628  0.00  0.00    +0.000 C 
BRANCH  21  24
ATOM     22  N   UNL     1      -0.169  10.619  19.559  0.00  0.00    +0.000 N 
ATOM     23  C   UNL     1       0.785   9.683  19.272  0.00  0.00    +0.000 A 
ATOM     24  C   UNL     1       1.032   8.985  20.437  0.00  0.00    +0.000 A 
ATOM     25  C   UNL     1       0.218   9.650  21.403  0.00  0.00    +0.000 A 
ATOM     26  C   UNL     1       0.150   9.369  22.852  0.00  0.00    +0.000 C 
ATOM     27  N   UNL     1      -0.525  10.628  20.856  0.00  0.00    +0.000 NA
BRANCH  22  29
ATOM     28  C   UNL     1      -2.051  10.998  18.009  0.00  0.00    +0.000 C 
ATOM     29  C   UNL     1      -0.756  11.533  18.593  0.00  0.00    +0.000 C 
ENDBRANCH  22  29
ENDBRANCH  21  24
ENDBRANCH   1  21
TORSDOF 6
ENDMDL
MODEL 3
REMARK VINA RESULT:      -7.1      2.133      3.217
REMARK  Name = 
REMARK  8 active torsions:
REMARK  status: ('A' for Active; 'I' for Inactive)
REMARK    1  A    between atoms: C_1  and  C_2
REMARK    2  A    between atoms: C_2  and  N_3
REMARK    3  A    between atoms: C_5  and  C_6
REMARK    4  A    between atoms: C_6  and  N_7
REMARK    5  A    between atoms: C_10  and  N_11
REMARK    6  A    between atoms: C_15  and  N_16
REMARK    7  A    between atoms: C_17  and  C_19
REMARK    8  A    between atoms: C_26  and  C_27
REMARK                            x       y       z     vdW  Elec       q    Type
REMARK                         _______ _______ _______ _____ _____    ______ ____
ROOT
ATOM      1  N   UNL     1       2.051   7.015  19.519  0.00  0.00    +0.000 NA
ATOM      2  C   UNL     1       2.940   7.595  18.505  0.00  0.00    +0.000 C 
ATOM      3  C   UNL     1       3.250   6.638  17.351  0.00  0.00    +0.000 C 
ATOM      4  C   UNL     1       3.732   5.265  17.821  0.00  0.00    +0.000 C 
ATOM      5  C   UNL     1       2.771   4.699  18.879  0.00  0.00    +0.000 C 
ATOM      6  C   UNL     1       2.442   5.679  20.001  0.00  0.00    +0.000 C 
ENDROOT
BRANCH   4   7
ATOM      7  N   UNL     1       5.157   5.245  18.168  0.00  0.00    +0.000 N 
ATOM      8  N   UNL     1       5.590   5.900  19.268  0.00  0.00    +0.000 NA
ATOM      9  C   UNL     1       6.852   5.496  19.421  0.00  0.00    +0.000 A 
ATOM     10  C   UNL     1       7.267   4.644  18.401  0.00  0.00    +0.000 A 
ATOM     11  C   UNL     1       6.187   4.546  17.546  0.00  0.00    +0.000 A 
BRANCH  11  12
ATOM     12  N   UNL     1       6.203   3.885  16.333  0.00  0.00    +0.000 N 
ATOM     13  C   UNL     1       6.545   4.600  15.102  0.00  0.00    +0.000 C 
ATOM     14  O   UNL     1       6.888   5.756  15.112  0.00  0.00    +0.000 OA
ATOM     15  H   UNL     1       6.031   2.891  16.302  0.00  0.00    +0.000 HD
BRANCH  13  16
ATOM     16  C   UNL     1       6.564   3.753  13.884  0.00  0.00    +0.000 C 
ATOM     17  C   UNL     1       5.170   3.576  13.284  0.00  0.00    +0.000 C 
ATOM     18  C   UNL     1       5.449   3.318  11.814  0.00  0.00    +0.000 C 
ATOM     19  C   UNL     1       6.756   4.039  11.494  0.00  0.00    +0.000 C 
ATOM     20  C   UNL     1       7.315   4.535  12.809  0.00  0.00    +0.000 C 
ENDBRANCH  13  16
ENDBRANCH  11  12
ENDBRANCH   4   7
BRANCH   1  21
ATOM     21  C   UNL     1       1.868   7.929  20.675  0.00  0.00    +0.000 C 
BRANCH  21  24
ATOM     22  N   UNL     1      -0.477  10.477  19.432  0.00  0.00    +0.000 N 
ATOM     23  C   UNL     1       0.517   9.567  19.198  0.00  0.00    +0.000 A 
ATOM     24  C   UNL     1       0.844   9.001  20.414  0.00  0.00    +0.000 A 
ATOM     25  C   UNL     1       0.029   9.716  21.344  0.00  0.00    +0.000 A 
ATOM     26  C   UNL     1       0.029   9.576  22.815  0.00  0.00    +0.000 C 
ATOM     27  N   UNL     1      -0.786  10.596  20.735  0.00  0.00    +0.000 NA
BRANCH  22  29
ATOM     28  C   UNL     1      -1.932  10.390  17.443  0.00  0.00    +0.000 C 
ATOM     29  C   UNL     1      -1.147  11.259  18.407  0.00  0.00    +0.000 C 
ENDBRANCH  22  29
ENDBRANCH  21  24
ENDBRANCH   1  21
TORSDOF 6
ENDMDL
MODEL 4
REMARK VINA RESULT:      -7.1      0.971      1.094
REMARK  Name = 
REMARK  8 active torsions:
REMARK  status: ('A' for Active; 'I' for Inactive)
REMARK    1  A    between atoms: C_1  and  C_2
REMARK    2  A    between atoms: C_2  and  N_3
REMARK    3  A    between atoms: C_5  and  C_6
REMARK    4  A    between atoms: C_6  and  N_7
REMARK    5  A    between atoms: C_10  and  N_11
REMARK    6  A    between atoms: C_15  and  N_16
REMARK    7  A    between atoms: C_17  and  C_19
REMARK    8  A    between atoms: C_26  and  C_27
REMARK                            x       y       z     vdW  Elec       q    Type
REMARK                         _______ _______ _______ _____ _____    ______ ____
ROOT
ATOM      1  N   UNL     1       1.566   6.614  19.876  0.00  0.00    +0.000 NA
ATOM      2  C   UNL     1       2.581   6.180  18.910  0.00  0.00    +0.000 C 
ATOM      3  C   UNL     1       2.245   4.849  18.232  0.00  0.00    +0.000 C 
ATOM      4  C   UNL     1       1.886   3.743  19.225  0.00  0.00    +0.000 C 
ATOM      5  C   UNL     1       0.821   4.242  20.215  0.00  0.00    +0.000 C 
ATOM      6  C   UNL     1       1.154   5.588  20.851  0.00  0.00    +0.000 C 
ENDROOT
BRANCH   4   7
ATOM      7  N   UNL     1       3.064   3.098  19.816  0.00  0.00    +0.000 N 
ATOM      8  N   UNL     1       2.966   2.500  21.024  0.00  0.00    +0.000 NA
ATOM      9  C   UNL     1       4.112   1.831  21.158  0.00  0.00    +0.000 A 
ATOM     10  C   UNL     1       4.980   2.038  20.088  0.00  0.00    +0.000 A 
ATOM     11  C   UNL     1       4.326   2.925  19.257  0.00  0.00    +0.000 A 
BRANCH  11  12
ATOM     12  N   UNL     1       4.879   3.494  18.125  0.00  0.00    +0.000 N 
ATOM     13  C   UNL     1       5.874   4.561  18.242  0.00  0.00    +0.000 C 
ATOM     14  O   UNL     1       6.294   4.926  19.312  0.00  0.00    +0.000 OA
ATOM     15  H   UNL     1       4.636   3.135  17.214  0.00  0.00    +0.000 HD
BRANCH  13  16
ATOM     16  C   UNL     1       6.412   5.045  16.946  0.00  0.00    +0.000 C 
ATOM     17  C   UNL     1       6.707   3.898  15.981  0.00  0.00    +0.000 C 
ATOM     18  C   UNL     1       6.577   4.546  14.613  0.00  0.00    +0.000 C 
ATOM     19  C   UNL     1       5.574   5.685  14.774  0.00  0.00    +0.000 C 
ATOM     20  C   UNL     1       5.286   5.810  16.254  0.00  0.00    +0.000 C 
ENDBRANCH  13  16
ENDBRANCH  11  12
ENDBRANCH   4   7
BRANCH   1  21
ATOM     21  C   UNL     1       1.983   7.846  20.594  0.00  0.00    +0.000 C 
BRANCH  21  24
ATOM     22  N   UNL     1      -0.310  10.706  20.291  0.00  0.00    +0.000 N 
ATOM     23  C   UNL     1       0.173   9.647  21.008  0.00  0.00    +0.000 A 
ATOM     24  C   UNL     1       1.143   9.042  20.234  0.00  0.00    +0.000 A 
ATOM     25  C   UNL     1       1.104   9.781  19.013  0.00  0.00    +0.000 A 
ATOM     26  C   UNL     1       1.884   9.513  17.788  0.00  0.00    +0.000 C 
ATOM     27  N   UNL     1       0.233  10.804  19.065  0.00  0.00    +0.000 NA
BRANCH  22  29
ATOM     28  C   UNL     1      -2.207  12.147  19.648  0.00  0.00    +0.000 C 
ATOM     29  C   UNL     1      -1.313  11.645  20.767  0.00  0.00    +0.000 C 
ENDBRANCH  22  29
ENDBRANCH  21  24
ENDBRANCH   1  21
TORSDOF 6
ENDMDL
MODEL 5
REMARK VINA RESULT:      -7.0      2.394      6.976
REMARK  Name = 
REMARK  8 active torsions:
REMARK  status: ('A' for Active; 'I' for Inactive)
REMARK    1  A    between atoms: C_1  and  C_2
REMARK    2  A    between atoms: C_2  and  N_3
REMARK    3  A    between atoms: C_5  and  C_6
REMARK    4  A    between atoms: C_6  and  N_7
REMARK    5  A    between atoms: C_10  and  N_11
REMARK    6  A    between atoms: C_15  and  N_16
REMARK    7  A    between atoms: C_17  and  C_19
REMARK    8  A    between atoms: C_26  and  C_27
REMARK                            x       y       z     vdW  Elec       q    Type
REMARK                         _______ _______ _______ _____ _____    ______ ____
ROOT
ATOM      1  N   UNL     1       3.882   3.671  16.838  0.00  0.00    +0.000 NA
ATOM      2  C   UNL     1       3.107   2.559  17.401  0.00  0.00    +0.000 C 
ATOM      3  C   UNL     1       1.641   2.912  17.663  0.00  0.00    +0.000 C 
ATOM      4  C   UNL     1       1.467   4.200  18.469  0.00  0.00    +0.000 C 
ATOM      5  C   UNL     1       2.295   5.334  17.843  0.00  0.00    +0.000 C 
ATOM      6  C   UNL     1       3.743   4.952  17.552  0.00  0.00    +0.000 C 
ENDROOT
BRANCH   4   7
ATOM      7  N   UNL     1       1.636   4.000  19.912  0.00  0.00    +0.000 N 
ATOM      8  N   UNL     1       1.407   2.783  20.453  0.00  0.00    +0.000 NA
ATOM      9  C   UNL     1       1.866   2.882  21.702  0.00  0.00    +0.000 A 
ATOM     10  C   UNL     1       2.325   4.162  22.002  0.00  0.00    +0.000 A 
ATOM     11  C   UNL     1       2.100   4.905  20.861  0.00  0.00    +0.000 A 
BRANCH  11  12
ATOM     12  N   UNL     1       2.306   6.269  20.759  0.00  0.00    +0.000 N 
ATOM     13  C   UNL     1       1.179   7.198  20.857  0.00  0.00    +0.000 C 
ATOM     14  O   UNL     1       0.060   6.818  21.098  0.00  0.00    +0.000 OA
ATOM     15  H   UNL     1       3.244   6.628  20.670  0.00  0.00    +0.000 HD
BRANCH  13  16
ATOM     16  C   UNL     1       1.555   8.631  20.773  0.00  0.00    +0.000 C 
ATOM     17  C   UNL     1       1.088   9.273  19.469  0.00  0.00    +0.000 C 
ATOM     18  C   UNL     1       0.937  10.740  19.832  0.00  0.00    +0.000 C 
ATOM     19  C   UNL     1       0.599  10.780  21.320  0.00  0.00    +0.000 C 
ATOM     20  C   UNL     1       0.748   9.367  21.841  0.00  0.00    +0.000 C 
ENDBRANCH  13  16
ENDBRANCH  11  12
ENDBRANCH   4   7
BRANCH   1  21
ATOM     21  C   UNL     1       5.321   3.326  16.706  0.00  0.00    +0.000 C 
BRANCH  21  24
ATOM     22  N   UNL     1       7.392   6.282  17.418  0.00  0.00    +0.000 N 
ATOM     23  C   UNL     1       6.534   5.306  17.845  0.00  0.00    +0.000 A 
ATOM     24  C   UNL     1       6.215   4.536  16.744  0.00  0.00    +0.000 A 
ATOM     25  C   UNL     1       6.881   5.199  15.670  0.00  0.00    +0.000 A 
ATOM     26  C   UNL     1       6.819   4.849  14.235  0.00  0.00    +0.000 C 
ATOM     27  N   UNL     1       7.612   6.246  16.092  0.00  0.00    +0.000 NA
BRANCH  22  29
ATOM     28  C   UNL     1       7.910   8.677  17.699  0.00  0.00    +0.000 C 
ATOM     29  C   UNL     1       8.014   7.277  18.275  0.00  0.00    +0.000 C 
ENDBRANCH  22  29
ENDBRANCH  21  24
ENDBRANCH   1  21
TORSDOF 6
ENDMDL
MODEL 6
REMARK VINA RESULT:      -7.0      2.272      7.367
REMARK  Name = 
REMARK  8 active torsions:
REMARK  status: ('A' for Active; 'I' for Inactive)
REMARK    1  A    between atoms: C_1  and  C_2
REMARK    2  A    between atoms: C_2  and  N_3
REMARK    3  A    between atoms: C_5  and  C_6
REMARK    4  A    between atoms: C_6  and  N_7
REMARK    5  A    between atoms: C_10  and  N_11
REMARK    6  A    between atoms: C_15  and  N_16
REMARK    7  A    between atoms: C_17  and  C_19
REMARK    8  A    between atoms: C_26  and  C_27
REMARK                            x       y       z     vdW  Elec       q    Type
REMARK                         _______ _______ _______ _____ _____    ______ ____
ROOT
ATOM      1  N   UNL     1       4.116   3.363  17.035  0.00  0.00    +0.000 NA
ATOM      2  C   UNL     1       3.714   2.146  17.748  0.00  0.00    +0.000 C 
ATOM      3  C   UNL     1       2.198   1.935  17.782  0.00  0.00    +0.000 C 
ATOM      4  C   UNL     1       1.430   3.165  18.267  0.00  0.00    +0.000 C 
ATOM      5  C   UNL     1       1.884   4.413  17.493  0.00  0.00    +0.000 C 
ATOM      6  C   UNL     1       3.399   4.587  17.436  0.00  0.00    +0.000 C 
ENDROOT
BRANCH   4   7
ATOM      7  N   UNL     1       1.406   3.288  19.729  0.00  0.00    +0.000 N 
ATOM      8  N   UNL     1       1.354   2.175  20.495  0.00  0.00    +0.000 NA
ATOM      9  C   UNL     1       1.578   2.614  21.735  0.00  0.00    +0.000 A 
ATOM     10  C   UNL     1       1.707   3.999  21.796  0.00  0.00    +0.000 A 
ATOM     11  C   UNL     1       1.516   4.439  20.502  0.00  0.00    +0.000 A 
BRANCH  11  12
ATOM     12  N   UNL     1       1.446   5.768  20.126  0.00  0.00    +0.000 N 
ATOM     13  C   UNL     1       2.669   6.548  19.930  0.00  0.00    +0.000 C 
ATOM     14  O   UNL     1       3.764   6.049  20.019  0.00  0.00    +0.000 OA
ATOM     15  H   UNL     1       0.549   6.187  19.931  0.00  0.00    +0.000 HD
BRANCH  13  16
ATOM     16  C   UNL     1       2.442   7.945  19.485  0.00  0.00    +0.000 C 
ATOM     17  C   UNL     1       1.934   8.016  18.046  0.00  0.00    +0.000 C 
ATOM     18  C   UNL     1       1.158   9.321  18.010  0.00  0.00    +0.000 C 
ATOM     19  C   UNL     1       0.637   9.547  19.427  0.00  0.00    +0.000 C 
ATOM     20  C   UNL     1       1.272   8.489  20.302  0.00  0.00    +0.000 C 
ENDBRANCH  13  16
ENDBRANCH  11  12
ENDBRANCH   4   7
BRANCH   1  21
ATOM     21  C   UNL     1       5.581   3.592  17.123  0.00  0.00    +0.000 C 
BRANCH  21  24
ATOM     22  N   UNL     1       6.764   4.406  13.736  0.00  0.00    +0.000 N 
ATOM     23  C   UNL     1       6.138   3.548  14.598  0.00  0.00    +0.000 A 
ATOM     24  C   UNL     1       6.163   4.137  15.847  0.00  0.00    +0.000 A 
ATOM     25  C   UNL     1       6.916   5.331  15.636  0.00  0.00    +0.000 A 
ATOM     26  C   UNL     1       7.325   6.315  16.660  0.00  0.00    +0.000 C 
ATOM     27  N   UNL     1       7.258   5.497  14.346  0.00  0.00    +0.000 NA
BRANCH  22  29
ATOM     28  C   UNL     1       6.047   3.045  11.808  0.00  0.00    +0.000 C 
ATOM     29  C   UNL     1       6.907   4.191  12.306  0.00  0.00    +0.000 C 
ENDBRANCH  22  29
ENDBRANCH  21  24
ENDBRANCH   1  21
TORSDOF 6
ENDMDL
MODEL 7
REMARK VINA RESULT:      -7.0      2.417      7.841
REMARK  Name = 
REMARK  8 active torsions:
REMARK  status: ('A' for Active; 'I' for Inactive)
REMARK    1  A    between atoms: C_1  and  C_2
REMARK    2  A    between atoms: C_2  and  N_3
REMARK    3  A    between atoms: C_5  and  C_6
REMARK    4  A    between atoms: C_6  and  N_7
REMARK    5  A    between atoms: C_10  and  N_11
REMARK    6  A    between atoms: C_15  and  N_16
REMARK    7  A    between atoms: C_17  and  C_19
REMARK    8  A    between atoms: C_26  and  C_27
REMARK                            x       y       z     vdW  Elec       q    Type
REMARK                         _______ _______ _______ _____ _____    ______ ____
ROOT
ATOM      1  N   UNL     1       4.060   3.973  17.093  0.00  0.00    +0.000 NA
ATOM      2  C   UNL     1       3.361   2.760  17.535  0.00  0.00    +0.000 C 
ATOM      3  C   UNL     1       1.847   2.943  17.660  0.00  0.00    +0.000 C 
ATOM      4  C   UNL     1       1.455   4.167  18.489  0.00  0.00    +0.000 C 
ATOM      5  C   UNL     1       2.209   5.410  17.991  0.00  0.00    +0.000 C 
ATOM      6  C   UNL     1       3.712   5.198  17.835  0.00  0.00    +0.000 C 
ENDROOT
BRANCH   4   7
ATOM      7  N   UNL     1       1.504   3.920  19.935  0.00  0.00    +0.000 N 
ATOM      8  N   UNL     1       1.206   2.693  20.417  0.00  0.00    +0.000 NA
ATOM      9  C   UNL     1       1.566   2.743  21.700  0.00  0.00    +0.000 A 
ATOM     10  C   UNL     1       2.030   4.001  22.076  0.00  0.00    +0.000 A 
ATOM     11  C   UNL     1       1.913   4.784  20.945  0.00  0.00    +0.000 A 
BRANCH  11  12
ATOM     12  N   UNL     1       2.157   6.144  20.903  0.00  0.00    +0.000 N 
ATOM     13  C   UNL     1       1.048   7.098  20.960  0.00  0.00    +0.000 C 
ATOM     14  O   UNL     1      -0.093   6.740  21.116  0.00  0.00    +0.000 OA
ATOM     15  H   UNL     1       3.107   6.482  20.887  0.00  0.00    +0.000 HD
BRANCH  13  16
ATOM     16  C   UNL     1       1.463   8.524  20.950  0.00  0.00    +0.000 C 
ATOM     17  C   UNL     1       1.124   9.211  19.629  0.00  0.00    +0.000 C 
ATOM     18  C   UNL     1       0.976  10.672  20.020  0.00  0.00    +0.000 C 
ATOM     19  C   UNL     1       0.512  10.680  21.474  0.00  0.00    +0.000 C 
ATOM     20  C   UNL     1       0.584   9.251  21.965  0.00  0.00    +0.000 C 
ENDBRANCH  13  16
ENDBRANCH  11  12
ENDBRANCH   4   7
BRANCH   1  21
ATOM     21  C   UNL     1       5.534   3.789  17.095  0.00  0.00    +0.000 C 
BRANCH  21  24
ATOM     22  N   UNL     1       6.853   4.409  13.718  0.00  0.00    +0.000 N 
ATOM     23  C   UNL     1       6.157   3.620  14.591  0.00  0.00    +0.000 A 
ATOM     24  C   UNL     1       6.180   4.253  15.818  0.00  0.00    +0.000 A 
ATOM     25  C   UNL     1       7.004   5.395  15.587  0.00  0.00    +0.000 A 
ATOM     26  C   UNL     1       7.438   6.393  16.587  0.00  0.00    +0.000 C 
ATOM     27  N   UNL     1       7.390   5.494  14.303  0.00  0.00    +0.000 NA
BRANCH  22  29
ATOM     28  C   UNL     1       6.095   3.038  11.813  0.00  0.00    +0.000 C 
ATOM     29  C   UNL     1       7.024   4.134  12.301  0.00  0.00    +0.000 C 
ENDBRANCH  22  29
ENDBRANCH  21  24
ENDBRANCH   1  21
TORSDOF 6
ENDMDL
MODEL 8
REMARK VINA RESULT:      -6.9      2.859      7.013
REMARK  Name = 
REMARK  8 active torsions:
REMARK  status: ('A' for Active; 'I' for Inactive)
REMARK    1  A    between atoms: C_1  and  C_2
REMARK    2  A    between atoms: C_2  and  N_3
REMARK    3  A    between atoms: C_5  and  C_6
REMARK    4  A    between atoms: C_6  and  N_7
REMARK    5  A    between atoms: C_10  and  N_11
REMARK    6  A    between atoms: C_15  and  N_16
REMARK    7  A    between atoms: C_17  and  C_19
REMARK    8  A    between atoms: C_26  and  C_27
REMARK                            x       y       z     vdW  Elec       q    Type
REMARK                         _______ _______ _______ _____ _____    ______ ____
ROOT
ATOM      1  N   UNL     1       4.957   4.838  17.029  0.00  0.00    +0.000 NA
ATOM      2  C   UNL     1       4.241   3.561  17.126  0.00  0.00    +0.000 C 
ATOM      3  C   UNL     1       2.720   3.711  17.048  0.00  0.00    +0.000 C 
ATOM      4  C   UNL     1       2.167   4.755  18.019  0.00  0.00    +0.000 C 
ATOM      5  C   UNL     1       2.946   6.073  17.882  0.00  0.00    +0.000 C 
ATOM      6  C   UNL     1       4.462   5.900  17.923  0.00  0.00    +0.000 C 
ENDROOT
BRANCH   4   7
ATOM      7  N   UNL     1       2.006   4.241  19.384  0.00  0.00    +0.000 N 
ATOM      8  N   UNL     1       1.766   2.925  19.582  0.00  0.00    +0.000 NA
ATOM      9  C   UNL     1       1.905   2.755  20.898  0.00  0.00    +0.000 A 
ATOM     10  C   UNL     1       2.165   3.950  21.565  0.00  0.00    +0.000 A 
ATOM     11  C   UNL     1       2.151   4.923  20.587  0.00  0.00    +0.000 A 
BRANCH  11  12
ATOM     12  N   UNL     1       2.253   6.281  20.828  0.00  0.00    +0.000 N 
ATOM     13  C   UNL     1       1.051   7.110  20.923  0.00  0.00    +0.000 C 
ATOM     14  O   UNL     1      -0.056   6.634  20.866  0.00  0.00    +0.000 OA
ATOM     15  H   UNL     1       3.159   6.693  20.995  0.00  0.00    +0.000 HD
BRANCH  13  16
ATOM     16  C   UNL     1       1.311   8.538  21.229  0.00  0.00    +0.000 C 
ATOM     17  C   UNL     1       1.040   9.442  20.028  0.00  0.00    +0.000 C 
ATOM     18  C   UNL     1       0.699  10.780  20.663  0.00  0.00    +0.000 C 
ATOM     19  C   UNL     1       0.089  10.462  22.026  0.00  0.00    +0.000 C 
ATOM     20  C   UNL     1       0.260   8.975  22.247  0.00  0.00    +0.000 C 
ENDBRANCH  13  16
ENDBRANCH  11  12
ENDBRANCH   4   7
BRANCH   1  21
ATOM     21  C   UNL     1       6.420   4.663  17.225  0.00  0.00    +0.000 C 
BRANCH  21  24
ATOM     22  N   UNL     1       7.863   7.997  17.805  0.00  0.00    +0.000 N 
ATOM     23  C   UNL     1       7.168   7.130  17.008  0.00  0.00    +0.000 A 
ATOM     24  C   UNL     1       7.101   5.925  17.681  0.00  0.00    +0.000 A 
ATOM     25  C   UNL     1       7.874   6.158  18.858  0.00  0.00    +0.000 A 
ATOM     26  C   UNL     1       8.208   5.175  19.909  0.00  0.00    +0.000 C 
ATOM     27  N   UNL     1       8.315   7.426  18.935  0.00  0.00    +0.000 NA
BRANCH  22  29
ATOM     28  C   UNL     1       8.955  10.077  18.556  0.00  0.00    +0.000 C 
ATOM     29  C   UNL     1       8.115   9.394  17.493  0.00  0.00    +0.000 C 
ENDBRANCH  22  29
ENDBRANCH  21  24
ENDBRANCH   1  21
TORSDOF 6
ENDMDL
MODEL 9
REMARK VINA RESULT:      -6.9      2.063      3.227
REMARK  Name = 
REMARK  8 active torsions:
REMARK  status: ('A' for Active; 'I' for Inactive)
REMARK    1  A    between atoms: C_1  and  C_2
REMARK    2  A    between atoms: C_2  and  N_3
REMARK    3  A    between atoms: C_5  and  C_6
REMARK    4  A    between atoms: C_6  and  N_7
REMARK    5  A    between atoms: C_10  and  N_11
REMARK    6  A    between atoms: C_15  and  N_16
REMARK    7  A    between atoms: C_17  and  C_19
REMARK    8  A    between atoms: C_26  and  C_27
REMARK                            x       y       z     vdW  Elec       q    Type
REMARK                         _______ _______ _______ _____ _____    ______ ____
ROOT
ATOM      1  N   UNL     1       2.023   6.967  19.831  0.00  0.00    +0.000 NA
ATOM      2  C   UNL     1       2.786   7.605  18.752  0.00  0.00    +0.000 C 
ATOM      3  C   UNL     1       3.128   6.652  17.605  0.00  0.00    +0.000 C 
ATOM      4  C   UNL     1       3.778   5.351  18.077  0.00  0.00    +0.000 C 
ATOM      5  C   UNL     1       2.945   4.720  19.204  0.00  0.00    +0.000 C 
ATOM      6  C   UNL     1       2.580   5.694  20.320  0.00  0.00    +0.000 C 
ENDROOT
BRANCH   4   7
ATOM      7  N   UNL     1       5.215   5.489  18.338  0.00  0.00    +0.000 N 
ATOM      8  N   UNL     1       5.661   5.583  19.611  0.00  0.00    +0.000 NA
ATOM      9  C   UNL     1       6.985   5.461  19.510  0.00  0.00    +0.000 A 
ATOM     10  C   UNL     1       7.413   5.357  18.188  0.00  0.00    +0.000 A 
ATOM     11  C   UNL     1       6.266   5.456  17.427  0.00  0.00    +0.000 A 
BRANCH  11  12
ATOM     12  N   UNL     1       6.242   5.517  16.046  0.00  0.00    +0.000 N 
ATOM     13  C   UNL     1       6.035   4.304  15.254  0.00  0.00    +0.000 C 
ATOM     14  O   UNL     1       5.809   3.237  15.770  0.00  0.00    +0.000 OA
ATOM     15  H   UNL     1       6.314   6.410  15.583  0.00  0.00    +0.000 HD
BRANCH  13  16
ATOM     16  C   UNL     1       5.989   4.527  13.787  0.00  0.00    +0.000 C 
ATOM     17  C   UNL     1       7.331   4.234  13.119  0.00  0.00    +0.000 C 
ATOM     18  C   UNL     1       6.943   3.859  11.699  0.00  0.00    +0.000 C 
ATOM     19  C   UNL     1       5.543   3.256  11.784  0.00  0.00    +0.000 C 
ATOM     20  C   UNL     1       5.061   3.464  13.202  0.00  0.00    +0.000 C 
ENDBRANCH  13  16
ENDBRANCH  11  12
ENDBRANCH   4   7
BRANCH   1  21
ATOM     21  C   UNL     1       1.811   7.892  20.974  0.00  0.00    +0.000 C 
BRANCH  21  24
ATOM     22  N   UNL     1      -0.329  10.556  19.612  0.00  0.00    +0.000 N 
ATOM     23  C   UNL     1       0.671   9.639  19.444  0.00  0.00    +0.000 A 
ATOM     24  C   UNL     1       0.842   8.999  20.656  0.00  0.00    +0.000 A 
ATOM     25  C   UNL     1      -0.066   9.679  21.523  0.00  0.00    +0.000 A 
ATOM     26  C   UNL     1      -0.243   9.458  22.973  0.00  0.00    +0.000 C 
ATOM     27  N   UNL     1      -0.789  10.609  20.874  0.00  0.00    +0.000 NA
BRANCH  22  29
ATOM     28  C   UNL     1      -2.150  10.862  17.976  0.00  0.00    +0.000 C 
ATOM     29  C   UNL     1      -0.861  11.408  18.562  0.00  0.00    +0.000 C 
ENDBRANCH  22  29
ENDBRANCH  21  24
ENDBRANCH   1  21
TORSDOF 6
ENDMDL
