MODEL 1
REMARK VINA RESULT:      -7.4      0.000      0.000
REMARK  Name = 
REMARK  8 active torsions:
REMARK  status: ('A' for Active; 'I' for Inactive)
REMARK    1  A    between atoms: C_1  and  C_2
REMARK    2  A    between atoms: C_2  and  C_3
REMARK    3  A    between atoms: C_5  and  N_6
REMARK    4  A    between atoms: C_7  and  C_9
REMARK    5  A    between atoms: C_10  and  C_11
REMARK    6  A    between atoms: C_11  and  C_12
REMARK    7  A    between atoms: C_15  and  C_16
REMARK    8  A    between atoms: C_18  and  C_19
REMARK                            x       y       z     vdW  Elec       q    Type
REMARK                         _______ _______ _______ _____ _____    ______ ____
ROOT
ATOM      1  N   UNL     1       4.550   4.638  18.390  0.00  0.00    +0.000 N 
ATOM      2  C   UNL     1       3.221   5.023  18.302  0.00  0.00    +0.000 C 
ATOM      3  O   UNL     1       2.749   5.795  17.479  0.00  0.00    +0.000 OA
ATOM      4  H   UNL     1       4.793   3.868  18.991  0.00  0.00    +0.000 HD
ENDROOT
BRANCH   1   7
ATOM      5  C   UNL     1       6.860   5.236  15.632  0.00  0.00    +0.000 A 
ATOM      6  C   UNL     1       5.838   4.650  16.362  0.00  0.00    +0.000 A 
ATOM      7  C   UNL     1       5.578   5.193  17.606  0.00  0.00    +0.000 A 
ATOM      8  N   UNL     1       6.281   6.221  18.086  0.00  0.00    +0.000 NA
ATOM      9  C   UNL     1       7.242   6.743  17.315  0.00  0.00    +0.000 A 
ATOM     10  C   UNL     1       7.989   7.921  17.849  0.00  0.00    +0.000 C 
ATOM     11  N   UNL     1       7.566   6.285  16.097  0.00  0.00    +0.000 NA
BRANCH   5  13
ATOM     12  C   UNL     1       6.108   3.887  13.670  0.00  0.00    +0.000 C 
ATOM     13  C   UNL     1       7.206   4.770  14.243  0.00  0.00    +0.000 C 
ENDBRANCH   5  13
ENDBRANCH   1   7
BRANCH   2  14
ATOM     14  C   UNL     1       2.338   4.384  19.264  0.00  0.00    +0.000 A 
ATOM     15  C   UNL     1       1.865   3.036  19.239  0.00  0.00    +0.000 A 
ATOM     16  N   UNL     1       1.034   2.790  20.260  0.00  0.00    +0.000 NA
ATOM     17  O   UNL     1       0.923   3.978  20.949  0.00  0.00    +0.000 OA
ATOM     18  C   UNL     1       1.690   4.930  20.355  0.00  0.00    +0.000 A 
ATOM     19  C   UNL     1       1.602   6.276  20.957  0.00  0.00    +0.000 C 
BRANCH  15  20
ATOM     20  C   UNL     1       2.208   1.939  18.284  0.00  0.00    +0.000 C 
ATOM     21  C   UNL     1       3.607   1.376  18.490  0.00  0.00    +0.000 C 
ENDBRANCH  15  20
ENDBRANCH   2  14
TORSDOF 4
ENDMDL
MODEL 2
REMARK VINA RESULT:      -7.4      1.425      2.450
REMARK  Name = 
REMARK  8 active torsions:
REMARK  status: ('A' for Active; 'I' for Inactive)
REMARK    1  A    between atoms: C_1  and  C_2
REMARK    2  A    between atoms: C_2  and  C_3
REMARK    3  A    between atoms: C_5  and  N_6
REMARK    4  A    between atoms: C_7  and  C_9
REMARK    5  A    between atoms: C_10  and  C_11
REMARK    6  A    between atoms: C_11  and  C_12
REMARK    7  A    between atoms: C_15  and  C_16
REMARK    8  A    between atoms: C_18  and  C_19
REMARK                            x       y       z     vdW  Elec       q    Type
REMARK                         _______ _______ _______ _____ _____    ______ ____
ROOT
ATOM      1  N   UNL     1       5.314   4.280  19.037  0.00  0.00    +0.000 N 
ATOM      2  C   UNL     1       3.972   3.950  18.931  0.00  0.00    +0.000 C 
ATOM      3  O   UNL     1       3.274   4.088  17.935  0.00  0.00    +0.000 OA
ATOM      4  H   UNL     1       5.828   3.963  19.842  0.00  0.00    +0.000 HD
ENDROOT
BRANCH   1   7
ATOM      5  C   UNL     1       6.869   5.058  15.831  0.00  0.00    +0.000 A 
ATOM      6  C   UNL     1       6.147   4.357  16.784  0.00  0.00    +0.000 A 
ATOM      7  C   UNL     1       6.037   4.946  18.030  0.00  0.00    +0.000 A 
ATOM      8  N   UNL     1       6.606   6.121  18.306  0.00  0.00    +0.000 NA
ATOM      9  C   UNL     1       7.274   6.744  17.328  0.00  0.00    +0.000 A 
ATOM     10  C   UNL     1       7.867   8.079  17.641  0.00  0.00    +0.000 C 
ATOM     11  N   UNL     1       7.433   6.253  16.090  0.00  0.00    +0.000 NA
BRANCH   5  13
ATOM     12  C   UNL     1       5.693   4.030  13.882  0.00  0.00    +0.000 C 
ATOM     13  C   UNL     1       7.017   4.548  14.421  0.00  0.00    +0.000 C 
ENDBRANCH   5  13
ENDBRANCH   1   7
BRANCH   2  14
ATOM     14  C   UNL     1       3.399   3.342  20.120  0.00  0.00    +0.000 A 
ATOM     15  C   UNL     1       2.230   3.763  20.827  0.00  0.00    +0.000 A 
ATOM     16  N   UNL     1       2.009   2.999  21.904  0.00  0.00    +0.000 NA
ATOM     17  O   UNL     1       3.042   2.090  21.939  0.00  0.00    +0.000 OA
ATOM     18  C   UNL     1       3.875   2.296  20.886  0.00  0.00    +0.000 A 
ATOM     19  C   UNL     1       5.071   1.429  20.849  0.00  0.00    +0.000 C 
BRANCH  15  20
ATOM     20  C   UNL     1       1.275   4.862  20.491  0.00  0.00    +0.000 C 
ATOM     21  C   UNL     1       1.886   6.250  20.617  0.00  0.00    +0.000 C 
ENDBRANCH  15  20
ENDBRANCH   2  14
TORSDOF 4
ENDMDL
MODEL 3
REMARK VINA RESULT:      -7.3      2.058      6.383
REMARK  Name = 
REMARK  8 active torsions:
REMARK  status: ('A' for Active; 'I' for Inactive)
REMARK    1  A    between atoms: C_1  and  C_2
REMARK    2  A    between atoms: C_2  and  C_3
REMARK    3  A    between atoms: C_5  and  N_6
REMARK    4  A    between atoms: C_7  and  C_9
REMARK    5  A    between atoms: C_10  and  C_11
REMARK    6  A    between atoms: C_11  and  C_12
REMARK    7  A    between atoms: C_15  and  C_16
REMARK    8  A    between atoms: C_18  and  C_19
REMARK                            x       y       z     vdW  Elec       q    Type
REMARK                         _______ _______ _______ _____ _____    ______ ____
ROOT
ATOM      1  N   UNL     1       4.204   5.808  17.971  0.00  0.00    +0.000 N 
ATOM      2  C   UNL     1       5.524   5.473  18.226  0.00  0.00    +0.000 C 
ATOM      3  O   UNL     1       5.945   4.922  19.234  0.00  0.00    +0.000 OA
ATOM      4  H   UNL     1       3.948   6.096  17.041  0.00  0.00    +0.000 HD
ENDROOT
BRANCH   1   7
ATOM      5  C   UNL     1       1.630   4.332  20.092  0.00  0.00    +0.000 A 
ATOM      6  C   UNL     1       2.648   4.411  19.155  0.00  0.00    +0.000 A 
ATOM      7  C   UNL     1       3.166   5.669  18.912  0.00  0.00    +0.000 A 
ATOM      8  N   UNL     1       2.703   6.753  19.536  0.00  0.00    +0.000 NA
ATOM      9  C   UNL     1       1.729   6.595  20.438  0.00  0.00    +0.000 A 
ATOM     10  C   UNL     1       1.252   7.813  21.160  0.00  0.00    +0.000 C 
ATOM     11  N   UNL     1       1.165   5.416  20.742  0.00  0.00    +0.000 NA
BRANCH   5  13
ATOM     12  C   UNL     1       1.553   2.536  21.825  0.00  0.00    +0.000 C 
ATOM     13  C   UNL     1       1.018   3.013  20.484  0.00  0.00    +0.000 C 
ENDBRANCH   5  13
ENDBRANCH   1   7
BRANCH   2  14
ATOM     14  C   UNL     1       6.448   5.776  17.145  0.00  0.00    +0.000 A 
ATOM     15  C   UNL     1       6.637   5.037  15.938  0.00  0.00    +0.000 A 
ATOM     16  N   UNL     1       7.599   5.578  15.179  0.00  0.00    +0.000 NA
ATOM     17  O   UNL     1       8.077   6.656  15.889  0.00  0.00    +0.000 OA
ATOM     18  C   UNL     1       7.401   6.773  17.063  0.00  0.00    +0.000 A 
ATOM     19  C   UNL     1       7.871   7.853  17.955  0.00  0.00    +0.000 C 
BRANCH  15  20
ATOM     20  C   UNL     1       5.898   3.834  15.449  0.00  0.00    +0.000 C 
ATOM     21  C   UNL     1       5.642   3.851  13.950  0.00  0.00    +0.000 C 
ENDBRANCH  15  20
ENDBRANCH   2  14
TORSDOF 4
ENDMDL
MODEL 4
REMARK VINA RESULT:      -7.1      1.009      1.009
REMARK  Name = 
REMARK  8 active torsions:
REMARK  status: ('A' for Active; 'I' for Inactive)
REMARK    1  A    between atoms: C_1  and  C_2
REMARK    2  A    between atoms: C_2  and  C_3
REMARK    3  A    between atoms: C_5  and  N_6
REMARK    4  A    between atoms: C_7  and  C_9
REMARK    5  A    between atoms: C_10  and  C_11
REMARK    6  A    between atoms: C_11  and  C_12
REMARK    7  A    between atoms: C_15  and  C_16
REMARK    8  A    between atoms: C_18  and  C_19
REMARK                            x       y       z     vdW  Elec       q    Type
REMARK                         _______ _______ _______ _____ _____    ______ ____
ROOT
ATOM      1  N   UNL     1       4.075   5.351  18.120  0.00  0.00    +0.000 N 
ATOM      2  C   UNL     1       4.025   4.496  19.209  0.00  0.00    +0.000 C 
ATOM      3  O   UNL     1       4.987   3.997  19.778  0.00  0.00    +0.000 OA
ATOM      4  H   UNL     1       3.237   5.836  17.846  0.00  0.00    +0.000 HD
ENDROOT
BRANCH   1   7
ATOM      5  C   UNL     1       6.761   5.306  15.654  0.00  0.00    +0.000 A 
ATOM      6  C   UNL     1       5.585   4.951  16.294  0.00  0.00    +0.000 A 
ATOM      7  C   UNL     1       5.260   5.668  17.430  0.00  0.00    +0.000 A 
ATOM      8  N   UNL     1       6.042   6.644  17.893  0.00  0.00    +0.000 NA
ATOM      9  C   UNL     1       7.154   6.940  17.211  0.00  0.00    +0.000 A 
ATOM     10  C   UNL     1       7.996   8.065  17.718  0.00  0.00    +0.000 C 
ATOM     11  N   UNL     1       7.552   6.301  16.100  0.00  0.00    +0.000 NA
BRANCH   5  13
ATOM     12  C   UNL     1       6.051   3.875  13.734  0.00  0.00    +0.000 C 
ATOM     13  C   UNL     1       7.200   4.636  14.378  0.00  0.00    +0.000 C 
ENDBRANCH   5  13
ENDBRANCH   1   7
BRANCH   2  14
ATOM     14  C   UNL     1       2.688   4.238  19.719  0.00  0.00    +0.000 A 
ATOM     15  C   UNL     1       1.940   3.026  19.606  0.00  0.00    +0.000 A 
ATOM     16  N   UNL     1       0.725   3.148  20.156  0.00  0.00    +0.000 NA
ATOM     17  O   UNL     1       0.645   4.446  20.607  0.00  0.00    +0.000 OA
ATOM     18  C   UNL     1       1.806   5.100  20.341  0.00  0.00    +0.000 A 
ATOM     19  C   UNL     1       1.823   6.530  20.711  0.00  0.00    +0.000 C 
BRANCH  15  20
ATOM     20  C   UNL     1       2.357   1.718  19.016  0.00  0.00    +0.000 C 
ATOM     21  C   UNL     1       2.976   1.850  17.633  0.00  0.00    +0.000 C 
ENDBRANCH  15  20
ENDBRANCH   2  14
TORSDOF 4
ENDMDL
MODEL 5
REMARK VINA RESULT:      -7.0      1.108      2.469
REMARK  Name = 
REMARK  8 active torsions:
REMARK  status: ('A' for Active; 'I' for Inactive)
REMARK    1  A    between atoms: C_1  and  C_2
REMARK    2  A    between atoms: C_2  and  C_3
REMARK    3  A    between atoms: C_5  and  N_6
REMARK    4  A    between atoms: C_7  and  C_9
REMARK    5  A    between atoms: C_10  and  C_11
REMARK    6  A    between atoms: C_11  and  C_12
REMARK    7  A    between atoms: C_15  and  C_16
REMARK    8  A    between atoms: C_18  and  C_19
REMARK                            x       y       z     vdW  Elec       q    Type
REMARK                         _______ _______ _______ _____ _____    ______ ____
ROOT
ATOM      1  N   UNL     1       4.034   5.120  17.890  0.00  0.00    +0.000 N 
ATOM      2  C   UNL     1       3.965   4.198  18.922  0.00  0.00    +0.000 C 
ATOM      3  O   UNL     1       4.918   3.664  19.475  0.00  0.00    +0.000 OA
ATOM      4  H   UNL     1       3.201   5.623  17.632  0.00  0.00    +0.000 HD
ENDROOT
BRANCH   1   7
ATOM      5  C   UNL     1       6.774   5.212  15.484  0.00  0.00    +0.000 A 
ATOM      6  C   UNL     1       5.588   4.818  16.082  0.00  0.00    +0.000 A 
ATOM      7  C   UNL     1       5.231   5.479  17.241  0.00  0.00    +0.000 A 
ATOM      8  N   UNL     1       5.993   6.440  17.767  0.00  0.00    +0.000 NA
ATOM      9  C   UNL     1       7.117   6.776  17.124  0.00  0.00    +0.000 A 
ATOM     10  C   UNL     1       7.937   7.884  17.701  0.00  0.00    +0.000 C 
ATOM     11  N   UNL     1       7.545   6.192  15.994  0.00  0.00    +0.000 NA
BRANCH   5  13
ATOM     12  C   UNL     1       6.127   3.839  13.501  0.00  0.00    +0.000 C 
ATOM     13  C   UNL     1       7.247   4.605  14.190  0.00  0.00    +0.000 C 
ENDBRANCH   5  13
ENDBRANCH   1   7
BRANCH   2  14
ATOM     14  C   UNL     1       2.620   3.910  19.392  0.00  0.00    +0.000 A 
ATOM     15  C   UNL     1       1.828   4.701  20.280  0.00  0.00    +0.000 A 
ATOM     16  N   UNL     1       0.649   4.119  20.533  0.00  0.00    +0.000 NA
ATOM     17  O   UNL     1       0.662   2.927  19.843  0.00  0.00    +0.000 OA
ATOM     18  C   UNL     1       1.835   2.795  19.171  0.00  0.00    +0.000 A 
ATOM     19  C   UNL     1       2.006   1.519  18.446  0.00  0.00    +0.000 C 
BRANCH  15  20
ATOM     20  C   UNL     1       2.140   6.033  20.882  0.00  0.00    +0.000 C 
ATOM     21  C   UNL     1       2.017   7.184  19.895  0.00  0.00    +0.000 C 
ENDBRANCH  15  20
ENDBRANCH   2  14
TORSDOF 4
ENDMDL
MODEL 6
REMARK VINA RESULT:      -7.0      2.043      6.721
REMARK  Name = 
REMARK  8 active torsions:
REMARK  status: ('A' for Active; 'I' for Inactive)
REMARK    1  A    between atoms: C_1  and  C_2
REMARK    2  A    between atoms: C_2  and  C_3
REMARK    3  A    between atoms: C_5  and  N_6
REMARK    4  A    between atoms: C_7  and  C_9
REMARK    5  A    between atoms: C_10  and  C_11
REMARK    6  A    between atoms: C_11  and  C_12
REMARK    7  A    between atoms: C_15  and  C_16
REMARK    8  A    between atoms: C_18  and  C_19
REMARK                            x       y       z     vdW  Elec       q    Type
REMARK                         _______ _______ _______ _____ _____    ______ ____
ROOT
ATOM      1  N   UNL     1       4.071   5.737  17.952  0.00  0.00    +0.000 N 
ATOM      2  C   UNL     1       5.328   5.177  18.113  0.00  0.00    +0.000 C 
ATOM      3  O   UNL     1       5.683   4.459  19.038  0.00  0.00    +0.000 OA
ATOM      4  H   UNL     1       3.839   6.164  17.071  0.00  0.00    +0.000 HD
ENDROOT
BRANCH   1   7
ATOM      5  C   UNL     1       1.493   4.397  20.157  0.00  0.00    +0.000 A 
ATOM      6  C   UNL     1       2.494   4.420  19.199  0.00  0.00    +0.000 A 
ATOM      7  C   UNL     1       3.049   5.654  18.917  0.00  0.00    +0.000 A 
ATOM      8  N   UNL     1       2.636   6.767  19.526  0.00  0.00    +0.000 NA
ATOM      9  C   UNL     1       1.676   6.662  20.451  0.00  0.00    +0.000 A 
ATOM     10  C   UNL     1       1.256   7.911  21.155  0.00  0.00    +0.000 C 
ATOM     11  N   UNL     1       1.079   5.510  20.792  0.00  0.00    +0.000 NA
BRANCH   5  13
ATOM     12  C   UNL     1       1.564   2.509  21.791  0.00  0.00    +0.000 C 
ATOM     13  C   UNL     1       0.846   3.108  20.591  0.00  0.00    +0.000 C 
ENDBRANCH   5  13
ENDBRANCH   1   7
BRANCH   2  14
ATOM     14  C   UNL     1       6.260   5.455  17.032  0.00  0.00    +0.000 A 
ATOM     15  C   UNL     1       7.334   6.397  17.040  0.00  0.00    +0.000 A 
ATOM     16  N   UNL     1       7.970   6.424  15.862  0.00  0.00    +0.000 NA
ATOM     17  O   UNL     1       7.305   5.527  15.056  0.00  0.00    +0.000 OA
ATOM     18  C   UNL     1       6.283   4.955  15.745  0.00  0.00    +0.000 A 
ATOM     19  C   UNL     1       5.441   4.023  14.966  0.00  0.00    +0.000 C 
BRANCH  15  20
ATOM     20  C   UNL     1       7.813   7.265  18.159  0.00  0.00    +0.000 C 
ATOM     21  C   UNL     1       7.979   8.724  17.760  0.00  0.00    +0.000 C 
ENDBRANCH  15  20
ENDBRANCH   2  14
TORSDOF 4
ENDMDL
MODEL 7
REMARK VINA RESULT:      -6.9      0.726      2.415
REMARK  Name = 
REMARK  8 active torsions:
REMARK  status: ('A' for Active; 'I' for Inactive)
REMARK    1  A    between atoms: C_1  and  C_2
REMARK    2  A    between atoms: C_2  and  C_3
REMARK    3  A    between atoms: C_5  and  N_6
REMARK    4  A    between atoms: C_7  and  C_9
REMARK    5  A    between atoms: C_10  and  C_11
REMARK    6  A    between atoms: C_11  and  C_12
REMARK    7  A    between atoms: C_15  and  C_16
REMARK    8  A    between atoms: C_18  and  C_19
REMARK                            x       y       z     vdW  Elec       q    Type
REMARK                         _______ _______ _______ _____ _____    ______ ____
ROOT
ATOM      1  N   UNL     1       4.472   4.592  18.339  0.00  0.00    +0.000 N 
ATOM      2  C   UNL     1       3.186   5.109  18.352  0.00  0.00    +0.000 C 
ATOM      3  O   UNL     1       2.788   6.063  17.695  0.00  0.00    +0.000 OA
ATOM      4  H   UNL     1       4.641   3.704  18.782  0.00  0.00    +0.000 HD
ENDROOT
BRANCH   1   7
ATOM      5  C   UNL     1       7.355   6.687  17.564  0.00  0.00    +0.000 A 
ATOM      6  C   UNL     1       6.309   6.139  18.290  0.00  0.00    +0.000 A 
ATOM      7  C   UNL     1       5.545   5.183  17.648  0.00  0.00    +0.000 A 
ATOM      8  N   UNL     1       5.792   4.815  16.389  0.00  0.00    +0.000 NA
ATOM      9  C   UNL     1       6.829   5.378  15.758  0.00  0.00    +0.000 A 
ATOM     10  C   UNL     1       7.118   4.922  14.365  0.00  0.00    +0.000 C 
ATOM     11  N   UNL     1       7.626   6.312  16.299  0.00  0.00    +0.000 NA
BRANCH   5  13
ATOM     12  C   UNL     1       7.931   9.111  17.733  0.00  0.00    +0.000 C 
ATOM     13  C   UNL     1       8.292   7.699  18.168  0.00  0.00    +0.000 C 
ENDBRANCH   5  13
ENDBRANCH   1   7
BRANCH   2  14
ATOM     14  C   UNL     1       2.249   4.390  19.198  0.00  0.00    +0.000 A 
ATOM     15  C   UNL     1       1.792   3.047  19.032  0.00  0.00    +0.000 A 
ATOM     16  N   UNL     1       0.899   2.714  19.973  0.00  0.00    +0.000 NA
ATOM     17  O   UNL     1       0.733   3.840  20.749  0.00  0.00    +0.000 OA
ATOM     18  C   UNL     1       1.527   4.841  20.286  0.00  0.00    +0.000 A 
ATOM     19  C   UNL     1       1.387   6.132  20.990  0.00  0.00    +0.000 C 
BRANCH  15  20
ATOM     20  C   UNL     1       2.206   2.033  18.015  0.00  0.00    +0.000 C 
ATOM     21  C   UNL     1       3.523   1.348  18.349  0.00  0.00    +0.000 C 
ENDBRANCH  15  20
ENDBRANCH   2  14
TORSDOF 4
ENDMDL
MODEL 8
REMARK VINA RESULT:      -6.9      2.020      6.621
REMARK  Name = 
REMARK  8 active torsions:
REMARK  status: ('A' for Active; 'I' for Inactive)
REMARK    1  A    between atoms: C_1  and  C_2
REMARK    2  A    between atoms: C_2  and  C_3
REMARK    3  A    between atoms: C_5  and  N_6
REMARK    4  A    between atoms: C_7  and  C_9
REMARK    5  A    between atoms: C_10  and  C_11
REMARK    6  A    between atoms: C_11  and  C_12
REMARK    7  A    between atoms: C_15  and  C_16
REMARK    8  A    between atoms: C_18  and  C_19
REMARK                            x       y       z     vdW  Elec       q    Type
REMARK                         _______ _______ _______ _____ _____    ______ ____
ROOT
ATOM      1  N   UNL     1       4.197   5.594  17.974  0.00  0.00    +0.000 N 
ATOM      2  C   UNL     1       5.547   5.498  18.271  0.00  0.00    +0.000 C 
ATOM      3  O   UNL     1       6.024   5.130  19.336  0.00  0.00    +0.000 OA
ATOM      4  H   UNL     1       3.920   5.739  17.017  0.00  0.00    +0.000 HD
ENDROOT
BRANCH   1   7
ATOM      5  C   UNL     1       1.670   6.236  20.524  0.00  0.00    +0.000 A 
ATOM      6  C   UNL     1       2.678   6.488  19.607  0.00  0.00    +0.000 A 
ATOM      7  C   UNL     1       3.172   5.397  18.918  0.00  0.00    +0.000 A 
ATOM      8  N   UNL     1       2.712   4.163  19.132  0.00  0.00    +0.000 NA
ATOM      9  C   UNL     1       1.727   4.001  20.022  0.00  0.00    +0.000 A 
ATOM     10  C   UNL     1       1.193   2.620  20.216  0.00  0.00    +0.000 C 
ATOM     11  N   UNL     1       1.183   4.998  20.737  0.00  0.00    +0.000 NA
BRANCH   5  13
ATOM     12  C   UNL     1       1.165   8.681  20.586  0.00  0.00    +0.000 C 
ATOM     13  C   UNL     1       1.012   7.347  21.300  0.00  0.00    +0.000 C 
ENDBRANCH   5  13
ENDBRANCH   1   7
BRANCH   2  14
ATOM     14  C   UNL     1       6.437   5.825  17.169  0.00  0.00    +0.000 A 
ATOM     15  C   UNL     1       6.604   5.099  15.950  0.00  0.00    +0.000 A 
ATOM     16  N   UNL     1       7.537   5.660  15.171  0.00  0.00    +0.000 NA
ATOM     17  O   UNL     1       8.019   6.739  15.878  0.00  0.00    +0.000 OA
ATOM     18  C   UNL     1       7.373   6.835  17.070  0.00  0.00    +0.000 A 
ATOM     19  C   UNL     1       7.851   7.914  17.960  0.00  0.00    +0.000 C 
BRANCH  15  20
ATOM     20  C   UNL     1       5.870   3.889  15.471  0.00  0.00    +0.000 C 
ATOM     21  C   UNL     1       5.929   3.707  13.961  0.00  0.00    +0.000 C 
ENDBRANCH  15  20
ENDBRANCH   2  14
TORSDOF 4
ENDMDL
MODEL 9
REMARK VINA RESULT:      -6.8      2.021      6.921
REMARK  Name = 
REMARK  8 active torsions:
REMARK  status: ('A' for Active; 'I' for Inactive)
REMARK    1  A    between atoms: C_1  and  C_2
REMARK    2  A    between atoms: C_2  and  C_3
REMARK    3  A    between atoms: C_5  and  N_6
REMARK    4  A    between atoms: C_7  and  C_9
REMARK    5  A    between atoms: C_10  and  C_11
REMARK    6  A    between atoms: C_11  and  C_12
REMARK    7  A    between atoms: C_15  and  C_16
REMARK    8  A    between atoms: C_18  and  C_19
REMARK                            x       y       z     vdW  Elec       q    Type
REMARK                         _______ _______ _______ _____ _____    ______ ____
ROOT
ATOM      1  N   UNL     1       4.086   5.396  17.889  0.00  0.00    +0.000 N 
ATOM      2  C   UNL     1       5.369   4.894  18.037  0.00  0.00    +0.000 C 
ATOM      3  O   UNL     1       5.763   4.184  18.954  0.00  0.00    +0.000 OA
ATOM      4  H   UNL     1       3.830   5.819  17.013  0.00  0.00    +0.000 HD
ENDROOT
BRANCH   1   7
ATOM      5  C   UNL     1       1.643   6.185  20.479  0.00  0.00    +0.000 A 
ATOM      6  C   UNL     1       2.641   6.379  19.537  0.00  0.00    +0.000 A 
ATOM      7  C   UNL     1       3.076   5.257  18.858  0.00  0.00    +0.000 A 
ATOM      8  N   UNL     1       2.571   4.046  19.105  0.00  0.00    +0.000 NA
ATOM      9  C   UNL     1       1.599   3.941  20.018  0.00  0.00    +0.000 A 
ATOM     10  C   UNL     1       1.015   2.586  20.250  0.00  0.00    +0.000 C 
ATOM     11  N   UNL     1       1.112   4.972  20.726  0.00  0.00    +0.000 NA
BRANCH   5  13
ATOM     12  C   UNL     1       1.285   8.656  20.533  0.00  0.00    +0.000 C 
ATOM     13  C   UNL     1       1.047   7.335  21.248  0.00  0.00    +0.000 C 
ENDBRANCH   5  13
ENDBRANCH   1   7
BRANCH   2  14
ATOM     14  C   UNL     1       6.281   5.224  16.954  0.00  0.00    +0.000 A 
ATOM     15  C   UNL     1       7.305   6.220  16.962  0.00  0.00    +0.000 A 
ATOM     16  N   UNL     1       7.933   6.285  15.781  0.00  0.00    +0.000 NA
ATOM     17  O   UNL     1       7.311   5.359  14.973  0.00  0.00    +0.000 OA
ATOM     18  C   UNL     1       6.323   4.732  15.664  0.00  0.00    +0.000 A 
ATOM     19  C   UNL     1       5.527   3.762  14.885  0.00  0.00    +0.000 C 
BRANCH  15  20
ATOM     20  C   UNL     1       7.744   7.106  18.083  0.00  0.00    +0.000 C 
ATOM     21  C   UNL     1       7.863   8.569  17.683  0.00  0.00    +0.000 C 
ENDBRANCH  15  20
ENDBRANCH   2  14
TORSDOF 4
ENDMDL
