MODEL 1
REMARK VINA RESULT:      -8.1      0.000      0.000
REMARK  Name = 
REMARK  6 active torsions:
REMARK  status: ('A' for Active; 'I' for Inactive)
REMARK    1  A    between atoms: C_1  and  O_2
REMARK    2  A    between atoms: O_2  and  C_3
REMARK    3  A    between atoms: C_7  and  C_8
REMARK    4  A    between atoms: C_9  and  N_10
REMARK    5  A    between atoms: C_11  and  C_13
REMARK    6  A    between atoms: C_16  and  C_17
REMARK                            x       y       z     vdW  Elec       q    Type
REMARK                         _______ _______ _______ _____ _____    ______ ____
ROOT
ATOM      1  N   UNL     1       0.769   9.064  19.413  0.00  0.00    +0.000 N 
ATOM      2  C   UNL     1       1.767   8.839  18.483  0.00  0.00    +0.000 C 
ATOM      3  O   UNL     1       2.066   9.574  17.551  0.00  0.00    +0.000 OA
ATOM      4  H   UNL     1       0.765   8.414  20.197  0.00  0.00    +0.000 HD
ENDROOT
BRANCH   1  11
ATOM      5  C   UNL     1      -0.053  10.838  20.807  0.00  0.00    +0.000 A 
ATOM      6  C   UNL     1      -0.879  11.935  21.087  0.00  0.00    +0.000 A 
ATOM      7  C   UNL     1      -1.814  12.361  20.156  0.00  0.00    +0.000 A 
ATOM      8  C   UNL     1      -1.942  11.680  18.955  0.00  0.00    +0.000 A 
ATOM      9  C   UNL     1      -1.141  10.557  18.644  0.00  0.00    +0.000 A 
ATOM     10  C   UNL     1      -1.456   9.905  17.328  0.00  0.00    +0.000 C 
ATOM     11  C   UNL     1      -0.157  10.139  19.566  0.00  0.00    +0.000 A 
BRANCH   5  13
ATOM     12  C   UNL     1       0.439   9.595  22.788  0.00  0.00    +0.000 C 
ATOM     13  O   UNL     1       0.907  10.374  21.688  0.00  0.00    +0.000 OA
ENDBRANCH   5  13
ENDBRANCH   1  11
BRANCH   2  14
ATOM     14  C   UNL     1       2.536   7.627  18.702  0.00  0.00    +0.000 A 
ATOM     15  C   UNL     1       2.379   6.652  19.668  0.00  0.00    +0.000 A 
ATOM     16  C   UNL     1       3.345   5.652  19.405  0.00  0.00    +0.000 A 
ATOM     17  C   UNL     1       4.036   6.060  18.282  0.00  0.00    +0.000 A 
ATOM     18  O   UNL     1       3.563   7.282  17.870  0.00  0.00    +0.000 OA
BRANCH  17  19
ATOM     19  C   UNL     1       5.100   5.494  17.455  0.00  0.00    +0.000 A 
ATOM     20  C   UNL     1       4.798   5.158  16.122  0.00  0.00    +0.000 A 
ATOM     21  C   UNL     1       5.752   4.562  15.298  0.00  0.00    +0.000 A 
ATOM     22 CL   UNL     1       5.339   4.136  13.683  0.00  0.00    +0.000 Cl
ATOM     23  C   UNL     1       7.031   4.296  15.778  0.00  0.00    +0.000 A 
ATOM     24  C   UNL     1       7.356   4.639  17.089  0.00  0.00    +0.000 A 
ATOM     25  C   UNL     1       6.401   5.235  17.927  0.00  0.00    +0.000 A 
ATOM     26 CL   UNL     1       6.911   5.568  19.546  0.00  0.00    +0.000 Cl
ENDBRANCH  17  19
ENDBRANCH   2  14
TORSDOF 4
ENDMDL
MODEL 2
REMARK VINA RESULT:      -7.5      3.673      8.647
REMARK  Name = 
REMARK  6 active torsions:
REMARK  status: ('A' for Active; 'I' for Inactive)
REMARK    1  A    between atoms: C_1  and  O_2
REMARK    2  A    between atoms: O_2  and  C_3
REMARK    3  A    between atoms: C_7  and  C_8
REMARK    4  A    between atoms: C_9  and  N_10
REMARK    5  A    between atoms: C_11  and  C_13
REMARK    6  A    between atoms: C_16  and  C_17
REMARK                            x       y       z     vdW  Elec       q    Type
REMARK                         _______ _______ _______ _____ _____    ______ ____
ROOT
ATOM      1  N   UNL     1       2.301   5.708  18.404  0.00  0.00    +0.000 N 
ATOM      2  C   UNL     1       2.325   6.679  19.388  0.00  0.00    +0.000 C 
ATOM      3  O   UNL     1       2.602   6.505  20.568  0.00  0.00    +0.000 OA
ATOM      4  H   UNL     1       2.190   6.066  17.457  0.00  0.00    +0.000 HD
ENDROOT
BRANCH   1  11
ATOM      5  C   UNL     1       3.615   3.874  17.583  0.00  0.00    +0.000 A 
ATOM      6  C   UNL     1       4.006   2.529  17.542  0.00  0.00    +0.000 A 
ATOM      7  C   UNL     1       3.376   1.593  18.349  0.00  0.00    +0.000 A 
ATOM      8  C   UNL     1       2.342   1.994  19.180  0.00  0.00    +0.000 A 
ATOM      9  C   UNL     1       1.905   3.337  19.236  0.00  0.00    +0.000 A 
ATOM     10  C   UNL     1       0.733   3.581  20.144  0.00  0.00    +0.000 C 
ATOM     11  C   UNL     1       2.566   4.306  18.450  0.00  0.00    +0.000 A 
BRANCH   5  13
ATOM     12  C   UNL     1       5.351   4.462  16.051  0.00  0.00    +0.000 C 
ATOM     13  O   UNL     1       4.212   4.856  16.814  0.00  0.00    +0.000 OA
ENDBRANCH   5  13
ENDBRANCH   1  11
BRANCH   2  14
ATOM     14  C   UNL     1       2.035   8.022  18.920  0.00  0.00    +0.000 A 
ATOM     15  C   UNL     1       2.563   8.709  17.843  0.00  0.00    +0.000 A 
ATOM     16  C   UNL     1       1.899   9.957  17.786  0.00  0.00    +0.000 A 
ATOM     17  C   UNL     1       0.988   9.966  18.822  0.00  0.00    +0.000 A 
ATOM     18  O   UNL     1       1.091   8.796  19.534  0.00  0.00    +0.000 OA
BRANCH  17  19
ATOM     19  C   UNL     1      -0.036  10.894  19.297  0.00  0.00    +0.000 A 
ATOM     20  C   UNL     1       0.267  11.710  20.403  0.00  0.00    +0.000 A 
ATOM     21  C   UNL     1      -0.686  12.575  20.940  0.00  0.00    +0.000 A 
ATOM     22 CL   UNL     1      -0.292  13.535  22.311  0.00  0.00    +0.000 Cl
ATOM     23  C   UNL     1      -1.958  12.656  20.381  0.00  0.00    +0.000 A 
ATOM     24  C   UNL     1      -2.272  11.871  19.274  0.00  0.00    +0.000 A 
ATOM     25  C   UNL     1      -1.321  10.994  18.730  0.00  0.00    +0.000 A 
ATOM     26 CL   UNL     1      -1.847  10.038  17.388  0.00  0.00    +0.000 Cl
ENDBRANCH  17  19
ENDBRANCH   2  14
TORSDOF 4
ENDMDL
MODEL 3
REMARK VINA RESULT:      -7.4      2.149      3.282
REMARK  Name = 
REMARK  6 active torsions:
REMARK  status: ('A' for Active; 'I' for Inactive)
REMARK    1  A    between atoms: C_1  and  O_2
REMARK    2  A    between atoms: O_2  and  C_3
REMARK    3  A    between atoms: C_7  and  C_8
REMARK    4  A    between atoms: C_9  and  N_10
REMARK    5  A    between atoms: C_11  and  C_13
REMARK    6  A    between atoms: C_16  and  C_17
REMARK                            x       y       z     vdW  Elec       q    Type
REMARK                         _______ _______ _______ _____ _____    ______ ____
ROOT
ATOM      1  N   UNL     1       0.902   9.190  19.050  0.00  0.00    +0.000 N 
ATOM      2  C   UNL     1       1.876   9.287  18.072  0.00  0.00    +0.000 C 
ATOM      3  O   UNL     1       2.115  10.271  17.385  0.00  0.00    +0.000 OA
ATOM      4  H   UNL     1       0.949   8.343  19.612  0.00  0.00    +0.000 HD
ENDROOT
BRANCH   1  11
ATOM      5  C   UNL     1       0.193  10.617  20.844  0.00  0.00    +0.000 A 
ATOM      6  C   UNL     1      -0.650  11.570  21.433  0.00  0.00    +0.000 A 
ATOM      7  C   UNL     1      -1.746  12.059  20.738  0.00  0.00    +0.000 A 
ATOM      8  C   UNL     1      -2.015  11.581  19.464  0.00  0.00    +0.000 A 
ATOM      9  C   UNL     1      -1.201  10.607  18.844  0.00  0.00    +0.000 A 
ATOM     10  C   UNL     1      -1.674  10.160  17.490  0.00  0.00    +0.000 C 
ATOM     11  C   UNL     1      -0.058  10.133  19.525  0.00  0.00    +0.000 A 
BRANCH   5  13
ATOM     12  C   UNL     1       1.066   9.204  22.562  0.00  0.00    +0.000 C 
ATOM     13  O   UNL     1       1.308  10.103  21.480  0.00  0.00    +0.000 OA
ENDBRANCH   5  13
ENDBRANCH   1  11
BRANCH   2  14
ATOM     14  C   UNL     1       2.696   8.099  17.917  0.00  0.00    +0.000 A 
ATOM     15  C   UNL     1       4.010   7.988  17.504  0.00  0.00    +0.000 A 
ATOM     16  C   UNL     1       4.354   6.618  17.587  0.00  0.00    +0.000 A 
ATOM     17  C   UNL     1       3.235   5.961  18.059  0.00  0.00    +0.000 A 
ATOM     18  O   UNL     1       2.212   6.860  18.233  0.00  0.00    +0.000 OA
BRANCH  17  19
ATOM     19  C   UNL     1       2.919   4.581  18.423  0.00  0.00    +0.000 A 
ATOM     20  C   UNL     1       2.204   4.355  19.615  0.00  0.00    +0.000 A 
ATOM     21  C   UNL     1       1.920   3.060  20.048  0.00  0.00    +0.000 A 
ATOM     22 CL   UNL     1       1.071   2.821  21.524  0.00  0.00    +0.000 Cl
ATOM     23  C   UNL     1       2.332   1.962  19.299  0.00  0.00    +0.000 A 
ATOM     24  C   UNL     1       3.023   2.164  18.107  0.00  0.00    +0.000 A 
ATOM     25  C   UNL     1       3.318   3.463  17.666  0.00  0.00    +0.000 A 
ATOM     26 CL   UNL     1       4.224   3.581  16.197  0.00  0.00    +0.000 Cl
ENDBRANCH  17  19
ENDBRANCH   2  14
TORSDOF 4
ENDMDL
MODEL 4
REMARK VINA RESULT:      -7.4      1.146      1.364
REMARK  Name = 
REMARK  6 active torsions:
REMARK  status: ('A' for Active; 'I' for Inactive)
REMARK    1  A    between atoms: C_1  and  O_2
REMARK    2  A    between atoms: O_2  and  C_3
REMARK    3  A    between atoms: C_7  and  C_8
REMARK    4  A    between atoms: C_9  and  N_10
REMARK    5  A    between atoms: C_11  and  C_13
REMARK    6  A    between atoms: C_16  and  C_17
REMARK                            x       y       z     vdW  Elec       q    Type
REMARK                         _______ _______ _______ _____ _____    ______ ____
ROOT
ATOM      1  N   UNL     1       1.545   9.519  19.571  0.00  0.00    +0.000 N 
ATOM      2  C   UNL     1       1.818   8.787  18.430  0.00  0.00    +0.000 C 
ATOM      3  O   UNL     1       1.506   9.089  17.285  0.00  0.00    +0.000 OA
ATOM      4  H   UNL     1       2.008   9.181  20.412  0.00  0.00    +0.000 HD
ENDROOT
BRANCH   1  11
ATOM      5  C   UNL     1      -0.293  10.675  20.593  0.00  0.00    +0.000 A 
ATOM      6  C   UNL     1      -1.049  11.818  20.892  0.00  0.00    +0.000 A 
ATOM      7  C   UNL     1      -0.680  13.052  20.379  0.00  0.00    +0.000 A 
ATOM      8  C   UNL     1       0.427  13.145  19.550  0.00  0.00    +0.000 A 
ATOM      9  C   UNL     1       1.203  12.013  19.210  0.00  0.00    +0.000 A 
ATOM     10  C   UNL     1       2.329  12.286  18.254  0.00  0.00    +0.000 C 
ATOM     11  C   UNL     1       0.863  10.758  19.760  0.00  0.00    +0.000 A 
BRANCH   5  13
ATOM     12  C   UNL     1      -0.429   9.225  22.488  0.00  0.00    +0.000 C 
ATOM     13  O   UNL     1      -0.601   9.419  21.085  0.00  0.00    +0.000 OA
ENDBRANCH   5  13
ENDBRANCH   1  11
BRANCH   2  14
ATOM     14  C   UNL     1       2.591   7.579  18.657  0.00  0.00    +0.000 A 
ATOM     15  C   UNL     1       2.431   6.604  19.623  0.00  0.00    +0.000 A 
ATOM     16  C   UNL     1       3.403   5.608  19.368  0.00  0.00    +0.000 A 
ATOM     17  C   UNL     1       4.102   6.018  18.251  0.00  0.00    +0.000 A 
ATOM     18  O   UNL     1       3.626   7.237  17.833  0.00  0.00    +0.000 OA
BRANCH  17  19
ATOM     19  C   UNL     1       5.174   5.456  17.433  0.00  0.00    +0.000 A 
ATOM     20  C   UNL     1       4.880   5.103  16.102  0.00  0.00    +0.000 A 
ATOM     21  C   UNL     1       5.844   4.509  15.287  0.00  0.00    +0.000 A 
ATOM     22 CL   UNL     1       5.441   4.062  13.676  0.00  0.00    +0.000 Cl
ATOM     23  C   UNL     1       7.124   4.263  15.774  0.00  0.00    +0.000 A 
ATOM     24  C   UNL     1       7.441   4.623  17.082  0.00  0.00    +0.000 A 
ATOM     25  C   UNL     1       6.477   5.216  17.911  0.00  0.00    +0.000 A 
ATOM     26 CL   UNL     1       6.978   5.571  19.528  0.00  0.00    +0.000 Cl
ENDBRANCH  17  19
ENDBRANCH   2  14
TORSDOF 4
ENDMDL
MODEL 5
REMARK VINA RESULT:      -7.4      3.471      8.449
REMARK  Name = 
REMARK  6 active torsions:
REMARK  status: ('A' for Active; 'I' for Inactive)
REMARK    1  A    between atoms: C_1  and  O_2
REMARK    2  A    between atoms: O_2  and  C_3
REMARK    3  A    between atoms: C_7  and  C_8
REMARK    4  A    between atoms: C_9  and  N_10
REMARK    5  A    between atoms: C_11  and  C_13
REMARK    6  A    between atoms: C_16  and  C_17
REMARK                            x       y       z     vdW  Elec       q    Type
REMARK                         _______ _______ _______ _____ _____    ______ ____
ROOT
ATOM      1  N   UNL     1       3.887   6.344  18.210  0.00  0.00    +0.000 N 
ATOM      2  C   UNL     1       3.077   7.450  18.029  0.00  0.00    +0.000 C 
ATOM      3  O   UNL     1       2.989   8.124  17.012  0.00  0.00    +0.000 OA
ATOM      4  H   UNL     1       3.717   5.830  19.072  0.00  0.00    +0.000 HD
ENDROOT
BRANCH   1  11
ATOM      5  C   UNL     1       4.361   4.431  16.840  0.00  0.00    +0.000 A 
ATOM      6  C   UNL     1       5.147   3.689  15.948  0.00  0.00    +0.000 A 
ATOM      7  C   UNL     1       6.377   4.174  15.530  0.00  0.00    +0.000 A 
ATOM      8  C   UNL     1       6.835   5.389  16.019  0.00  0.00    +0.000 A 
ATOM      9  C   UNL     1       6.080   6.157  16.935  0.00  0.00    +0.000 A 
ATOM     10  C   UNL     1       6.754   7.414  17.406  0.00  0.00    +0.000 C 
ATOM     11  C   UNL     1       4.808   5.694  17.335  0.00  0.00    +0.000 A 
BRANCH   5  13
ATOM     12  C   UNL     1       3.022   2.646  17.695  0.00  0.00    +0.000 C 
ATOM     13  O   UNL     1       3.121   4.008  17.283  0.00  0.00    +0.000 OA
ENDBRANCH   5  13
ENDBRANCH   1  11
BRANCH   2  14
ATOM     14  C   UNL     1       2.234   7.774  19.167  0.00  0.00    +0.000 A 
ATOM     15  C   UNL     1       1.965   7.030  20.299  0.00  0.00    +0.000 A 
ATOM     16  C   UNL     1       1.137   7.824  21.127  0.00  0.00    +0.000 A 
ATOM     17  C   UNL     1       0.951   9.021  20.465  0.00  0.00    +0.000 A 
ATOM     18  O   UNL     1       1.597   8.980  19.253  0.00  0.00    +0.000 OA
BRANCH  17  19
ATOM     19  C   UNL     1       0.270  10.278  20.764  0.00  0.00    +0.000 A 
ATOM     20  C   UNL     1       0.141  11.227  19.732  0.00  0.00    +0.000 A 
ATOM     21  C   UNL     1      -0.448  12.469  19.967  0.00  0.00    +0.000 A 
ATOM     22 CL   UNL     1      -0.561  13.616  18.691  0.00  0.00    +0.000 Cl
ATOM     23  C   UNL     1      -0.932  12.790  21.232  0.00  0.00    +0.000 A 
ATOM     24  C   UNL     1      -0.833  11.858  22.262  0.00  0.00    +0.000 A 
ATOM     25  C   UNL     1      -0.237  10.608  22.036  0.00  0.00    +0.000 A 
ATOM     26 CL   UNL     1      -0.128   9.557  23.406  0.00  0.00    +0.000 Cl
ENDBRANCH  17  19
ENDBRANCH   2  14
TORSDOF 4
ENDMDL
MODEL 6
REMARK VINA RESULT:      -7.4      6.187      7.516
REMARK  Name = 
REMARK  6 active torsions:
REMARK  status: ('A' for Active; 'I' for Inactive)
REMARK    1  A    between atoms: C_1  and  O_2
REMARK    2  A    between atoms: O_2  and  C_3
REMARK    3  A    between atoms: C_7  and  C_8
REMARK    4  A    between atoms: C_9  and  N_10
REMARK    5  A    between atoms: C_11  and  C_13
REMARK    6  A    between atoms: C_16  and  C_17
REMARK                            x       y       z     vdW  Elec       q    Type
REMARK                         _______ _______ _______ _____ _____    ______ ____
ROOT
ATOM      1  N   UNL     1       9.387  10.004  19.253  0.00  0.00    +0.000 N 
ATOM      2  C   UNL     1       8.482   9.622  18.280  0.00  0.00    +0.000 C 
ATOM      3  O   UNL     1       7.946  10.358  17.461  0.00  0.00    +0.000 OA
ATOM      4  H   UNL     1       9.832   9.232  19.745  0.00  0.00    +0.000 HD
ENDROOT
BRANCH   1  11
ATOM      5  C   UNL     1       9.516  11.792  20.848  0.00  0.00    +0.000 A 
ATOM      6  C   UNL     1       9.996  13.022  21.322  0.00  0.00    +0.000 A 
ATOM      7  C   UNL     1      10.894  13.759  20.565  0.00  0.00    +0.000 A 
ATOM      8  C   UNL     1      11.296  13.283  19.326  0.00  0.00    +0.000 A 
ATOM      9  C   UNL     1      10.819  12.058  18.805  0.00  0.00    +0.000 A 
ATOM     10  C   UNL     1      11.311  11.727  17.425  0.00  0.00    +0.000 C 
ATOM     11  C   UNL     1       9.938  11.278  19.585  0.00  0.00    +0.000 A 
BRANCH   5  13
ATOM     12  C   UNL     1       8.071  11.582  22.740  0.00  0.00    +0.000 C 
ATOM     13  O   UNL     1       8.631  11.005  21.562  0.00  0.00    +0.000 OA
ENDBRANCH   5  13
ENDBRANCH   1  11
BRANCH   2  14
ATOM     14  C   UNL     1       8.208   8.197  18.235  0.00  0.00    +0.000 A 
ATOM     15  C   UNL     1       8.407   7.234  19.206  0.00  0.00    +0.000 A 
ATOM     16  C   UNL     1       7.917   6.014  18.684  0.00  0.00    +0.000 A 
ATOM     17  C   UNL     1       7.430   6.295  17.423  0.00  0.00    +0.000 A 
ATOM     18  O   UNL     1       7.634   7.622  17.136  0.00  0.00    +0.000 OA
BRANCH  17  19
ATOM     19  C   UNL     1       6.751   5.530  16.379  0.00  0.00    +0.000 A 
ATOM     20  C   UNL     1       7.366   5.437  15.116  0.00  0.00    +0.000 A 
ATOM     21  C   UNL     1       6.744   4.771  14.061  0.00  0.00    +0.000 A 
ATOM     22 CL   UNL     1       7.511   4.703  12.523  0.00  0.00    +0.000 Cl
ATOM     23  C   UNL     1       5.501   4.173  14.241  0.00  0.00    +0.000 A 
ATOM     24  C   UNL     1       4.883   4.237  15.489  0.00  0.00    +0.000 A 
ATOM     25  C   UNL     1       5.500   4.909  16.555  0.00  0.00    +0.000 A 
ATOM     26 CL   UNL     1       4.611   4.961  18.038  0.00  0.00    +0.000 Cl
ENDBRANCH  17  19
ENDBRANCH   2  14
TORSDOF 4
ENDMDL
MODEL 7
REMARK VINA RESULT:      -7.3      3.711      8.393
REMARK  Name = 
REMARK  6 active torsions:
REMARK  status: ('A' for Active; 'I' for Inactive)
REMARK    1  A    between atoms: C_1  and  O_2
REMARK    2  A    between atoms: O_2  and  C_3
REMARK    3  A    between atoms: C_7  and  C_8
REMARK    4  A    between atoms: C_9  and  N_10
REMARK    5  A    between atoms: C_11  and  C_13
REMARK    6  A    between atoms: C_16  and  C_17
REMARK                            x       y       z     vdW  Elec       q    Type
REMARK                         _______ _______ _______ _____ _____    ______ ____
ROOT
ATOM      1  N   UNL     1       2.302   5.671  18.360  0.00  0.00    +0.000 N 
ATOM      2  C   UNL     1       2.383   6.667  19.316  0.00  0.00    +0.000 C 
ATOM      3  O   UNL     1       2.733   6.525  20.480  0.00  0.00    +0.000 OA
ATOM      4  H   UNL     1       2.131   6.004  17.413  0.00  0.00    +0.000 HD
ENDROOT
BRANCH   1  11
ATOM      5  C   UNL     1       3.628   3.834  17.567  0.00  0.00    +0.000 A 
ATOM      6  C   UNL     1       4.028   2.491  17.545  0.00  0.00    +0.000 A 
ATOM      7  C   UNL     1       3.403   1.563  18.364  0.00  0.00    +0.000 A 
ATOM      8  C   UNL     1       2.364   1.968  19.188  0.00  0.00    +0.000 A 
ATOM      9  C   UNL     1       1.919   3.309  19.224  0.00  0.00    +0.000 A 
ATOM     10  C   UNL     1       0.745   3.559  20.127  0.00  0.00    +0.000 C 
ATOM     11  C   UNL     1       2.575   4.272  18.426  0.00  0.00    +0.000 A 
BRANCH   5  13
ATOM     12  C   UNL     1       5.616   5.031  16.992  0.00  0.00    +0.000 C 
ATOM     13  O   UNL     1       4.221   4.809  16.785  0.00  0.00    +0.000 OA
ENDBRANCH   5  13
ENDBRANCH   1  11
BRANCH   2  14
ATOM     14  C   UNL     1       2.058   7.997  18.831  0.00  0.00    +0.000 A 
ATOM     15  C   UNL     1       2.654   8.734  17.825  0.00  0.00    +0.000 A 
ATOM     16  C   UNL     1       1.920   9.938  17.708  0.00  0.00    +0.000 A 
ATOM     17  C   UNL     1       0.904   9.872  18.640  0.00  0.00    +0.000 A 
ATOM     18  O   UNL     1       1.006   8.699  19.348  0.00  0.00    +0.000 OA
BRANCH  17  19
ATOM     19  C   UNL     1      -0.223  10.725  19.009  0.00  0.00    +0.000 A 
ATOM     20  C   UNL     1      -1.439  10.556  18.321  0.00  0.00    +0.000 A 
ATOM     21  C   UNL     1      -2.536  11.376  18.586  0.00  0.00    +0.000 A 
ATOM     22 CL   UNL     1      -3.996  11.161  17.705  0.00  0.00    +0.000 Cl
ATOM     23  C   UNL     1      -2.449  12.376  19.550  0.00  0.00    +0.000 A 
ATOM     24  C   UNL     1      -1.261  12.548  20.257  0.00  0.00    +0.000 A 
ATOM     25  C   UNL     1      -0.152  11.730  19.993  0.00  0.00    +0.000 A 
ATOM     26 CL   UNL     1       1.281  12.074  20.901  0.00  0.00    +0.000 Cl
ENDBRANCH  17  19
ENDBRANCH   2  14
TORSDOF 4
ENDMDL
MODEL 8
REMARK VINA RESULT:      -7.2      3.453      8.691
REMARK  Name = 
REMARK  6 active torsions:
REMARK  status: ('A' for Active; 'I' for Inactive)
REMARK    1  A    between atoms: C_1  and  O_2
REMARK    2  A    between atoms: O_2  and  C_3
REMARK    3  A    between atoms: C_7  and  C_8
REMARK    4  A    between atoms: C_9  and  N_10
REMARK    5  A    between atoms: C_11  and  C_13
REMARK    6  A    between atoms: C_16  and  C_17
REMARK                            x       y       z     vdW  Elec       q    Type
REMARK                         _______ _______ _______ _____ _____    ______ ____
ROOT
ATOM      1  N   UNL     1       3.575   6.541  18.323  0.00  0.00    +0.000 N 
ATOM      2  C   UNL     1       2.860   7.699  18.077  0.00  0.00    +0.000 C 
ATOM      3  O   UNL     1       2.867   8.347  17.039  0.00  0.00    +0.000 OA
ATOM      4  H   UNL     1       3.330   6.067  19.189  0.00  0.00    +0.000 HD
ENDROOT
BRANCH   1  11
ATOM      5  C   UNL     1       4.004   4.509  17.120  0.00  0.00    +0.000 A 
ATOM      6  C   UNL     1       4.772   3.675  16.294  0.00  0.00    +0.000 A 
ATOM      7  C   UNL     1       6.013   4.095  15.840  0.00  0.00    +0.000 A 
ATOM      8  C   UNL     1       6.499   5.335  16.225  0.00  0.00    +0.000 A 
ATOM      9  C   UNL     1       5.763   6.196  17.072  0.00  0.00    +0.000 A 
ATOM     10  C   UNL     1       6.466   7.471  17.437  0.00  0.00    +0.000 C 
ATOM     11  C   UNL     1       4.480   5.798  17.507  0.00  0.00    +0.000 A 
BRANCH   5  13
ATOM     12  C   UNL     1       2.462   2.758  17.636  0.00  0.00    +0.000 C 
ATOM     13  O   UNL     1       2.754   4.154  17.594  0.00  0.00    +0.000 OA
ENDBRANCH   5  13
ENDBRANCH   1  11
BRANCH   2  14
ATOM     14  C   UNL     1       1.997   8.118  19.167  0.00  0.00    +0.000 A 
ATOM     15  C   UNL     1       1.861   7.584  20.434  0.00  0.00    +0.000 A 
ATOM     16  C   UNL     1       0.936   8.399  21.128  0.00  0.00    +0.000 A 
ATOM     17  C   UNL     1       0.563   9.401  20.254  0.00  0.00    +0.000 A 
ATOM     18  O   UNL     1       1.187   9.213  19.046  0.00  0.00    +0.000 OA
BRANCH  17  19
ATOM     19  C   UNL     1      -0.295  10.581  20.334  0.00  0.00    +0.000 A 
ATOM     20  C   UNL     1      -0.245  11.362  21.504  0.00  0.00    +0.000 A 
ATOM     21  C   UNL     1      -1.079  12.468  21.666  0.00  0.00    +0.000 A 
ATOM     22 CL   UNL     1      -1.013  13.382  23.120  0.00  0.00    +0.000 Cl
ATOM     23  C   UNL     1      -1.975  12.827  20.663  0.00  0.00    +0.000 A 
ATOM     24  C   UNL     1      -2.026  12.079  19.489  0.00  0.00    +0.000 A 
ATOM     25  C   UNL     1      -1.194  10.962  19.319  0.00  0.00    +0.000 A 
ATOM     26 CL   UNL     1      -1.388  10.086  17.840  0.00  0.00    +0.000 Cl
ENDBRANCH  17  19
ENDBRANCH   2  14
TORSDOF 4
ENDMDL
MODEL 9
REMARK VINA RESULT:      -7.2      1.695      2.182
REMARK  Name = 
REMARK  6 active torsions:
REMARK  status: ('A' for Active; 'I' for Inactive)
REMARK    1  A    between atoms: C_1  and  O_2
REMARK    2  A    between atoms: O_2  and  C_3
REMARK    3  A    between atoms: C_7  and  C_8
REMARK    4  A    between atoms: C_9  and  N_10
REMARK    5  A    between atoms: C_11  and  C_13
REMARK    6  A    between atoms: C_16  and  C_17
REMARK                            x       y       z     vdW  Elec       q    Type
REMARK                         _______ _______ _______ _____ _____    ______ ____
ROOT
ATOM      1  N   UNL     1       0.030   9.770  20.293  0.00  0.00    +0.000 N 
ATOM      2  C   UNL     1       1.102   9.481  19.469  0.00  0.00    +0.000 C 
ATOM      3  O   UNL     1       1.611  10.238  18.652  0.00  0.00    +0.000 OA
ATOM      4  H   UNL     1      -0.159   9.068  21.005  0.00  0.00    +0.000 HD
ENDROOT
BRANCH   1  11
ATOM      5  C   UNL     1      -0.685  11.559  21.724  0.00  0.00    +0.000 A 
ATOM      6  C   UNL     1      -1.387  12.740  22.004  0.00  0.00    +0.000 A 
ATOM      7  C   UNL     1      -2.170  13.335  21.028  0.00  0.00    +0.000 A 
ATOM      8  C   UNL     1      -2.273  12.743  19.778  0.00  0.00    +0.000 A 
ATOM      9  C   UNL     1      -1.596  11.542  19.463  0.00  0.00    +0.000 A 
ATOM     10  C   UNL     1      -1.869  11.008  18.086  0.00  0.00    +0.000 C 
ATOM     11  C   UNL     1      -0.762  10.949  20.436  0.00  0.00    +0.000 A 
BRANCH   5  13
ATOM     12  C   UNL     1      -0.454   9.827  23.355  0.00  0.00    +0.000 C 
ATOM     13  O   UNL     1       0.123  10.926  22.651  0.00  0.00    +0.000 OA
ENDBRANCH   5  13
ENDBRANCH   1  11
BRANCH   2  14
ATOM     14  C   UNL     1       1.674   8.160  19.661  0.00  0.00    +0.000 A 
ATOM     15  C   UNL     1       1.473   7.259  20.689  0.00  0.00    +0.000 A 
ATOM     16  C   UNL     1       2.214   6.097  20.369  0.00  0.00    +0.000 A 
ATOM     17  C   UNL     1       2.821   6.341  19.153  0.00  0.00    +0.000 A 
ATOM     18  O   UNL     1       2.516   7.613  18.735  0.00  0.00    +0.000 OA
BRANCH  17  19
ATOM     19  C   UNL     1       3.662   5.571  18.240  0.00  0.00    +0.000 A 
ATOM     20  C   UNL     1       4.949   6.060  17.948  0.00  0.00    +0.000 A 
ATOM     21  C   UNL     1       5.779   5.402  17.040  0.00  0.00    +0.000 A 
ATOM     22 CL   UNL     1       7.334   6.044  16.685  0.00  0.00    +0.000 Cl
ATOM     23  C   UNL     1       5.350   4.238  16.410  0.00  0.00    +0.000 A 
ATOM     24  C   UNL     1       4.087   3.726  16.699  0.00  0.00    +0.000 A 
ATOM     25  C   UNL     1       3.243   4.384  17.608  0.00  0.00    +0.000 A 
ATOM     26 CL   UNL     1       1.682   3.678  17.844  0.00  0.00    +0.000 Cl
ENDBRANCH  17  19
ENDBRANCH   2  14
TORSDOF 4
ENDMDL
