MODEL 1
REMARK VINA RESULT:      -7.8      0.000      0.000
REMARK  Name = 
REMARK  13 active torsions:
REMARK  status: ('A' for Active; 'I' for Inactive)
REMARK    1  A    between atoms: C_1  and  O_2
REMARK    2  A    between atoms: O_2  and  C_3
REMARK    3  A    between atoms: C_6  and  N_7
REMARK    4  A    between atoms: N_7  and  C_8
REMARK    5  A    between atoms: N_7  and  S_20
REMARK    6  A    between atoms: C_8  and  C_9
REMARK    7  A    between atoms: N_11  and  C_12
REMARK    8  A    between atoms: C_14  and  C_15
REMARK    9  A    between atoms: C_18  and  C_19
REMARK   10  A    between atoms: S_20  and  C_23
REMARK   11  A    between atoms: C_24  and  C_25
REMARK   12  A    between atoms: N_27  and  C_28
REMARK   13  A    between atoms: C_29  and  C_30
REMARK                            x       y       z     vdW  Elec       q    Type
REMARK                         _______ _______ _______ _____ _____    ______ ____
ROOT
ATOM      1  N   UNL     1       0.062  10.774  19.646  0.00  0.00    +0.000 N 
ENDROOT
BRANCH   1   5
ATOM      2  C   UNL     1      -3.449  11.101  17.257  0.00  0.00    +0.000 A 
ATOM      3  C   UNL     1      -3.379  11.727  18.499  0.00  0.00    +0.000 A 
ATOM      4  C   UNL     1      -2.241  11.602  19.292  0.00  0.00    +0.000 A 
ATOM      5  C   UNL     1      -1.149  10.844  18.850  0.00  0.00    +0.000 A 
ATOM      6  C   UNL     1      -1.229  10.173  17.626  0.00  0.00    +0.000 A 
ATOM      7  C   UNL     1      -2.378  10.316  16.822  0.00  0.00    +0.000 A 
BRANCH   2   9
ATOM      8  C   UNL     1      -5.604  12.100  17.259  0.00  0.00    +0.000 C 
ATOM      9  O   UNL     1      -4.624  11.314  16.594  0.00  0.00    +0.000 OA
ENDBRANCH   2   9
ENDBRANCH   1   5
BRANCH   1  10
ATOM     10  S   UNL     1       0.557  12.288  20.323  0.00  0.00    +0.000 S 
ATOM     11  O   UNL     1       1.906  12.115  20.822  0.00  0.00    +0.000 OA
ATOM     12  O   UNL     1       0.273  13.319  19.347  0.00  0.00    +0.000 OA
BRANCH  10  13
ATOM     13  C   UNL     1      -0.371  12.753  21.728  0.00  0.00    +0.000 A 
ATOM     14  C   UNL     1      -0.893  11.872  22.722  0.00  0.00    +0.000 A 
ATOM     15  C   UNL     1      -0.869  10.393  22.850  0.00  0.00    +0.000 C 
ATOM     16  N   UNL     1      -1.506  12.549  23.702  0.00  0.00    +0.000 NA
ATOM     17  N   UNL     1      -1.367  13.836  23.372  0.00  0.00    +0.000 N 
ATOM     18  C   UNL     1      -1.890  14.836  24.279  0.00  0.00    +0.000 C 
ATOM     19  C   UNL     1      -0.722  14.029  22.174  0.00  0.00    +0.000 A 
ATOM     20  C   UNL     1      -0.473  15.390  21.629  0.00  0.00    +0.000 C 
ENDBRANCH  10  13
ENDBRANCH   1  10
BRANCH   1  21
ATOM     21  C   UNL     1       1.153   9.998  19.001  0.00  0.00    +0.000 C 
BRANCH  21  22
ATOM     22  C   UNL     1       1.627   8.651  19.507  0.00  0.00    +0.000 C 
ATOM     23  O   UNL     1       1.527   8.477  20.727  0.00  0.00    +0.000 OA
ATOM     24  N   UNL     1       2.255   7.774  18.632  0.00  0.00    +0.000 N 
ATOM     25  H   UNL     1       2.359   8.073  17.670  0.00  0.00    +0.000 HD
BRANCH  24  26
ATOM     26  C   UNL     1       2.767   6.476  18.979  0.00  0.00    +0.000 A 
ATOM     27  C   UNL     1       2.191   5.708  20.010  0.00  0.00    +0.000 A 
ATOM     28  C   UNL     1       2.638   4.418  20.343  0.00  0.00    +0.000 A 
ATOM     29  C   UNL     1       2.032   3.668  21.492  0.00  0.00    +0.000 C 
ATOM     30  C   UNL     1       3.659   3.847  19.595  0.00  0.00    +0.000 A 
ATOM     31  C   UNL     1       4.268   4.586  18.583  0.00  0.00    +0.000 A 
ATOM     32  C   UNL     1       3.864   5.911  18.290  0.00  0.00    +0.000 A 
ATOM     33  C   UNL     1       4.695   6.656  17.277  0.00  0.00    +0.000 C 
ENDBRANCH  24  26
ENDBRANCH  21  22
ENDBRANCH   1  21
TORSDOF 7
ENDMDL
MODEL 2
REMARK VINA RESULT:      -7.8      0.984      1.301
REMARK  Name = 
REMARK  13 active torsions:
REMARK  status: ('A' for Active; 'I' for Inactive)
REMARK    1  A    between atoms: C_1  and  O_2
REMARK    2  A    between atoms: O_2  and  C_3
REMARK    3  A    between atoms: C_6  and  N_7
REMARK    4  A    between atoms: N_7  and  C_8
REMARK    5  A    between atoms: N_7  and  S_20
REMARK    6  A    between atoms: C_8  and  C_9
REMARK    7  A    between atoms: N_11  and  C_12
REMARK    8  A    between atoms: C_14  and  C_15
REMARK    9  A    between atoms: C_18  and  C_19
REMARK   10  A    between atoms: S_20  and  C_23
REMARK   11  A    between atoms: C_24  and  C_25
REMARK   12  A    between atoms: N_27  and  C_28
REMARK   13  A    between atoms: C_29  and  C_30
REMARK                            x       y       z     vdW  Elec       q    Type
REMARK                         _______ _______ _______ _____ _____    ______ ____
ROOT
ATOM      1  N   UNL     1       0.297  10.455  19.519  0.00  0.00    +0.000 N 
ENDROOT
BRANCH   1   5
ATOM      2  C   UNL     1      -3.374  11.002  17.431  0.00  0.00    +0.000 A 
ATOM      3  C   UNL     1      -2.375  10.189  16.902  0.00  0.00    +0.000 A 
ATOM      4  C   UNL     1      -1.165  10.027  17.572  0.00  0.00    +0.000 A 
ATOM      5  C   UNL     1      -0.936  10.681  18.790  0.00  0.00    +0.000 A 
ATOM      6  C   UNL     1      -1.915  11.537  19.304  0.00  0.00    +0.000 A 
ATOM      7  C   UNL     1      -3.143  11.685  18.628  0.00  0.00    +0.000 A 
BRANCH   2   9
ATOM      8  C   UNL     1      -5.479  12.029  17.034  0.00  0.00    +0.000 C 
ATOM      9  O   UNL     1      -4.504  11.063  16.665  0.00  0.00    +0.000 OA
ENDBRANCH   2   9
ENDBRANCH   1   5
BRANCH   1  10
ATOM     10  S   UNL     1       0.839  11.818  20.439  0.00  0.00    +0.000 S 
ATOM     11  O   UNL     1       2.056  11.422  21.118  0.00  0.00    +0.000 OA
ATOM     12  O   UNL     1       0.841  12.968  19.560  0.00  0.00    +0.000 OA
BRANCH  10  13
ATOM     13  C   UNL     1      -0.254  12.259  21.728  0.00  0.00    +0.000 A 
ATOM     14  C   UNL     1      -0.803  11.378  22.707  0.00  0.00    +0.000 A 
ATOM     15  C   UNL     1      -0.679   9.911  22.903  0.00  0.00    +0.000 C 
ATOM     16  N   UNL     1      -1.558  12.039  23.593  0.00  0.00    +0.000 NA
ATOM     17  N   UNL     1      -1.485  13.321  23.220  0.00  0.00    +0.000 N 
ATOM     18  C   UNL     1      -2.169  14.308  24.028  0.00  0.00    +0.000 C 
ATOM     19  C   UNL     1      -0.743  13.519  22.081  0.00  0.00    +0.000 A 
ATOM     20  C   UNL     1      -0.546  14.874  21.502  0.00  0.00    +0.000 C 
ENDBRANCH  10  13
ENDBRANCH   1  10
BRANCH   1  21
ATOM     21  C   UNL     1       1.355   9.796  18.709  0.00  0.00    +0.000 C 
BRANCH  21  22
ATOM     22  C   UNL     1       1.782   8.358  18.913  0.00  0.00    +0.000 C 
ATOM     23  O   UNL     1       1.862   7.988  20.091  0.00  0.00    +0.000 OA
ATOM     24  N   UNL     1       2.185   7.601  17.819  0.00  0.00    +0.000 N 
ATOM     25  H   UNL     1       2.162   8.049  16.911  0.00  0.00    +0.000 HD
BRANCH  24  26
ATOM     26  C   UNL     1       2.630   6.235  17.869  0.00  0.00    +0.000 A 
ATOM     27  C   UNL     1       1.757   5.189  18.227  0.00  0.00    +0.000 A 
ATOM     28  C   UNL     1       2.147   3.839  18.240  0.00  0.00    +0.000 A 
ATOM     29  C   UNL     1       1.197   2.770  18.691  0.00  0.00    +0.000 C 
ATOM     30  C   UNL     1       3.434   3.507  17.837  0.00  0.00    +0.000 A 
ATOM     31  C   UNL     1       4.331   4.518  17.499  0.00  0.00    +0.000 A 
ATOM     32  C   UNL     1       3.961   5.884  17.549  0.00  0.00    +0.000 A 
ATOM     33  C   UNL     1       5.059   6.886  17.305  0.00  0.00    +0.000 C 
ENDBRANCH  24  26
ENDBRANCH  21  22
ENDBRANCH   1  21
TORSDOF 7
ENDMDL
MODEL 3
REMARK VINA RESULT:      -7.6      2.739      5.155
REMARK  Name = 
REMARK  13 active torsions:
REMARK  status: ('A' for Active; 'I' for Inactive)
REMARK    1  A    between atoms: C_1  and  O_2
REMARK    2  A    between atoms: O_2  and  C_3
REMARK    3  A    between atoms: C_6  and  N_7
REMARK    4  A    between atoms: N_7  and  C_8
REMARK    5  A    between atoms: N_7  and  S_20
REMARK    6  A    between atoms: C_8  and  C_9
REMARK    7  A    between atoms: N_11  and  C_12
REMARK    8  A    between atoms: C_14  and  C_15
REMARK    9  A    between atoms: C_18  and  C_19
REMARK   10  A    between atoms: S_20  and  C_23
REMARK   11  A    between atoms: C_24  and  C_25
REMARK   12  A    between atoms: N_27  and  C_28
REMARK   13  A    between atoms: C_29  and  C_30
REMARK                            x       y       z     vdW  Elec       q    Type
REMARK                         _______ _______ _______ _____ _____    ______ ____
ROOT
ATOM      1  N   UNL     1       0.264  11.554  19.706  0.00  0.00    +0.000 N 
ENDROOT
BRANCH   1   5
ATOM      2  C   UNL     1       3.540  14.259  19.406  0.00  0.00    +0.000 A 
ATOM      3  C   UNL     1       2.969  13.712  18.260  0.00  0.00    +0.000 A 
ATOM      4  C   UNL     1       1.913  12.810  18.357  0.00  0.00    +0.000 A 
ATOM      5  C   UNL     1       1.409  12.440  19.611  0.00  0.00    +0.000 A 
ATOM      6  C   UNL     1       2.008  12.947  20.769  0.00  0.00    +0.000 A 
ATOM      7  C   UNL     1       3.067  13.871  20.662  0.00  0.00    +0.000 A 
BRANCH   2   9
ATOM      8  C   UNL     1       5.140  15.084  17.857  0.00  0.00    +0.000 C 
ATOM      9  O   UNL     1       4.564  15.128  19.155  0.00  0.00    +0.000 OA
ENDBRANCH   2   9
ENDBRANCH   1   5
BRANCH   1  10
ATOM     10  S   UNL     1      -1.105  12.246  20.510  0.00  0.00    +0.000 S 
ATOM     11  O   UNL     1      -1.318  11.487  21.725  0.00  0.00    +0.000 OA
ATOM     12  O   UNL     1      -0.898  13.677  20.576  0.00  0.00    +0.000 OA
BRANCH  10  13
ATOM     13  C   UNL     1      -2.595  12.063  19.616  0.00  0.00    +0.000 A 
ATOM     14  C   UNL     1      -3.870  12.582  19.989  0.00  0.00    +0.000 A 
ATOM     15  C   UNL     1      -4.324  13.337  21.184  0.00  0.00    +0.000 C 
ATOM     16  N   UNL     1      -4.797  12.319  19.059  0.00  0.00    +0.000 NA
ATOM     17  N   UNL     1      -4.141  11.668  18.093  0.00  0.00    +0.000 N 
ATOM     18  C   UNL     1      -4.875  11.288  16.904  0.00  0.00    +0.000 C 
ATOM     19  C   UNL     1      -2.815  11.449  18.381  0.00  0.00    +0.000 A 
ATOM     20  C   UNL     1      -1.916  10.738  17.435  0.00  0.00    +0.000 C 
ENDBRANCH  10  13
ENDBRANCH   1  10
BRANCH   1  21
ATOM     21  C   UNL     1       0.612  10.179  20.150  0.00  0.00    +0.000 C 
BRANCH  21  22
ATOM     22  C   UNL     1       1.279   9.160  19.250  0.00  0.00    +0.000 C 
ATOM     23  O   UNL     1       1.100   9.323  18.037  0.00  0.00    +0.000 OA
ATOM     24  N   UNL     1       1.911   8.059  19.814  0.00  0.00    +0.000 N 
ATOM     25  H   UNL     1       1.910   7.990  20.825  0.00  0.00    +0.000 HD
BRANCH  24  26
ATOM     26  C   UNL     1       2.568   7.009  19.083  0.00  0.00    +0.000 A 
ATOM     27  C   UNL     1       3.413   7.290  17.991  0.00  0.00    +0.000 A 
ATOM     28  C   UNL     1       4.106   6.292  17.284  0.00  0.00    +0.000 A 
ATOM     29  C   UNL     1       4.942   6.638  16.089  0.00  0.00    +0.000 C 
ATOM     30  C   UNL     1       3.997   4.973  17.705  0.00  0.00    +0.000 A 
ATOM     31  C   UNL     1       3.151   4.656  18.766  0.00  0.00    +0.000 A 
ATOM     32  C   UNL     1       2.401   5.651  19.437  0.00  0.00    +0.000 A 
ATOM     33  C   UNL     1       1.414   5.166  20.467  0.00  0.00    +0.000 C 
ENDBRANCH  24  26
ENDBRANCH  21  22
ENDBRANCH   1  21
TORSDOF 7
ENDMDL
MODEL 4
REMARK VINA RESULT:      -7.6      2.706      4.776
REMARK  Name = 
REMARK  13 active torsions:
REMARK  status: ('A' for Active; 'I' for Inactive)
REMARK    1  A    between atoms: C_1  and  O_2
REMARK    2  A    between atoms: O_2  and  C_3
REMARK    3  A    between atoms: C_6  and  N_7
REMARK    4  A    between atoms: N_7  and  C_8
REMARK    5  A    between atoms: N_7  and  S_20
REMARK    6  A    between atoms: C_8  and  C_9
REMARK    7  A    between atoms: N_11  and  C_12
REMARK    8  A    between atoms: C_14  and  C_15
REMARK    9  A    between atoms: C_18  and  C_19
REMARK   10  A    between atoms: S_20  and  C_23
REMARK   11  A    between atoms: C_24  and  C_25
REMARK   12  A    between atoms: N_27  and  C_28
REMARK   13  A    between atoms: C_29  and  C_30
REMARK                            x       y       z     vdW  Elec       q    Type
REMARK                         _______ _______ _______ _____ _____    ______ ____
ROOT
ATOM      1  N   UNL     1       0.267  11.585  20.372  0.00  0.00    +0.000 N 
ENDROOT
BRANCH   1   5
ATOM      2  C   UNL     1       3.343  14.246  19.107  0.00  0.00    +0.000 A 
ATOM      3  C   UNL     1       2.588  13.543  18.172  0.00  0.00    +0.000 A 
ATOM      4  C   UNL     1       1.597  12.656  18.583  0.00  0.00    +0.000 A 
ATOM      5  C   UNL     1       1.346  12.457  19.947  0.00  0.00    +0.000 A 
ATOM      6  C   UNL     1       2.132  13.122  20.895  0.00  0.00    +0.000 A 
ATOM      7  C   UNL     1       3.123  14.030  20.470  0.00  0.00    +0.000 A 
BRANCH   2   9
ATOM      8  C   UNL     1       4.124  16.469  18.809  0.00  0.00    +0.000 C 
ATOM      9  O   UNL     1       4.275  15.079  18.556  0.00  0.00    +0.000 OA
ENDBRANCH   2   9
ENDBRANCH   1   5
BRANCH   1  10
ATOM     10  S   UNL     1      -1.145  12.420  20.927  0.00  0.00    +0.000 S 
ATOM     11  O   UNL     1      -1.512  11.841  22.204  0.00  0.00    +0.000 OA
ATOM     12  O   UNL     1      -0.885  13.840  20.823  0.00  0.00    +0.000 OA
BRANCH  10  13
ATOM     13  C   UNL     1      -2.544  12.159  19.914  0.00  0.00    +0.000 A 
ATOM     14  C   UNL     1      -3.861  12.653  20.152  0.00  0.00    +0.000 A 
ATOM     15  C   UNL     1      -4.439  13.437  21.272  0.00  0.00    +0.000 C 
ATOM     16  N   UNL     1      -4.694  12.328  19.155  0.00  0.00    +0.000 NA
ATOM     17  N   UNL     1      -3.937  11.663  18.277  0.00  0.00    +0.000 N 
ATOM     18  C   UNL     1      -4.552  11.217  17.044  0.00  0.00    +0.000 C 
ATOM     19  C   UNL     1      -2.637  11.494  18.689  0.00  0.00    +0.000 A 
ATOM     20  C   UNL     1      -1.639  10.776  17.854  0.00  0.00    +0.000 C 
ENDBRANCH  10  13
ENDBRANCH   1  10
BRANCH   1  21
ATOM     21  C   UNL     1       0.713  10.473  21.251  0.00  0.00    +0.000 C 
BRANCH  21  22
ATOM     22  C   UNL     1       0.715   9.022  20.816  0.00  0.00    +0.000 C 
ATOM     23  O   UNL     1      -0.310   8.384  21.084  0.00  0.00    +0.000 OA
ATOM     24  N   UNL     1       1.875   8.466  20.291  0.00  0.00    +0.000 N 
ATOM     25  H   UNL     1       2.683   9.072  20.206  0.00  0.00    +0.000 HD
BRANCH  24  26
ATOM     26  C   UNL     1       2.025   7.104  19.856  0.00  0.00    +0.000 A 
ATOM     27  C   UNL     1       1.744   6.022  20.714  0.00  0.00    +0.000 A 
ATOM     28  C   UNL     1       1.835   4.680  20.307  0.00  0.00    +0.000 A 
ATOM     29  C   UNL     1       1.588   3.565  21.278  0.00  0.00    +0.000 C 
ATOM     30  C   UNL     1       2.167   4.400  18.988  0.00  0.00    +0.000 A 
ATOM     31  C   UNL     1       2.475   5.444  18.119  0.00  0.00    +0.000 A 
ATOM     32  C   UNL     1       2.448   6.794  18.544  0.00  0.00    +0.000 A 
ATOM     33  C   UNL     1       2.942   7.818  17.556  0.00  0.00    +0.000 C 
ENDBRANCH  24  26
ENDBRANCH  21  22
ENDBRANCH   1  21
TORSDOF 7
ENDMDL
MODEL 5
REMARK VINA RESULT:      -7.6      0.648      1.554
REMARK  Name = 
REMARK  13 active torsions:
REMARK  status: ('A' for Active; 'I' for Inactive)
REMARK    1  A    between atoms: C_1  and  O_2
REMARK    2  A    between atoms: O_2  and  C_3
REMARK    3  A    between atoms: C_6  and  N_7
REMARK    4  A    between atoms: N_7  and  C_8
REMARK    5  A    between atoms: N_7  and  S_20
REMARK    6  A    between atoms: C_8  and  C_9
REMARK    7  A    between atoms: N_11  and  C_12
REMARK    8  A    between atoms: C_14  and  C_15
REMARK    9  A    between atoms: C_18  and  C_19
REMARK   10  A    between atoms: S_20  and  C_23
REMARK   11  A    between atoms: C_24  and  C_25
REMARK   12  A    between atoms: N_27  and  C_28
REMARK   13  A    between atoms: C_29  and  C_30
REMARK                            x       y       z     vdW  Elec       q    Type
REMARK                         _______ _______ _______ _____ _____    ______ ____
ROOT
ATOM      1  N   UNL     1       0.010  10.714  19.665  0.00  0.00    +0.000 N 
ENDROOT
BRANCH   1   5
ATOM      2  C   UNL     1      -3.434  11.050  17.182  0.00  0.00    +0.000 A 
ATOM      3  C   UNL     1      -3.392  11.683  18.421  0.00  0.00    +0.000 A 
ATOM      4  C   UNL     1      -2.277  11.556  19.245  0.00  0.00    +0.000 A 
ATOM      5  C   UNL     1      -1.178  10.788  18.837  0.00  0.00    +0.000 A 
ATOM      6  C   UNL     1      -1.231  10.109  17.614  0.00  0.00    +0.000 A 
ATOM      7  C   UNL     1      -2.357  10.255  16.780  0.00  0.00    +0.000 A 
BRANCH   2   9
ATOM      8  C   UNL     1      -5.590  12.045  17.129  0.00  0.00    +0.000 C 
ATOM      9  O   UNL     1      -4.590  11.267  16.486  0.00  0.00    +0.000 OA
ENDBRANCH   2   9
ENDBRANCH   1   5
BRANCH   1  10
ATOM     10  S   UNL     1       0.469  12.220  20.385  0.00  0.00    +0.000 S 
ATOM     11  O   UNL     1       1.607  11.957  21.243  0.00  0.00    +0.000 OA
ATOM     12  O   UNL     1       0.572  13.200  19.325  0.00  0.00    +0.000 OA
BRANCH  10  13
ATOM     13  C   UNL     1      -0.745  12.869  21.461  0.00  0.00    +0.000 A 
ATOM     14  C   UNL     1      -1.331  14.167  21.384  0.00  0.00    +0.000 A 
ATOM     15  C   UNL     1      -1.085  15.315  20.476  0.00  0.00    +0.000 C 
ATOM     16  N   UNL     1      -2.274  14.335  22.320  0.00  0.00    +0.000 NA
ATOM     17  N   UNL     1      -2.321  13.170  22.975  0.00  0.00    +0.000 N 
ATOM     18  C   UNL     1      -3.299  13.019  24.032  0.00  0.00    +0.000 C 
ATOM     19  C   UNL     1      -1.399  12.253  22.530  0.00  0.00    +0.000 A 
ATOM     20  C   UNL     1      -1.290  10.899  23.133  0.00  0.00    +0.000 C 
ENDBRANCH  10  13
ENDBRANCH   1  10
BRANCH   1  21
ATOM     21  C   UNL     1       1.128   9.964  19.035  0.00  0.00    +0.000 C 
BRANCH  21  22
ATOM     22  C   UNL     1       1.607   8.616  19.532  0.00  0.00    +0.000 C 
ATOM     23  O   UNL     1       1.488   8.424  20.748  0.00  0.00    +0.000 OA
ATOM     24  N   UNL     1       2.260   7.756  18.657  0.00  0.00    +0.000 N 
ATOM     25  H   UNL     1       2.378   8.069  17.701  0.00  0.00    +0.000 HD
BRANCH  24  26
ATOM     26  C   UNL     1       2.781   6.459  18.996  0.00  0.00    +0.000 A 
ATOM     27  C   UNL     1       2.199   5.675  20.011  0.00  0.00    +0.000 A 
ATOM     28  C   UNL     1       2.654   4.385  20.336  0.00  0.00    +0.000 A 
ATOM     29  C   UNL     1       2.041   3.617  21.468  0.00  0.00    +0.000 C 
ATOM     30  C   UNL     1       3.690   3.832  19.594  0.00  0.00    +0.000 A 
ATOM     31  C   UNL     1       4.304   4.589  18.599  0.00  0.00    +0.000 A 
ATOM     32  C   UNL     1       3.892   5.913  18.315  0.00  0.00    +0.000 A 
ATOM     33  C   UNL     1       4.727   6.677  17.322  0.00  0.00    +0.000 C 
ENDBRANCH  24  26
ENDBRANCH  21  22
ENDBRANCH   1  21
TORSDOF 7
ENDMDL
MODEL 6
REMARK VINA RESULT:      -7.6      3.492      9.004
REMARK  Name = 
REMARK  13 active torsions:
REMARK  status: ('A' for Active; 'I' for Inactive)
REMARK    1  A    between atoms: C_1  and  O_2
REMARK    2  A    between atoms: O_2  and  C_3
REMARK    3  A    between atoms: C_6  and  N_7
REMARK    4  A    between atoms: N_7  and  C_8
REMARK    5  A    between atoms: N_7  and  S_20
REMARK    6  A    between atoms: C_8  and  C_9
REMARK    7  A    between atoms: N_11  and  C_12
REMARK    8  A    between atoms: C_14  and  C_15
REMARK    9  A    between atoms: C_18  and  C_19
REMARK   10  A    between atoms: S_20  and  C_23
REMARK   11  A    between atoms: C_24  and  C_25
REMARK   12  A    between atoms: N_27  and  C_28
REMARK   13  A    between atoms: C_29  and  C_30
REMARK                            x       y       z     vdW  Elec       q    Type
REMARK                         _______ _______ _______ _____ _____    ______ ____
ROOT
ATOM      1  N   UNL     1       3.316   6.770  17.430  0.00  0.00    +0.000 N 
ENDROOT
BRANCH   1   5
ATOM      2  C   UNL     1       1.587   3.842  19.994  0.00  0.00    +0.000 A 
ATOM      3  C   UNL     1       1.381   3.786  18.618  0.00  0.00    +0.000 A 
ATOM      4  C   UNL     1       1.926   4.756  17.780  0.00  0.00    +0.000 A 
ATOM      5  C   UNL     1       2.692   5.802  18.311  0.00  0.00    +0.000 A 
ATOM      6  C   UNL     1       2.864   5.893  19.697  0.00  0.00    +0.000 A 
ATOM      7  C   UNL     1       2.321   4.900  20.537  0.00  0.00    +0.000 A 
BRANCH   2   9
ATOM      8  C   UNL     1       1.572   2.474  21.936  0.00  0.00    +0.000 C 
ATOM      9  O   UNL     1       0.993   2.824  20.686  0.00  0.00    +0.000 OA
ENDBRANCH   2   9
ENDBRANCH   1   5
BRANCH   1  10
ATOM     10  S   UNL     1       4.777   6.215  16.686  0.00  0.00    +0.000 S 
ATOM     11  O   UNL     1       4.563   4.837  16.294  0.00  0.00    +0.000 OA
ATOM     12  O   UNL     1       5.166   7.198  15.696  0.00  0.00    +0.000 OA
BRANCH  10  13
ATOM     13  C   UNL     1       6.131   6.149  17.787  0.00  0.00    +0.000 A 
ATOM     14  C   UNL     1       7.182   7.109  17.890  0.00  0.00    +0.000 A 
ATOM     15  C   UNL     1       7.475   8.345  17.122  0.00  0.00    +0.000 C 
ATOM     16  N   UNL     1       8.035   6.798  18.875  0.00  0.00    +0.000 NA
ATOM     17  N   UNL     1       7.542   5.680  19.418  0.00  0.00    +0.000 N 
ATOM     18  C   UNL     1       8.227   5.116  20.561  0.00  0.00    +0.000 C 
ATOM     19  C   UNL     1       6.413   5.215  18.787  0.00  0.00    +0.000 A 
ATOM     20  C   UNL     1       5.717   3.982  19.238  0.00  0.00    +0.000 C 
ENDBRANCH  10  13
ENDBRANCH   1  10
BRANCH   1  21
ATOM     21  C   UNL     1       3.399   8.136  18.011  0.00  0.00    +0.000 C 
BRANCH  21  22
ATOM     22  C   UNL     1       2.278   9.150  17.912  0.00  0.00    +0.000 C 
ATOM     23  O   UNL     1       2.502  10.120  17.178  0.00  0.00    +0.000 OA
ATOM     24  N   UNL     1       1.161   9.017  18.726  0.00  0.00    +0.000 N 
ATOM     25  H   UNL     1       1.137   8.223  19.356  0.00  0.00    +0.000 HD
BRANCH  24  26
ATOM     26  C   UNL     1       0.035   9.911  18.750  0.00  0.00    +0.000 A 
ATOM     27  C   UNL     1      -0.968   9.858  17.762  0.00  0.00    +0.000 A 
ATOM     28  C   UNL     1      -2.104  10.685  17.781  0.00  0.00    +0.000 A 
ATOM     29  C   UNL     1      -3.111  10.632  16.670  0.00  0.00    +0.000 C 
ATOM     30  C   UNL     1      -2.279  11.562  18.843  0.00  0.00    +0.000 A 
ATOM     31  C   UNL     1      -1.296  11.658  19.825  0.00  0.00    +0.000 A 
ATOM     32  C   UNL     1      -0.118  10.873  19.773  0.00  0.00    +0.000 A 
ATOM     33  C   UNL     1       0.934  11.173  20.809  0.00  0.00    +0.000 C 
ENDBRANCH  24  26
ENDBRANCH  21  22
ENDBRANCH   1  21
TORSDOF 7
ENDMDL
MODEL 7
REMARK VINA RESULT:      -7.6      2.889      4.416
REMARK  Name = 
REMARK  13 active torsions:
REMARK  status: ('A' for Active; 'I' for Inactive)
REMARK    1  A    between atoms: C_1  and  O_2
REMARK    2  A    between atoms: O_2  and  C_3
REMARK    3  A    between atoms: C_6  and  N_7
REMARK    4  A    between atoms: N_7  and  C_8
REMARK    5  A    between atoms: N_7  and  S_20
REMARK    6  A    between atoms: C_8  and  C_9
REMARK    7  A    between atoms: N_11  and  C_12
REMARK    8  A    between atoms: C_14  and  C_15
REMARK    9  A    between atoms: C_18  and  C_19
REMARK   10  A    between atoms: S_20  and  C_23
REMARK   11  A    between atoms: C_24  and  C_25
REMARK   12  A    between atoms: N_27  and  C_28
REMARK   13  A    between atoms: C_29  and  C_30
REMARK                            x       y       z     vdW  Elec       q    Type
REMARK                         _______ _______ _______ _____ _____    ______ ____
ROOT
ATOM      1  N   UNL     1       0.490  11.790  20.787  0.00  0.00    +0.000 N 
ENDROOT
BRANCH   1   5
ATOM      2  C   UNL     1       3.331  14.419  19.010  0.00  0.00    +0.000 A 
ATOM      3  C   UNL     1       3.358  14.172  20.380  0.00  0.00    +0.000 A 
ATOM      4  C   UNL     1       2.416  13.331  20.967  0.00  0.00    +0.000 A 
ATOM      5  C   UNL     1       1.426  12.720  20.185  0.00  0.00    +0.000 A 
ATOM      6  C   UNL     1       1.362  13.001  18.816  0.00  0.00    +0.000 A 
ATOM      7  C   UNL     1       2.328  13.841  18.227  0.00  0.00    +0.000 A 
BRANCH   2   9
ATOM      8  C   UNL     1       5.390  14.677  17.853  0.00  0.00    +0.000 C 
ATOM      9  O   UNL     1       4.316  15.262  18.578  0.00  0.00    +0.000 OA
ENDBRANCH   2   9
ENDBRANCH   1   5
BRANCH   1  10
ATOM     10  S   UNL     1      -0.578  12.506  21.946  0.00  0.00    +0.000 S 
ATOM     11  O   UNL     1      -0.611  11.630  23.099  0.00  0.00    +0.000 OA
ATOM     12  O   UNL     1      -0.192  13.893  22.100  0.00  0.00    +0.000 OA
BRANCH  10  13
ATOM     13  C   UNL     1      -2.237  12.576  21.404  0.00  0.00    +0.000 A 
ATOM     14  C   UNL     1      -2.699  12.351  20.073  0.00  0.00    +0.000 A 
ATOM     15  C   UNL     1      -1.979  12.063  18.807  0.00  0.00    +0.000 C 
ATOM     16  N   UNL     1      -4.035  12.418  20.000  0.00  0.00    +0.000 NA
ATOM     17  N   UNL     1      -4.437  12.655  21.253  0.00  0.00    +0.000 N 
ATOM     18  C   UNL     1      -5.859  12.730  21.512  0.00  0.00    +0.000 C 
ATOM     19  C   UNL     1      -3.401  12.797  22.145  0.00  0.00    +0.000 A 
ATOM     20  C   UNL     1      -3.640  13.068  23.586  0.00  0.00    +0.000 C 
ENDBRANCH  10  13
ENDBRANCH   1  10
BRANCH   1  21
ATOM     21  C   UNL     1       1.119  10.518  21.230  0.00  0.00    +0.000 C 
BRANCH  21  22
ATOM     22  C   UNL     1       1.059   9.237  20.422  0.00  0.00    +0.000 C 
ATOM     23  O   UNL     1       0.118   9.155  19.625  0.00  0.00    +0.000 OA
ATOM     24  N   UNL     1       1.943   8.205  20.710  0.00  0.00    +0.000 N 
ATOM     25  H   UNL     1       2.613   8.361  21.454  0.00  0.00    +0.000 HD
BRANCH  24  26
ATOM     26  C   UNL     1       1.988   6.934  20.039  0.00  0.00    +0.000 A 
ATOM     27  C   UNL     1       1.616   5.743  20.693  0.00  0.00    +0.000 A 
ATOM     28  C   UNL     1       1.603   4.492  20.053  0.00  0.00    +0.000 A 
ATOM     29  C   UNL     1       1.260   3.245  20.812  0.00  0.00    +0.000 C 
ATOM     30  C   UNL     1       1.923   4.424  18.703  0.00  0.00    +0.000 A 
ATOM     31  C   UNL     1       2.320   5.578  18.032  0.00  0.00    +0.000 A 
ATOM     32  C   UNL     1       2.397   6.829  18.690  0.00  0.00    +0.000 A 
ATOM     33  C   UNL     1       2.978   7.970  17.897  0.00  0.00    +0.000 C 
ENDBRANCH  24  26
ENDBRANCH  21  22
ENDBRANCH   1  21
TORSDOF 7
ENDMDL
MODEL 8
REMARK VINA RESULT:      -7.6      2.640      4.894
REMARK  Name = 
REMARK  13 active torsions:
REMARK  status: ('A' for Active; 'I' for Inactive)
REMARK    1  A    between atoms: C_1  and  O_2
REMARK    2  A    between atoms: O_2  and  C_3
REMARK    3  A    between atoms: C_6  and  N_7
REMARK    4  A    between atoms: N_7  and  C_8
REMARK    5  A    between atoms: N_7  and  S_20
REMARK    6  A    between atoms: C_8  and  C_9
REMARK    7  A    between atoms: N_11  and  C_12
REMARK    8  A    between atoms: C_14  and  C_15
REMARK    9  A    between atoms: C_18  and  C_19
REMARK   10  A    between atoms: S_20  and  C_23
REMARK   11  A    between atoms: C_24  and  C_25
REMARK   12  A    between atoms: N_27  and  C_28
REMARK   13  A    between atoms: C_29  and  C_30
REMARK                            x       y       z     vdW  Elec       q    Type
REMARK                         _______ _______ _______ _____ _____    ______ ____
ROOT
ATOM      1  N   UNL     1      -0.044  11.653  20.319  0.00  0.00    +0.000 N 
ENDROOT
BRANCH   1   5
ATOM      2  C   UNL     1       3.236  14.099  19.138  0.00  0.00    +0.000 A 
ATOM      3  C   UNL     1       2.609  13.266  18.216  0.00  0.00    +0.000 A 
ATOM      4  C   UNL     1       1.551  12.448  18.605  0.00  0.00    +0.000 A 
ATOM      5  C   UNL     1       1.102  12.453  19.932  0.00  0.00    +0.000 A 
ATOM      6  C   UNL     1       1.757  13.251  20.876  0.00  0.00    +0.000 A 
ATOM      7  C   UNL     1       2.817  14.087  20.471  0.00  0.00    +0.000 A 
BRANCH   2   9
ATOM      8  C   UNL     1       5.277  15.256  19.507  0.00  0.00    +0.000 C 
ATOM      9  O   UNL     1       4.254  14.843  18.612  0.00  0.00    +0.000 OA
ENDBRANCH   2   9
ENDBRANCH   1   5
BRANCH   1  10
ATOM     10  S   UNL     1      -1.524  12.543  20.441  0.00  0.00    +0.000 S 
ATOM     11  O   UNL     1      -2.063  12.303  21.764  0.00  0.00    +0.000 OA
ATOM     12  O   UNL     1      -1.260  13.896  20.000  0.00  0.00    +0.000 OA
BRANCH  10  13
ATOM     13  C   UNL     1      -2.767  11.968  19.355  0.00  0.00    +0.000 A 
ATOM     14  C   UNL     1      -2.596  11.011  18.311  0.00  0.00    +0.000 A 
ATOM     15  C   UNL     1      -1.399  10.292  17.809  0.00  0.00    +0.000 C 
ATOM     16  N   UNL     1      -3.758  10.740  17.700  0.00  0.00    +0.000 NA
ATOM     17  N   UNL     1      -4.666  11.480  18.344  0.00  0.00    +0.000 N 
ATOM     18  C   UNL     1      -6.052  11.363  17.942  0.00  0.00    +0.000 C 
ATOM     19  C   UNL     1      -4.130  12.271  19.332  0.00  0.00    +0.000 A 
ATOM     20  C   UNL     1      -4.976  13.169  20.160  0.00  0.00    +0.000 C 
ENDBRANCH  10  13
ENDBRANCH   1  10
BRANCH   1  21
ATOM     21  C   UNL     1       0.225  10.742  21.462  0.00  0.00    +0.000 C 
BRANCH  21  22
ATOM     22  C   UNL     1       1.011   9.454  21.330  0.00  0.00    +0.000 C 
ATOM     23  O   UNL     1       1.749   9.181  22.285  0.00  0.00    +0.000 OA
ATOM     24  N   UNL     1       0.975   8.750  20.133  0.00  0.00    +0.000 N 
ATOM     25  H   UNL     1       0.401   9.128  19.389  0.00  0.00    +0.000 HD
BRANCH  24  26
ATOM     26  C   UNL     1       1.683   7.528  19.863  0.00  0.00    +0.000 A 
ATOM     27  C   UNL     1       1.604   6.423  20.735  0.00  0.00    +0.000 A 
ATOM     28  C   UNL     1       2.245   5.200  20.478  0.00  0.00    +0.000 A 
ATOM     29  C   UNL     1       2.183   4.077  21.470  0.00  0.00    +0.000 C 
ATOM     30  C   UNL     1       2.949   5.046  19.290  0.00  0.00    +0.000 A 
ATOM     31  C   UNL     1       3.067   6.125  18.417  0.00  0.00    +0.000 A 
ATOM     32  C   UNL     1       2.478   7.379  18.705  0.00  0.00    +0.000 A 
ATOM     33  C   UNL     1       2.800   8.505  17.757  0.00  0.00    +0.000 C 
ENDBRANCH  24  26
ENDBRANCH  21  22
ENDBRANCH   1  21
TORSDOF 7
ENDMDL
MODEL 9
REMARK VINA RESULT:      -7.5      3.701      8.983
REMARK  Name = 
REMARK  13 active torsions:
REMARK  status: ('A' for Active; 'I' for Inactive)
REMARK    1  A    between atoms: C_1  and  O_2
REMARK    2  A    between atoms: O_2  and  C_3
REMARK    3  A    between atoms: C_6  and  N_7
REMARK    4  A    between atoms: N_7  and  C_8
REMARK    5  A    between atoms: N_7  and  S_20
REMARK    6  A    between atoms: C_8  and  C_9
REMARK    7  A    between atoms: N_11  and  C_12
REMARK    8  A    between atoms: C_14  and  C_15
REMARK    9  A    between atoms: C_18  and  C_19
REMARK   10  A    between atoms: S_20  and  C_23
REMARK   11  A    between atoms: C_24  and  C_25
REMARK   12  A    between atoms: N_27  and  C_28
REMARK   13  A    between atoms: C_29  and  C_30
REMARK                            x       y       z     vdW  Elec       q    Type
REMARK                         _______ _______ _______ _____ _____    ______ ____
ROOT
ATOM      1  N   UNL     1       3.358   6.558  17.377  0.00  0.00    +0.000 N 
ENDROOT
BRANCH   1   5
ATOM      2  C   UNL     1       1.452   3.723  19.920  0.00  0.00    +0.000 A 
ATOM      3  C   UNL     1       2.358   4.643  20.442  0.00  0.00    +0.000 A 
ATOM      4  C   UNL     1       2.999   5.556  19.609  0.00  0.00    +0.000 A 
ATOM      5  C   UNL     1       2.741   5.561  18.231  0.00  0.00    +0.000 A 
ATOM      6  C   UNL     1       1.870   4.609  17.692  0.00  0.00    +0.000 A 
ATOM      7  C   UNL     1       1.213   3.698  18.544  0.00  0.00    +0.000 A 
BRANCH   2   9
ATOM      8  C   UNL     1       1.748   2.470  21.917  0.00  0.00    +0.000 C 
ATOM      9  O   UNL     1       0.902   2.894  20.856  0.00  0.00    +0.000 OA
ENDBRANCH   2   9
ENDBRANCH   1   5
BRANCH   1  10
ATOM     10  S   UNL     1       4.843   6.049  16.648  0.00  0.00    +0.000 S 
ATOM     11  O   UNL     1       4.688   4.656  16.283  0.00  0.00    +0.000 OA
ATOM     12  O   UNL     1       5.195   7.027  15.640  0.00  0.00    +0.000 OA
BRANCH  10  13
ATOM     13  C   UNL     1       6.195   6.061  17.755  0.00  0.00    +0.000 A 
ATOM     14  C   UNL     1       7.201   7.068  17.845  0.00  0.00    +0.000 A 
ATOM     15  C   UNL     1       7.442   8.304  17.059  0.00  0.00    +0.000 C 
ATOM     16  N   UNL     1       8.063   6.811  18.837  0.00  0.00    +0.000 NA
ATOM     17  N   UNL     1       7.619   5.682  19.397  0.00  0.00    +0.000 N 
ATOM     18  C   UNL     1       8.324   5.166  20.551  0.00  0.00    +0.000 C 
ATOM     19  C   UNL     1       6.514   5.156  18.770  0.00  0.00    +0.000 A 
ATOM     20  C   UNL     1       5.872   3.901  19.238  0.00  0.00    +0.000 C 
ENDBRANCH  10  13
ENDBRANCH   1  10
BRANCH   1  21
ATOM     21  C   UNL     1       3.399   7.915  17.982  0.00  0.00    +0.000 C 
BRANCH  21  22
ATOM     22  C   UNL     1       2.168   8.633  18.495  0.00  0.00    +0.000 C 
ATOM     23  O   UNL     1       1.803   8.316  19.634  0.00  0.00    +0.000 OA
ATOM     24  N   UNL     1       1.459   9.470  17.643  0.00  0.00    +0.000 N 
ATOM     25  H   UNL     1       1.810   9.577  16.698  0.00  0.00    +0.000 HD
BRANCH  24  26
ATOM     26  C   UNL     1       0.268  10.197  17.989  0.00  0.00    +0.000 A 
ATOM     27  C   UNL     1      -1.011   9.733  17.623  0.00  0.00    +0.000 A 
ATOM     28  C   UNL     1      -2.197  10.395  17.985  0.00  0.00    +0.000 A 
ATOM     29  C   UNL     1      -3.530   9.894  17.515  0.00  0.00    +0.000 C 
ATOM     30  C   UNL     1      -2.116  11.530  18.781  0.00  0.00    +0.000 A 
ATOM     31  C   UNL     1      -0.867  12.031  19.141  0.00  0.00    +0.000 A 
ATOM     32  C   UNL     1       0.331  11.404  18.722  0.00  0.00    +0.000 A 
ATOM     33  C   UNL     1       1.614  12.121  19.051  0.00  0.00    +0.000 C 
ENDBRANCH  24  26
ENDBRANCH  21  22
ENDBRANCH   1  21
TORSDOF 7
ENDMDL
