MODEL 1
REMARK VINA RESULT:      -8.4      0.000      0.000
REMARK  Name = 
REMARK  3 active torsions:
REMARK  status: ('A' for Active; 'I' for Inactive)
REMARK    1  A    between atoms: C_1  and  C_2
REMARK    2  A    between atoms: C_6  and  C_7
REMARK    3  A    between atoms: C_8  and  C_9
REMARK                            x       y       z     vdW  Elec       q    Type
REMARK                         _______ _______ _______ _____ _____    ______ ____
ROOT
ATOM      1  C   UNL     1      -0.433   9.649  22.488  0.00  0.00    +0.000 C 
ATOM      2  C   UNL     1       0.396   9.045  21.382  0.00  0.00    +0.000 A 
ATOM      3  C   UNL     1       1.056   7.829  21.625  0.00  0.00    +0.000 A 
ATOM      4  C   UNL     1       1.820   7.276  20.621  0.00  0.00    +0.000 A 
ATOM      5  C   UNL     1       1.951   7.907  19.395  0.00  0.00    +0.000 A 
ATOM      6  C   UNL     1       1.308   9.104  19.088  0.00  0.00    +0.000 A 
ATOM      7  C   UNL     1       1.435   9.747  17.736  0.00  0.00    +0.000 C 
ATOM      8  C   UNL     1       0.511   9.685  20.109  0.00  0.00    +0.000 A 
ATOM      9  C   UNL     1      -0.233  10.984  19.882  0.00  0.00    +0.000 C 
ATOM     10  C   UNL     1       2.831   7.048  18.628  0.00  0.00    +0.000 C 
ATOM     11  O   UNL     1       3.225   7.254  17.493  0.00  0.00    +0.000 OA
ATOM     12  C   UNL     1       3.147   5.853  19.516  0.00  0.00    +0.000 C 
ATOM     13  O   UNL     1       4.565   5.721  19.688  0.00  0.00    +0.000 OA
ATOM     14  C   UNL     1       5.029   4.566  19.130  0.00  0.00    +0.000 C 
ATOM     15  O   UNL     1       6.188   4.206  19.074  0.00  0.00    +0.000 OA
ATOM     16  C   UNL     1       3.872   3.825  18.647  0.00  0.00    +0.000 A 
ATOM     17  C   UNL     1       3.836   2.589  18.026  0.00  0.00    +0.000 A 
ATOM     18  C   UNL     1       2.588   2.094  17.649  0.00  0.00    +0.000 A 
ATOM     19  C   UNL     1       1.421   2.835  17.906  0.00  0.00    +0.000 A 
ATOM     20  C   UNL     1       1.488   4.081  18.537  0.00  0.00    +0.000 A 
ATOM     21  C   UNL     1       2.737   4.564  18.901  0.00  0.00    +0.000 A 
ATOM     22  O   UNL     1       2.474   6.078  20.769  0.00  0.00    +0.000 OA
ENDROOT
TORSDOF 0
ENDMDL
MODEL 2
REMARK VINA RESULT:      -8.1      4.189      5.787
REMARK  Name = 
REMARK  3 active torsions:
REMARK  status: ('A' for Active; 'I' for Inactive)
REMARK    1  A    between atoms: C_1  and  C_2
REMARK    2  A    between atoms: C_6  and  C_7
REMARK    3  A    between atoms: C_8  and  C_9
REMARK                            x       y       z     vdW  Elec       q    Type
REMARK                         _______ _______ _______ _____ _____    ______ ____
ROOT
ATOM      1  C   UNL     1       3.648   3.451  20.529  0.00  0.00    +0.000 C 
ATOM      2  C   UNL     1       3.988   4.214  19.273  0.00  0.00    +0.000 A 
ATOM      3  C   UNL     1       4.990   3.706  18.430  0.00  0.00    +0.000 A 
ATOM      4  C   UNL     1       5.311   4.403  17.286  0.00  0.00    +0.000 A 
ATOM      5  C   UNL     1       4.671   5.590  16.971  0.00  0.00    +0.000 A 
ATOM      6  C   UNL     1       3.657   6.135  17.757  0.00  0.00    +0.000 A 
ATOM      7  C   UNL     1       2.952   7.404  17.372  0.00  0.00    +0.000 C 
ATOM      8  C   UNL     1       3.310   5.426  18.938  0.00  0.00    +0.000 A 
ATOM      9  C   UNL     1       2.223   5.928  19.864  0.00  0.00    +0.000 C 
ATOM     10  C   UNL     1       5.284   6.025  15.731  0.00  0.00    +0.000 C 
ATOM     11  O   UNL     1       5.024   7.048  15.123  0.00  0.00    +0.000 OA
ATOM     12  C   UNL     1       6.294   4.952  15.353  0.00  0.00    +0.000 C 
ATOM     13  O   UNL     1       7.601   5.527  15.208  0.00  0.00    +0.000 OA
ATOM     14  C   UNL     1       8.045   5.439  13.922  0.00  0.00    +0.000 C 
ATOM     15  O   UNL     1       9.089   5.881  13.486  0.00  0.00    +0.000 OA
ATOM     16  C   UNL     1       7.051   4.683  13.173  0.00  0.00    +0.000 A 
ATOM     17  C   UNL     1       7.068   4.319  11.839  0.00  0.00    +0.000 A 
ATOM     18  C   UNL     1       5.980   3.591  11.355  0.00  0.00    +0.000 A 
ATOM     19  C   UNL     1       4.919   3.245  12.210  0.00  0.00    +0.000 A 
ATOM     20  C   UNL     1       4.930   3.626  13.556  0.00  0.00    +0.000 A 
ATOM     21  C   UNL     1       6.016   4.353  14.021  0.00  0.00    +0.000 A 
ATOM     22  O   UNL     1       6.258   3.960  16.395  0.00  0.00    +0.000 OA
ENDROOT
TORSDOF 0
ENDMDL
MODEL 3
REMARK VINA RESULT:      -7.8      2.671      6.859
REMARK  Name = 
REMARK  3 active torsions:
REMARK  status: ('A' for Active; 'I' for Inactive)
REMARK    1  A    between atoms: C_1  and  C_2
REMARK    2  A    between atoms: C_6  and  C_7
REMARK    3  A    between atoms: C_8  and  C_9
REMARK                            x       y       z     vdW  Elec       q    Type
REMARK                         _______ _______ _______ _____ _____    ______ ____
ROOT
ATOM      1  C   UNL     1       4.828   5.857  16.735  0.00  0.00    +0.000 C 
ATOM      2  C   UNL     1       3.828   6.568  17.613  0.00  0.00    +0.000 A 
ATOM      3  C   UNL     1       3.405   7.855  17.242  0.00  0.00    +0.000 A 
ATOM      4  C   UNL     1       2.498   8.512  18.044  0.00  0.00    +0.000 A 
ATOM      5  C   UNL     1       2.016   7.927  19.203  0.00  0.00    +0.000 A 
ATOM      6  C   UNL     1       2.384   6.647  19.614  0.00  0.00    +0.000 A 
ATOM      7  C   UNL     1       1.816   6.019  20.856  0.00  0.00    +0.000 C 
ATOM      8  C   UNL     1       3.314   5.952  18.796  0.00  0.00    +0.000 A 
ATOM      9  C   UNL     1       3.781   4.557  19.148  0.00  0.00    +0.000 C 
ATOM     10  C   UNL     1       1.120   8.914  19.773  0.00  0.00    +0.000 C 
ATOM     11  O   UNL     1       0.503   8.805  20.818  0.00  0.00    +0.000 OA
ATOM     12  C   UNL     1       1.106  10.089  18.806  0.00  0.00    +0.000 C 
ATOM     13  O   UNL     1       1.491  11.295  19.481  0.00  0.00    +0.000 OA
ATOM     14  C   UNL     1       0.465  12.192  19.523  0.00  0.00    +0.000 C 
ATOM     15  O   UNL     1       0.476  13.277  20.069  0.00  0.00    +0.000 OA
ATOM     16  C   UNL     1      -0.636  11.625  18.756  0.00  0.00    +0.000 A 
ATOM     17  C   UNL     1      -1.879  12.173  18.496  0.00  0.00    +0.000 A 
ATOM     18  C   UNL     1      -2.769  11.417  17.731  0.00  0.00    +0.000 A 
ATOM     19  C   UNL     1      -2.395  10.151  17.248  0.00  0.00    +0.000 A 
ATOM     20  C   UNL     1      -1.129   9.624  17.526  0.00  0.00    +0.000 A 
ATOM     21  C   UNL     1      -0.257  10.384  18.291  0.00  0.00    +0.000 A 
ATOM     22  O   UNL     1       2.013   9.760  17.738  0.00  0.00    +0.000 OA
ENDROOT
TORSDOF 0
ENDMDL
MODEL 4
REMARK VINA RESULT:      -7.0      1.697      3.280
REMARK  Name = 
REMARK  3 active torsions:
REMARK  status: ('A' for Active; 'I' for Inactive)
REMARK    1  A    between atoms: C_1  and  C_2
REMARK    2  A    between atoms: C_6  and  C_7
REMARK    3  A    between atoms: C_8  and  C_9
REMARK                            x       y       z     vdW  Elec       q    Type
REMARK                         _______ _______ _______ _____ _____    ______ ____
ROOT
ATOM      1  C   UNL     1       0.615  12.041  18.438  0.00  0.00    +0.000 C 
ATOM      2  C   UNL     1       1.010  10.650  18.870  0.00  0.00    +0.000 A 
ATOM      3  C   UNL     1       1.455   9.745  17.893  0.00  0.00    +0.000 A 
ATOM      4  C   UNL     1       1.810   8.472  18.280  0.00  0.00    +0.000 A 
ATOM      5  C   UNL     1       1.721   8.079  19.605  0.00  0.00    +0.000 A 
ATOM      6  C   UNL     1       1.303   8.935  20.622  0.00  0.00    +0.000 A 
ATOM      7  C   UNL     1       1.253   8.496  22.058  0.00  0.00    +0.000 C 
ATOM      8  C   UNL     1       0.939  10.254  20.241  0.00  0.00    +0.000 A 
ATOM      9  C   UNL     1       0.472  11.266  21.264  0.00  0.00    +0.000 C 
ATOM     10  C   UNL     1       2.152   6.694  19.612  0.00  0.00    +0.000 C 
ATOM     11  O   UNL     1       2.197   5.962  20.584  0.00  0.00    +0.000 OA
ATOM     12  C   UNL     1       2.536   6.358  18.178  0.00  0.00    +0.000 C 
ATOM     13  O   UNL     1       1.779   5.231  17.711  0.00  0.00    +0.000 OA
ATOM     14  C   UNL     1       2.584   4.160  17.461  0.00  0.00    +0.000 C 
ATOM     15  O   UNL     1       2.227   3.055  17.103  0.00  0.00    +0.000 OA
ATOM     16  C   UNL     1       3.959   4.596  17.663  0.00  0.00    +0.000 A 
ATOM     17  C   UNL     1       5.127   3.870  17.509  0.00  0.00    +0.000 A 
ATOM     18  C   UNL     1       6.331   4.524  17.774  0.00  0.00    +0.000 A 
ATOM     19  C   UNL     1       6.337   5.872  18.174  0.00  0.00    +0.000 A 
ATOM     20  C   UNL     1       5.140   6.580  18.318  0.00  0.00    +0.000 A 
ATOM     21  C   UNL     1       3.950   5.917  18.058  0.00  0.00    +0.000 A 
ATOM     22  O   UNL     1       2.282   7.537  17.392  0.00  0.00    +0.000 OA
ENDROOT
TORSDOF 0
ENDMDL
MODEL 5
REMARK VINA RESULT:      -6.8      5.368      9.918
REMARK  Name = 
REMARK  3 active torsions:
REMARK  status: ('A' for Active; 'I' for Inactive)
REMARK    1  A    between atoms: C_1  and  C_2
REMARK    2  A    between atoms: C_6  and  C_7
REMARK    3  A    between atoms: C_8  and  C_9
REMARK                            x       y       z     vdW  Elec       q    Type
REMARK                         _______ _______ _______ _____ _____    ______ ____
ROOT
ATOM      1  C   UNL     1       1.377   8.294  21.176  0.00  0.00    +0.000 C 
ATOM      2  C   UNL     1       0.431   9.467  21.108  0.00  0.00    +0.000 A 
ATOM      3  C   UNL     1      -0.273   9.830  22.268  0.00  0.00    +0.000 A 
ATOM      4  C   UNL     1      -1.143  10.896  22.208  0.00  0.00    +0.000 A 
ATOM      5  C   UNL     1      -1.337  11.594  21.029  0.00  0.00    +0.000 A 
ATOM      6  C   UNL     1      -0.656  11.293  19.851  0.00  0.00    +0.000 A 
ATOM      7  C   UNL     1      -0.855  12.091  18.594  0.00  0.00    +0.000 C 
ATOM      8  C   UNL     1       0.251  10.201  19.895  0.00  0.00    +0.000 A 
ATOM      9  C   UNL     1       1.043   9.788  18.674  0.00  0.00    +0.000 C 
ATOM     10  C   UNL     1      -2.321  12.608  21.354  0.00  0.00    +0.000 C 
ATOM     11  O   UNL     1      -2.792  13.424  20.582  0.00  0.00    +0.000 OA
ATOM     12  C   UNL     1      -2.629  12.447  22.835  0.00  0.00    +0.000 C 
ATOM     13  O   UNL     1      -4.035  12.233  23.031  0.00  0.00    +0.000 OA
ATOM     14  C   UNL     1      -4.604  13.264  23.720  0.00  0.00    +0.000 C 
ATOM     15  O   UNL     1      -5.781  13.388  23.992  0.00  0.00    +0.000 OA
ATOM     16  C   UNL     1      -3.532  14.171  24.103  0.00  0.00    +0.000 A 
ATOM     17  C   UNL     1      -3.613  15.346  24.830  0.00  0.00    +0.000 A 
ATOM     18  C   UNL     1      -2.426  16.044  25.061  0.00  0.00    +0.000 A 
ATOM     19  C   UNL     1      -1.204  15.552  24.570  0.00  0.00    +0.000 A 
ATOM     20  C   UNL     1      -1.153  14.361  23.840  0.00  0.00    +0.000 A 
ATOM     21  C   UNL     1      -2.340  13.680  23.613  0.00  0.00    +0.000 A 
ATOM     22  O   UNL     1      -1.848  11.333  23.304  0.00  0.00    +0.000 OA
ENDROOT
TORSDOF 0
ENDMDL
MODEL 6
REMARK VINA RESULT:      -6.5      3.158      5.226
REMARK  Name = 
REMARK  3 active torsions:
REMARK  status: ('A' for Active; 'I' for Inactive)
REMARK    1  A    between atoms: C_1  and  C_2
REMARK    2  A    between atoms: C_6  and  C_7
REMARK    3  A    between atoms: C_8  and  C_9
REMARK                            x       y       z     vdW  Elec       q    Type
REMARK                         _______ _______ _______ _____ _____    ______ ____
ROOT
ATOM      1  C   UNL     1       2.893   1.672  21.587  0.00  0.00    +0.000 C 
ATOM      2  C   UNL     1       3.146   2.744  20.556  0.00  0.00    +0.000 A 
ATOM      3  C   UNL     1       4.444   2.883  20.038  0.00  0.00    +0.000 A 
ATOM      4  C   UNL     1       4.683   3.865  19.102  0.00  0.00    +0.000 A 
ATOM      5  C   UNL     1       3.671   4.712  18.682  0.00  0.00    +0.000 A 
ATOM      6  C   UNL     1       2.360   4.612  19.145  0.00  0.00    +0.000 A 
ATOM      7  C   UNL     1       1.272   5.518  18.644  0.00  0.00    +0.000 C 
ATOM      8  C   UNL     1       2.095   3.601  20.107  0.00  0.00    +0.000 A 
ATOM      9  C   UNL     1       0.707   3.404  20.676  0.00  0.00    +0.000 C 
ATOM     10  C   UNL     1       4.303   5.604  17.730  0.00  0.00    +0.000 C 
ATOM     11  O   UNL     1       3.764   6.523  17.141  0.00  0.00    +0.000 OA
ATOM     12  C   UNL     1       5.752   5.153  17.617  0.00  0.00    +0.000 C 
ATOM     13  O   UNL     1       6.638   6.238  17.929  0.00  0.00    +0.000 OA
ATOM     14  C   UNL     1       7.378   6.605  16.845  0.00  0.00    +0.000 C 
ATOM     15  O   UNL     1       8.174   7.521  16.790  0.00  0.00    +0.000 OA
ATOM     16  C   UNL     1       7.066   5.670  15.773  0.00  0.00    +0.000 A 
ATOM     17  C   UNL     1       7.582   5.624  14.490  0.00  0.00    +0.000 A 
ATOM     18  C   UNL     1       7.110   4.622  13.641  0.00  0.00    +0.000 A 
ATOM     19  C   UNL     1       6.150   3.699  14.094  0.00  0.00    +0.000 A 
ATOM     20  C   UNL     1       5.649   3.769  15.398  0.00  0.00    +0.000 A 
ATOM     21  C   UNL     1       6.123   4.774  16.229  0.00  0.00    +0.000 A 
ATOM     22  O   UNL     1       5.917   4.049  18.527  0.00  0.00    +0.000 OA
ENDROOT
TORSDOF 0
ENDMDL
MODEL 7
REMARK VINA RESULT:      -6.2      9.222     11.772
REMARK  Name = 
REMARK  3 active torsions:
REMARK  status: ('A' for Active; 'I' for Inactive)
REMARK    1  A    between atoms: C_1  and  C_2
REMARK    2  A    between atoms: C_6  and  C_7
REMARK    3  A    between atoms: C_8  and  C_9
REMARK                            x       y       z     vdW  Elec       q    Type
REMARK                         _______ _______ _______ _____ _____    ______ ____
ROOT
ATOM      1  C   UNL     1      12.289  13.373  17.268  0.00  0.00    +0.000 C 
ATOM      2  C   UNL     1      11.057  13.639  18.097  0.00  0.00    +0.000 A 
ATOM      3  C   UNL     1      10.244  14.734  17.760  0.00  0.00    +0.000 A 
ATOM      4  C   UNL     1       9.122  14.986  18.518  0.00  0.00    +0.000 A 
ATOM      5  C   UNL     1       8.801  14.188  19.603  0.00  0.00    +0.000 A 
ATOM      6  C   UNL     1       9.557  13.078  19.977  0.00  0.00    +0.000 A 
ATOM      7  C   UNL     1       9.164  12.205  21.134  0.00  0.00    +0.000 C 
ATOM      8  C   UNL     1      10.714  12.800  19.202  0.00  0.00    +0.000 A 
ATOM      9  C   UNL     1      11.606  11.620  19.519  0.00  0.00    +0.000 C 
ATOM     10  C   UNL     1       7.591  14.771  20.148  0.00  0.00    +0.000 C 
ATOM     11  O   UNL     1       6.988  14.383  21.133  0.00  0.00    +0.000 OA
ATOM     12  C   UNL     1       7.235  15.943  19.244  0.00  0.00    +0.000 C 
ATOM     13  O   UNL     1       7.147  17.154  20.010  0.00  0.00    +0.000 OA
ATOM     14  C   UNL     1       5.876  17.649  20.014  0.00  0.00    +0.000 C 
ATOM     15  O   UNL     1       5.486  18.630  20.614  0.00  0.00    +0.000 OA
ATOM     16  C   UNL     1       5.081  16.805  19.133  0.00  0.00    +0.000 A 
ATOM     17  C   UNL     1       3.743  16.922  18.801  0.00  0.00    +0.000 A 
ATOM     18  C   UNL     1       3.209  15.972  17.930  0.00  0.00    +0.000 A 
ATOM     19  C   UNL     1       4.020  14.945  17.414  0.00  0.00    +0.000 A 
ATOM     20  C   UNL     1       5.370  14.854  17.766  0.00  0.00    +0.000 A 
ATOM     21  C   UNL     1       5.886  15.802  18.637  0.00  0.00    +0.000 A 
ATOM     22  O   UNL     1       8.261  16.019  18.238  0.00  0.00    +0.000 OA
ENDROOT
TORSDOF 0
ENDMDL
MODEL 8
REMARK VINA RESULT:      -6.2      3.243      6.316
REMARK  Name = 
REMARK  3 active torsions:
REMARK  status: ('A' for Active; 'I' for Inactive)
REMARK    1  A    between atoms: C_1  and  C_2
REMARK    2  A    between atoms: C_6  and  C_7
REMARK    3  A    between atoms: C_8  and  C_9
REMARK                            x       y       z     vdW  Elec       q    Type
REMARK                         _______ _______ _______ _____ _____    ______ ____
ROOT
ATOM      1  C   UNL     1       6.100   3.680  12.942  0.00  0.00    +0.000 C 
ATOM      2  C   UNL     1       5.857   4.163  14.350  0.00  0.00    +0.000 A 
ATOM      3  C   UNL     1       4.691   3.745  15.012  0.00  0.00    +0.000 A 
ATOM      4  C   UNL     1       4.461   4.189  16.295  0.00  0.00    +0.000 A 
ATOM      5  C   UNL     1       5.351   5.044  16.924  0.00  0.00    +0.000 A 
ATOM      6  C   UNL     1       6.532   5.479  16.327  0.00  0.00    +0.000 A 
ATOM      7  C   UNL     1       7.501   6.375  17.047  0.00  0.00    +0.000 C 
ATOM      8  C   UNL     1       6.789   5.026  15.006  0.00  0.00    +0.000 A 
ATOM      9  C   UNL     1       8.042   5.437  14.264  0.00  0.00    +0.000 C 
ATOM     10  C   UNL     1       4.765   5.298  18.226  0.00  0.00    +0.000 C 
ATOM     11  O   UNL     1       5.222   6.027  19.088  0.00  0.00    +0.000 OA
ATOM     12  C   UNL     1       3.487   4.474  18.289  0.00  0.00    +0.000 C 
ATOM     13  O   UNL     1       2.361   5.320  18.561  0.00  0.00    +0.000 OA
ATOM     14  C   UNL     1       1.801   5.032  19.771  0.00  0.00    +0.000 C 
ATOM     15  O   UNL     1       0.869   5.611  20.292  0.00  0.00    +0.000 OA
ATOM     16  C   UNL     1       2.504   3.874  20.306  0.00  0.00    +0.000 A 
ATOM     17  C   UNL     1       2.282   3.203  21.496  0.00  0.00    +0.000 A 
ATOM     18  C   UNL     1       3.105   2.115  21.785  0.00  0.00    +0.000 A 
ATOM     19  C   UNL     1       4.114   1.726  20.886  0.00  0.00    +0.000 A 
ATOM     20  C   UNL     1       4.313   2.423  19.690  0.00  0.00    +0.000 A 
ATOM     21  C   UNL     1       3.491   3.506  19.417  0.00  0.00    +0.000 A 
ATOM     22  O   UNL     1       3.360   3.805  17.021  0.00  0.00    +0.000 OA
ENDROOT
TORSDOF 0
ENDMDL
MODEL 9
REMARK VINA RESULT:      -6.2      5.466      9.824
REMARK  Name = 
REMARK  3 active torsions:
REMARK  status: ('A' for Active; 'I' for Inactive)
REMARK    1  A    between atoms: C_1  and  C_2
REMARK    2  A    between atoms: C_6  and  C_7
REMARK    3  A    between atoms: C_8  and  C_9
REMARK                            x       y       z     vdW  Elec       q    Type
REMARK                         _______ _______ _______ _____ _____    ______ ____
ROOT
ATOM      1  C   UNL     1       1.099   9.535  18.200  0.00  0.00    +0.000 C 
ATOM      2  C   UNL     1       0.294  10.156  19.314  0.00  0.00    +0.000 A 
ATOM      3  C   UNL     1      -0.496  11.281  19.025  0.00  0.00    +0.000 A 
ATOM      4  C   UNL     1      -1.228  11.857  20.041  0.00  0.00    +0.000 A 
ATOM      5  C   UNL     1      -1.181  11.351  21.329  0.00  0.00    +0.000 A 
ATOM      6  C   UNL     1      -0.431  10.228  21.674  0.00  0.00    +0.000 A 
ATOM      7  C   UNL     1      -0.428   9.675  23.071  0.00  0.00    +0.000 C 
ATOM      8  C   UNL     1       0.325   9.618  20.638  0.00  0.00    +0.000 A 
ATOM      9  C   UNL     1       1.174   8.393  20.902  0.00  0.00    +0.000 C 
ATOM     10  C   UNL     1      -2.047  12.219  22.101  0.00  0.00    +0.000 C 
ATOM     11  O   UNL     1      -2.266  12.136  23.297  0.00  0.00    +0.000 OA
ATOM     12  C   UNL     1      -2.622  13.232  21.122  0.00  0.00    +0.000 C 
ATOM     13  O   UNL     1      -2.320  14.568  21.552  0.00  0.00    +0.000 OA
ATOM     14  C   UNL     1      -3.452  15.255  21.876  0.00  0.00    +0.000 C 
ATOM     15  O   UNL     1      -3.510  16.385  22.317  0.00  0.00    +0.000 OA
ATOM     16  C   UNL     1      -4.584  14.396  21.559  0.00  0.00    +0.000 A 
ATOM     17  C   UNL     1      -5.935  14.662  21.695  0.00  0.00    +0.000 A 
ATOM     18  C   UNL     1      -6.830  13.659  21.321  0.00  0.00    +0.000 A 
ATOM     19  C   UNL     1      -6.358  12.433  20.822  0.00  0.00    +0.000 A 
ATOM     20  C   UNL     1      -4.986  12.193  20.694  0.00  0.00    +0.000 A 
ATOM     21  C   UNL     1      -4.107  13.197  21.074  0.00  0.00    +0.000 A 
ATOM     22  O   UNL     1      -2.046  12.941  19.835  0.00  0.00    +0.000 OA
ENDROOT
TORSDOF 0
ENDMDL
