MODEL 1
REMARK VINA RESULT:      -8.6      0.000      0.000
REMARK  Name = 
REMARK  7 active torsions:
REMARK  status: ('A' for Active; 'I' for Inactive)
REMARK    1  A    between atoms: C_2  and  O_3
REMARK    2  A    between atoms: C_2  and  C_4
REMARK    3  A    between atoms: C_8  and  N_9
REMARK    4  A    between atoms: C_15  and  N_16
REMARK    5  A    between atoms: N_16  and  C_17
REMARK    6  A    between atoms: C_22  and  C_23
REMARK    7  A    between atoms: C_23  and  O_25
REMARK                            x       y       z     vdW  Elec       q    Type
REMARK                         _______ _______ _______ _____ _____    ______ ____
ROOT
ATOM      1  N   UNL     1       1.874   5.941  20.760  0.00  0.00    +0.000 N 
ATOM      2  C   UNL     1       2.654   4.786  20.647  0.00  0.00    +0.000 A 
ATOM      3  N   UNL     1       2.216   3.700  21.296  0.00  0.00    +0.000 NA
ATOM      4  C   UNL     1       2.934   2.567  21.127  0.00  0.00    +0.000 A 
ATOM      5  C   UNL     1       4.058   2.486  20.342  0.00  0.00    +0.000 A 
ATOM      6  F   UNL     1       4.740   1.339  20.228  0.00  0.00    +0.000 F 
ATOM      7  C   UNL     1       4.459   3.648  19.716  0.00  0.00    +0.000 A 
ATOM      8  N   UNL     1       3.758   4.786  19.880  0.00  0.00    +0.000 NA
ATOM      9  H   UNL     1       1.037   5.731  21.285  0.00  0.00    +0.000 HD
ENDROOT
BRANCH   1  14
ATOM     10  C   UNL     1       1.427   9.478  19.640  0.00  0.00    +0.000 A 
ATOM     11  C   UNL     1       1.971   9.422  18.358  0.00  0.00    +0.000 A 
ATOM     12  C   UNL     1       2.438   8.205  17.864  0.00  0.00    +0.000 A 
ATOM     13  C   UNL     1       2.387   7.052  18.659  0.00  0.00    +0.000 A 
ATOM     14  C   UNL     1       1.855   7.092  19.955  0.00  0.00    +0.000 A 
ATOM     15  C   UNL     1       1.325   8.308  20.399  0.00  0.00    +0.000 A 
BRANCH  10  17
ATOM     16  O   UNL     1       0.890  11.007  21.380  0.00  0.00    +0.000 OA
ATOM     17  C   UNL     1       0.952  10.772  20.185  0.00  0.00    +0.000 C 
BRANCH  17  18
ATOM     18  O   UNL     1       0.536  11.645  19.237  0.00  0.00    +0.000 OA
ATOM     19  H   UNL     1       0.335  11.241  18.368  0.00  0.00    +0.000 HD
ENDBRANCH  17  18
ENDBRANCH  10  17
ENDBRANCH   1  14
BRANCH   7  20
ATOM     20  N   UNL     1       5.624   3.671  18.926  0.00  0.00    +0.000 N 
ATOM     21  H   UNL     1       6.204   2.832  19.030  0.00  0.00    +0.000 HD
BRANCH  20  22
ATOM     22  C   UNL     1       5.896   4.431  17.764  0.00  0.00    +0.000 A 
ATOM     23  C   UNL     1       5.276   4.094  16.547  0.00  0.00    +0.000 A 
ATOM     24  C   UNL     1       5.436   4.881  15.403  0.00  0.00    +0.000 A 
ATOM     25  C   UNL     1       6.219   6.029  15.450  0.00  0.00    +0.000 A 
ATOM     26  C   UNL     1       6.873   6.371  16.631  0.00  0.00    +0.000 A 
ATOM     27  C   UNL     1       6.747   5.562  17.775  0.00  0.00    +0.000 A 
BRANCH  27  28
ATOM     28  C   UNL     1       7.501   5.909  19.007  0.00  0.00    +0.000 C 
ATOM     29  O   UNL     1       7.407   5.261  20.037  0.00  0.00    +0.000 OA
BRANCH  28  30
ATOM     30  O   UNL     1       8.349   6.954  18.877  0.00  0.00    +0.000 OA
ATOM     31  H   UNL     1       9.158   6.919  19.422  0.00  0.00    +0.000 HD
ENDBRANCH  28  30
ENDBRANCH  27  28
ENDBRANCH  20  22
ENDBRANCH   7  20
TORSDOF 7
ENDMDL
MODEL 2
REMARK VINA RESULT:      -8.6      1.748      5.893
REMARK  Name = 
REMARK  7 active torsions:
REMARK  status: ('A' for Active; 'I' for Inactive)
REMARK    1  A    between atoms: C_2  and  O_3
REMARK    2  A    between atoms: C_2  and  C_4
REMARK    3  A    between atoms: C_8  and  N_9
REMARK    4  A    between atoms: C_15  and  N_16
REMARK    5  A    between atoms: N_16  and  C_17
REMARK    6  A    between atoms: C_22  and  C_23
REMARK    7  A    between atoms: C_23  and  O_25
REMARK                            x       y       z     vdW  Elec       q    Type
REMARK                         _______ _______ _______ _____ _____    ______ ____
ROOT
ATOM      1  N   UNL     1       4.404   3.086  17.364  0.00  0.00    +0.000 N 
ATOM      2  C   UNL     1       3.557   3.317  18.452  0.00  0.00    +0.000 A 
ATOM      3  N   UNL     1       3.046   2.235  19.055  0.00  0.00    +0.000 NA
ATOM      4  C   UNL     1       2.285   2.460  20.151  0.00  0.00    +0.000 A 
ATOM      5  C   UNL     1       2.024   3.710  20.655  0.00  0.00    +0.000 A 
ATOM      6  F   UNL     1       1.247   3.871  21.733  0.00  0.00    +0.000 F 
ATOM      7  C   UNL     1       2.572   4.778  19.974  0.00  0.00    +0.000 A 
ATOM      8  N   UNL     1       3.326   4.570  18.878  0.00  0.00    +0.000 NA
ATOM      9  H   UNL     1       4.544   2.091  17.252  0.00  0.00    +0.000 HD
ENDROOT
BRANCH   1  14
ATOM     10  C   UNL     1       6.946   5.782  16.882  0.00  0.00    +0.000 A 
ATOM     11  C   UNL     1       7.346   5.539  15.569  0.00  0.00    +0.000 A 
ATOM     12  C   UNL     1       6.738   4.514  14.845  0.00  0.00    +0.000 A 
ATOM     13  C   UNL     1       5.752   3.716  15.441  0.00  0.00    +0.000 A 
ATOM     14  C   UNL     1       5.346   3.938  16.764  0.00  0.00    +0.000 A 
ATOM     15  C   UNL     1       5.918   5.019  17.443  0.00  0.00    +0.000 A 
BRANCH  10  17
ATOM     16  O   UNL     1       8.082   6.664  18.776  0.00  0.00    +0.000 OA
ATOM     17  C   UNL     1       7.605   6.851  17.669  0.00  0.00    +0.000 C 
BRANCH  17  18
ATOM     18  O   UNL     1       7.574   8.066  17.073  0.00  0.00    +0.000 OA
ATOM     19  H   UNL     1       7.549   8.043  16.094  0.00  0.00    +0.000 HD
ENDBRANCH  17  18
ENDBRANCH  10  17
ENDBRANCH   1  14
BRANCH   7  20
ATOM     20  N   UNL     1       2.322   6.098  20.392  0.00  0.00    +0.000 N 
ATOM     21  H   UNL     1       2.570   6.270  21.371  0.00  0.00    +0.000 HD
BRANCH  20  22
ATOM     22  C   UNL     1       2.186   7.269  19.608  0.00  0.00    +0.000 A 
ATOM     23  C   UNL     1       2.768   7.326  18.329  0.00  0.00    +0.000 A 
ATOM     24  C   UNL     1       2.569   8.421  17.484  0.00  0.00    +0.000 A 
ATOM     25  C   UNL     1       1.777   9.486  17.897  0.00  0.00    +0.000 A 
ATOM     26  C   UNL     1       1.214   9.475  19.171  0.00  0.00    +0.000 A 
ATOM     27  C   UNL     1       1.443   8.393  20.041  0.00  0.00    +0.000 A 
BRANCH  27  28
ATOM     28  C   UNL     1       0.885   8.427  21.418  0.00  0.00    +0.000 C 
ATOM     29  O   UNL     1      -0.302   8.258  21.647  0.00  0.00    +0.000 OA
BRANCH  28  30
ATOM     30  O   UNL     1       1.802   8.591  22.397  0.00  0.00    +0.000 OA
ATOM     31  H   UNL     1       2.717   8.760  22.102  0.00  0.00    +0.000 HD
ENDBRANCH  28  30
ENDBRANCH  27  28
ENDBRANCH  20  22
ENDBRANCH   7  20
TORSDOF 7
ENDMDL
MODEL 3
REMARK VINA RESULT:      -8.5      1.496      2.183
REMARK  Name = 
REMARK  7 active torsions:
REMARK  status: ('A' for Active; 'I' for Inactive)
REMARK    1  A    between atoms: C_2  and  O_3
REMARK    2  A    between atoms: C_2  and  C_4
REMARK    3  A    between atoms: C_8  and  N_9
REMARK    4  A    between atoms: C_15  and  N_16
REMARK    5  A    between atoms: N_16  and  C_17
REMARK    6  A    between atoms: C_22  and  C_23
REMARK    7  A    between atoms: C_23  and  O_25
REMARK                            x       y       z     vdW  Elec       q    Type
REMARK                         _______ _______ _______ _____ _____    ______ ____
ROOT
ATOM      1  N   UNL     1       1.834   5.872  20.817  0.00  0.00    +0.000 N 
ATOM      2  C   UNL     1       2.652   4.748  20.665  0.00  0.00    +0.000 A 
ATOM      3  N   UNL     1       2.265   3.634  21.299  0.00  0.00    +0.000 NA
ATOM      4  C   UNL     1       3.020   2.531  21.093  0.00  0.00    +0.000 A 
ATOM      5  C   UNL     1       4.129   2.505  20.284  0.00  0.00    +0.000 A 
ATOM      6  F   UNL     1       4.848   1.386  20.134  0.00  0.00    +0.000 F 
ATOM      7  C   UNL     1       4.476   3.694  19.674  0.00  0.00    +0.000 A 
ATOM      8  N   UNL     1       3.739   4.802  19.876  0.00  0.00    +0.000 NA
ATOM      9  H   UNL     1       1.016   5.622  21.354  0.00  0.00    +0.000 HD
ENDROOT
BRANCH   1  14
ATOM     10  C   UNL     1       1.249   9.414  19.782  0.00  0.00    +0.000 A 
ATOM     11  C   UNL     1       1.760   9.401  18.485  0.00  0.00    +0.000 A 
ATOM     12  C   UNL     1       2.252   8.210  17.954  0.00  0.00    +0.000 A 
ATOM     13  C   UNL     1       2.258   7.040  18.726  0.00  0.00    +0.000 A 
ATOM     14  C   UNL     1       1.759   7.037  20.037  0.00  0.00    +0.000 A 
ATOM     15  C   UNL     1       1.203   8.227  20.518  0.00  0.00    +0.000 A 
BRANCH  10  17
ATOM     16  O   UNL     1       0.116  11.504  19.724  0.00  0.00    +0.000 OA
ATOM     17  C   UNL     1       0.748  10.682  20.365  0.00  0.00    +0.000 C 
BRANCH  17  18
ATOM     18  O   UNL     1       1.111  10.870  21.656  0.00  0.00    +0.000 OA
ATOM     19  H   UNL     1       1.550  10.101  22.075  0.00  0.00    +0.000 HD
ENDBRANCH  17  18
ENDBRANCH  10  17
ENDBRANCH   1  14
BRANCH   7  20
ATOM     20  N   UNL     1       5.624   3.773  18.863  0.00  0.00    +0.000 N 
ATOM     21  H   UNL     1       5.814   2.913  18.340  0.00  0.00    +0.000 HD
BRANCH  20  22
ATOM     22  C   UNL     1       6.279   4.922  18.360  0.00  0.00    +0.000 A 
ATOM     23  C   UNL     1       7.193   5.618  19.171  0.00  0.00    +0.000 A 
ATOM     24  C   UNL     1       7.938   6.693  18.677  0.00  0.00    +0.000 A 
ATOM     25  C   UNL     1       7.787   7.097  17.355  0.00  0.00    +0.000 A 
ATOM     26  C   UNL     1       6.866   6.450  16.536  0.00  0.00    +0.000 A 
ATOM     27  C   UNL     1       6.085   5.392  17.038  0.00  0.00    +0.000 A 
BRANCH  27  28
ATOM     28  C   UNL     1       5.064   4.755  16.167  0.00  0.00    +0.000 C 
ATOM     29  O   UNL     1       5.324   4.339  15.049  0.00  0.00    +0.000 OA
BRANCH  28  30
ATOM     30  O   UNL     1       3.846   4.610  16.735  0.00  0.00    +0.000 OA
ATOM     31  H   UNL     1       3.123   4.347  16.134  0.00  0.00    +0.000 HD
ENDBRANCH  28  30
ENDBRANCH  27  28
ENDBRANCH  20  22
ENDBRANCH   7  20
TORSDOF 7
ENDMDL
MODEL 4
REMARK VINA RESULT:      -8.4      4.369      8.100
REMARK  Name = 
REMARK  7 active torsions:
REMARK  status: ('A' for Active; 'I' for Inactive)
REMARK    1  A    between atoms: C_2  and  O_3
REMARK    2  A    between atoms: C_2  and  C_4
REMARK    3  A    between atoms: C_8  and  N_9
REMARK    4  A    between atoms: C_15  and  N_16
REMARK    5  A    between atoms: N_16  and  C_17
REMARK    6  A    between atoms: C_22  and  C_23
REMARK    7  A    between atoms: C_23  and  O_25
REMARK                            x       y       z     vdW  Elec       q    Type
REMARK                         _______ _______ _______ _____ _____    ______ ____
ROOT
ATOM      1  N   UNL     1       7.108   4.983  14.305  0.00  0.00    +0.000 N 
ATOM      2  C   UNL     1       6.908   5.106  15.683  0.00  0.00    +0.000 A 
ATOM      3  N   UNL     1       7.488   6.154  16.282  0.00  0.00    +0.000 NA
ATOM      4  C   UNL     1       7.234   6.309  17.602  0.00  0.00    +0.000 A 
ATOM      5  C   UNL     1       6.431   5.465  18.329  0.00  0.00    +0.000 A 
ATOM      6  F   UNL     1       6.232   5.659  19.639  0.00  0.00    +0.000 F 
ATOM      7  C   UNL     1       5.879   4.399  17.648  0.00  0.00    +0.000 A 
ATOM      8  N   UNL     1       6.129   4.227  16.337  0.00  0.00    +0.000 NA
ATOM      9  H   UNL     1       7.629   5.781  13.968  0.00  0.00    +0.000 HD
ENDROOT
BRANCH   1  14
ATOM     10  C   UNL     1       6.228   2.448  11.704  0.00  0.00    +0.000 A 
ATOM     11  C   UNL     1       4.860   2.673  11.565  0.00  0.00    +0.000 A 
ATOM     12  C   UNL     1       4.254   3.690  12.301  0.00  0.00    +0.000 A 
ATOM     13  C   UNL     1       5.009   4.463  13.194  0.00  0.00    +0.000 A 
ATOM     14  C   UNL     1       6.384   4.243  13.356  0.00  0.00    +0.000 A 
ATOM     15  C   UNL     1       6.981   3.267  12.551  0.00  0.00    +0.000 A 
BRANCH  10  17
ATOM     16  O   UNL     1       7.661   1.548  10.033  0.00  0.00    +0.000 OA
ATOM     17  C   UNL     1       6.877   1.351  10.946  0.00  0.00    +0.000 C 
BRANCH  17  18
ATOM     18  O   UNL     1       6.472   0.115  11.320  0.00  0.00    +0.000 OA
ATOM     19  H   UNL     1       6.099   0.061  12.225  0.00  0.00    +0.000 HD
ENDBRANCH  17  18
ENDBRANCH  10  17
ENDBRANCH   1  14
BRANCH   7  20
ATOM     20  N   UNL     1       5.079   3.457  18.321  0.00  0.00    +0.000 N 
ATOM     21  H   UNL     1       5.596   2.896  19.005  0.00  0.00    +0.000 HD
BRANCH  20  22
ATOM     22  C   UNL     1       3.675   3.449  18.499  0.00  0.00    +0.000 A 
ATOM     23  C   UNL     1       2.845   4.059  17.541  0.00  0.00    +0.000 A 
ATOM     24  C   UNL     1       1.452   3.982  17.625  0.00  0.00    +0.000 A 
ATOM     25  C   UNL     1       0.854   3.288  18.671  0.00  0.00    +0.000 A 
ATOM     26  C   UNL     1       1.647   2.701  19.653  0.00  0.00    +0.000 A 
ATOM     27  C   UNL     1       3.049   2.808  19.595  0.00  0.00    +0.000 A 
BRANCH  27  28
ATOM     28  C   UNL     1       3.876   2.228  20.684  0.00  0.00    +0.000 C 
ATOM     29  O   UNL     1       5.010   1.817  20.498  0.00  0.00    +0.000 OA
BRANCH  28  30
ATOM     30  O   UNL     1       3.301   2.254  21.907  0.00  0.00    +0.000 OA
ATOM     31  H   UNL     1       3.741   2.815  22.575  0.00  0.00    +0.000 HD
ENDBRANCH  28  30
ENDBRANCH  27  28
ENDBRANCH  20  22
ENDBRANCH   7  20
TORSDOF 7
ENDMDL
MODEL 5
REMARK VINA RESULT:      -8.3      2.409      6.480
REMARK  Name = 
REMARK  7 active torsions:
REMARK  status: ('A' for Active; 'I' for Inactive)
REMARK    1  A    between atoms: C_2  and  O_3
REMARK    2  A    between atoms: C_2  and  C_4
REMARK    3  A    between atoms: C_8  and  N_9
REMARK    4  A    between atoms: C_15  and  N_16
REMARK    5  A    between atoms: N_16  and  C_17
REMARK    6  A    between atoms: C_22  and  C_23
REMARK    7  A    between atoms: C_23  and  O_25
REMARK                            x       y       z     vdW  Elec       q    Type
REMARK                         _______ _______ _______ _____ _____    ______ ____
ROOT
ATOM      1  N   UNL     1       4.599   3.072  17.593  0.00  0.00    +0.000 N 
ATOM      2  C   UNL     1       3.700   3.308  18.638  0.00  0.00    +0.000 A 
ATOM      3  N   UNL     1       3.185   2.230  19.241  0.00  0.00    +0.000 NA
ATOM      4  C   UNL     1       2.372   2.461  20.298  0.00  0.00    +0.000 A 
ATOM      5  C   UNL     1       2.065   3.716  20.763  0.00  0.00    +0.000 A 
ATOM      6  F   UNL     1       1.237   3.883  21.803  0.00  0.00    +0.000 F 
ATOM      7  C   UNL     1       2.620   4.780  20.083  0.00  0.00    +0.000 A 
ATOM      8  N   UNL     1       3.426   4.565  19.025  0.00  0.00    +0.000 NA
ATOM      9  H   UNL     1       4.763   2.079  17.509  0.00  0.00    +0.000 HD
ENDROOT
BRANCH   1  14
ATOM     10  C   UNL     1       6.762   4.787  15.075  0.00  0.00    +0.000 A 
ATOM     11  C   UNL     1       7.354   5.774  15.861  0.00  0.00    +0.000 A 
ATOM     12  C   UNL     1       7.064   5.832  17.223  0.00  0.00    +0.000 A 
ATOM     13  C   UNL     1       6.163   4.923  17.794  0.00  0.00    +0.000 A 
ATOM     14  C   UNL     1       5.548   3.931  17.016  0.00  0.00    +0.000 A 
ATOM     15  C   UNL     1       5.914   3.848  15.668  0.00  0.00    +0.000 A 
BRANCH  10  17
ATOM     16  O   UNL     1       6.545   3.905  12.877  0.00  0.00    +0.000 OA
ATOM     17  C   UNL     1       7.044   4.734  13.620  0.00  0.00    +0.000 C 
BRANCH  17  18
ATOM     18  O   UNL     1       7.950   5.649  13.205  0.00  0.00    +0.000 OA
ATOM     19  H   UNL     1       7.636   6.244  12.493  0.00  0.00    +0.000 HD
ENDBRANCH  17  18
ENDBRANCH  10  17
ENDBRANCH   1  14
BRANCH   7  20
ATOM     20  N   UNL     1       2.326   6.103  20.461  0.00  0.00    +0.000 N 
ATOM     21  H   UNL     1       2.529   6.301  21.446  0.00  0.00    +0.000 HD
BRANCH  20  22
ATOM     22  C   UNL     1       2.200   7.254  19.647  0.00  0.00    +0.000 A 
ATOM     23  C   UNL     1       2.781   7.273  18.367  0.00  0.00    +0.000 A 
ATOM     24  C   UNL     1       2.591   8.346  17.492  0.00  0.00    +0.000 A 
ATOM     25  C   UNL     1       1.807   9.428  17.877  0.00  0.00    +0.000 A 
ATOM     26  C   UNL     1       1.244   9.455  19.151  0.00  0.00    +0.000 A 
ATOM     27  C   UNL     1       1.465   8.395  20.050  0.00  0.00    +0.000 A 
BRANCH  27  28
ATOM     28  C   UNL     1       0.907   8.470  21.424  0.00  0.00    +0.000 C 
ATOM     29  O   UNL     1      -0.271   8.261  21.665  0.00  0.00    +0.000 OA
BRANCH  28  30
ATOM     30  O   UNL     1       1.817   8.719  22.392  0.00  0.00    +0.000 OA
ATOM     31  H   UNL     1       2.570   9.285  22.136  0.00  0.00    +0.000 HD
ENDBRANCH  28  30
ENDBRANCH  27  28
ENDBRANCH  20  22
ENDBRANCH   7  20
TORSDOF 7
ENDMDL
MODEL 6
REMARK VINA RESULT:      -8.3      4.419      8.063
REMARK  Name = 
REMARK  7 active torsions:
REMARK  status: ('A' for Active; 'I' for Inactive)
REMARK    1  A    between atoms: C_2  and  O_3
REMARK    2  A    between atoms: C_2  and  C_4
REMARK    3  A    between atoms: C_8  and  N_9
REMARK    4  A    between atoms: C_15  and  N_16
REMARK    5  A    between atoms: N_16  and  C_17
REMARK    6  A    between atoms: C_22  and  C_23
REMARK    7  A    between atoms: C_23  and  O_25
REMARK                            x       y       z     vdW  Elec       q    Type
REMARK                         _______ _______ _______ _____ _____    ______ ____
ROOT
ATOM      1  N   UNL     1       7.168   5.183  14.441  0.00  0.00    +0.000 N 
ATOM      2  C   UNL     1       7.012   5.258  15.828  0.00  0.00    +0.000 A 
ATOM      3  N   UNL     1       7.549   6.324  16.436  0.00  0.00    +0.000 NA
ATOM      4  C   UNL     1       7.335   6.430  17.767  0.00  0.00    +0.000 A 
ATOM      5  C   UNL     1       6.613   5.519  18.498  0.00  0.00    +0.000 A 
ATOM      6  F   UNL     1       6.451   5.667  19.819  0.00  0.00    +0.000 F 
ATOM      7  C   UNL     1       6.102   4.438  17.809  0.00  0.00    +0.000 A 
ATOM      8  N   UNL     1       6.313   4.316  16.484  0.00  0.00    +0.000 NA
ATOM      9  H   UNL     1       7.626   6.020  14.108  0.00  0.00    +0.000 HD
ENDROOT
BRANCH   1  14
ATOM     10  C   UNL     1       6.338   2.639  11.834  0.00  0.00    +0.000 A 
ATOM     11  C   UNL     1       4.959   2.813  11.720  0.00  0.00    +0.000 A 
ATOM     12  C   UNL     1       4.329   3.801  12.475  0.00  0.00    +0.000 A 
ATOM     13  C   UNL     1       5.070   4.594  13.362  0.00  0.00    +0.000 A 
ATOM     14  C   UNL     1       6.455   4.424  13.499  0.00  0.00    +0.000 A 
ATOM     15  C   UNL     1       7.074   3.477  12.675  0.00  0.00    +0.000 A 
BRANCH  10  17
ATOM     16  O   UNL     1       7.923   1.796  10.274  0.00  0.00    +0.000 OA
ATOM     17  C   UNL     1       7.014   1.573  11.055  0.00  0.00    +0.000 C 
BRANCH  17  18
ATOM     18  O   UNL     1       6.487   0.340  11.246  0.00  0.00    +0.000 OA
ATOM     19  H   UNL     1       7.062  -0.279  11.742  0.00  0.00    +0.000 HD
ENDBRANCH  17  18
ENDBRANCH  10  17
ENDBRANCH   1  14
BRANCH   7  20
ATOM     20  N   UNL     1       5.386   3.432  18.483  0.00  0.00    +0.000 N 
ATOM     21  H   UNL     1       5.925   2.573  18.626  0.00  0.00    +0.000 HD
BRANCH  20  22
ATOM     22  C   UNL     1       4.251   3.557  19.320  0.00  0.00    +0.000 A 
ATOM     23  C   UNL     1       3.370   4.639  19.146  0.00  0.00    +0.000 A 
ATOM     24  C   UNL     1       2.185   4.742  19.880  0.00  0.00    +0.000 A 
ATOM     25  C   UNL     1       1.850   3.760  20.805  0.00  0.00    +0.000 A 
ATOM     26  C   UNL     1       2.717   2.693  21.023  0.00  0.00    +0.000 A 
ATOM     27  C   UNL     1       3.931   2.604  20.316  0.00  0.00    +0.000 A 
BRANCH  27  28
ATOM     28  C   UNL     1       4.871   1.492  20.607  0.00  0.00    +0.000 C 
ATOM     29  O   UNL     1       5.414   1.361  21.693  0.00  0.00    +0.000 OA
BRANCH  28  30
ATOM     30  O   UNL     1       5.024   0.601  19.602  0.00  0.00    +0.000 OA
ATOM     31  H   UNL     1       4.919  -0.339  19.844  0.00  0.00    +0.000 HD
ENDBRANCH  28  30
ENDBRANCH  27  28
ENDBRANCH  20  22
ENDBRANCH   7  20
TORSDOF 7
ENDMDL
MODEL 7
REMARK VINA RESULT:      -8.3      1.240      1.801
REMARK  Name = 
REMARK  7 active torsions:
REMARK  status: ('A' for Active; 'I' for Inactive)
REMARK    1  A    between atoms: C_2  and  O_3
REMARK    2  A    between atoms: C_2  and  C_4
REMARK    3  A    between atoms: C_8  and  N_9
REMARK    4  A    between atoms: C_15  and  N_16
REMARK    5  A    between atoms: N_16  and  C_17
REMARK    6  A    between atoms: C_22  and  C_23
REMARK    7  A    between atoms: C_23  and  O_25
REMARK                            x       y       z     vdW  Elec       q    Type
REMARK                         _______ _______ _______ _____ _____    ______ ____
ROOT
ATOM      1  N   UNL     1       1.271   5.432  20.852  0.00  0.00    +0.000 N 
ATOM      2  C   UNL     1       2.120   4.381  20.493  0.00  0.00    +0.000 A 
ATOM      3  N   UNL     1       1.606   3.146  20.555  0.00  0.00    +0.000 NA
ATOM      4  C   UNL     1       2.406   2.138  20.139  0.00  0.00    +0.000 A 
ATOM      5  C   UNL     1       3.684   2.323  19.669  0.00  0.00    +0.000 A 
ATOM      6  F   UNL     1       4.436   1.283  19.289  0.00  0.00    +0.000 F 
ATOM      7  C   UNL     1       4.152   3.620  19.647  0.00  0.00    +0.000 A 
ATOM      8  N   UNL     1       3.369   4.633  20.065  0.00  0.00    +0.000 NA
ATOM      9  H   UNL     1       0.349   5.067  21.045  0.00  0.00    +0.000 HD
ENDROOT
BRANCH   1  14
ATOM     10  C   UNL     1       1.859   8.642  19.033  0.00  0.00    +0.000 A 
ATOM     11  C   UNL     1       1.424   9.568  19.979  0.00  0.00    +0.000 A 
ATOM     12  C   UNL     1       0.983   9.121  21.223  0.00  0.00    +0.000 A 
ATOM     13  C   UNL     1       0.952   7.750  21.512  0.00  0.00    +0.000 A 
ATOM     14  C   UNL     1       1.373   6.803  20.568  0.00  0.00    +0.000 A 
ATOM     15  C   UNL     1       1.881   7.282  19.356  0.00  0.00    +0.000 A 
BRANCH  10  17
ATOM     16  O   UNL     1       2.984   8.422  16.949  0.00  0.00    +0.000 OA
ATOM     17  C   UNL     1       2.304   9.105  17.696  0.00  0.00    +0.000 C 
BRANCH  17  18
ATOM     18  O   UNL     1       1.938  10.376  17.409  0.00  0.00    +0.000 OA
ATOM     19  H   UNL     1       1.135  10.457  16.854  0.00  0.00    +0.000 HD
ENDBRANCH  17  18
ENDBRANCH  10  17
ENDBRANCH   1  14
BRANCH   7  20
ATOM     20  N   UNL     1       5.464   3.901  19.222  0.00  0.00    +0.000 N 
ATOM     21  H   UNL     1       6.181   3.395  19.751  0.00  0.00    +0.000 HD
BRANCH  20  22
ATOM     22  C   UNL     1       5.906   4.415  17.980  0.00  0.00    +0.000 A 
ATOM     23  C   UNL     1       5.323   3.955  16.785  0.00  0.00    +0.000 A 
ATOM     24  C   UNL     1       5.657   4.512  15.547  0.00  0.00    +0.000 A 
ATOM     25  C   UNL     1       6.581   5.548  15.475  0.00  0.00    +0.000 A 
ATOM     26  C   UNL     1       7.199   6.004  16.636  0.00  0.00    +0.000 A 
ATOM     27  C   UNL     1       6.897   5.421  17.881  0.00  0.00    +0.000 A 
BRANCH  27  28
ATOM     28  C   UNL     1       7.613   5.878  19.100  0.00  0.00    +0.000 C 
ATOM     29  O   UNL     1       7.556   5.272  20.158  0.00  0.00    +0.000 OA
BRANCH  28  30
ATOM     30  O   UNL     1       8.383   6.975  18.926  0.00  0.00    +0.000 OA
ATOM     31  H   UNL     1       9.295   6.915  19.267  0.00  0.00    +0.000 HD
ENDBRANCH  28  30
ENDBRANCH  27  28
ENDBRANCH  20  22
ENDBRANCH   7  20
TORSDOF 7
ENDMDL
MODEL 8
REMARK VINA RESULT:      -8.2      0.807      1.040
REMARK  Name = 
REMARK  7 active torsions:
REMARK  status: ('A' for Active; 'I' for Inactive)
REMARK    1  A    between atoms: C_2  and  O_3
REMARK    2  A    between atoms: C_2  and  C_4
REMARK    3  A    between atoms: C_8  and  N_9
REMARK    4  A    between atoms: C_15  and  N_16
REMARK    5  A    between atoms: N_16  and  C_17
REMARK    6  A    between atoms: C_22  and  C_23
REMARK    7  A    between atoms: C_23  and  O_25
REMARK                            x       y       z     vdW  Elec       q    Type
REMARK                         _______ _______ _______ _____ _____    ______ ____
ROOT
ATOM      1  N   UNL     1       1.791   6.255  20.693  0.00  0.00    +0.000 N 
ATOM      2  C   UNL     1       2.491   5.047  20.623  0.00  0.00    +0.000 A 
ATOM      3  N   UNL     1       2.000   4.027  21.338  0.00  0.00    +0.000 NA
ATOM      4  C   UNL     1       2.639   2.841  21.213  0.00  0.00    +0.000 A 
ATOM      5  C   UNL     1       3.734   2.646  20.408  0.00  0.00    +0.000 A 
ATOM      6  F   UNL     1       4.337   1.452  20.339  0.00  0.00    +0.000 F 
ATOM      7  C   UNL     1       4.193   3.746  19.712  0.00  0.00    +0.000 A 
ATOM      8  N   UNL     1       3.572   4.934  19.832  0.00  0.00    +0.000 NA
ATOM      9  H   UNL     1       0.956   6.128  21.247  0.00  0.00    +0.000 HD
ENDROOT
BRANCH   1  14
ATOM     10  C   UNL     1       1.447   9.733  19.371  0.00  0.00    +0.000 A 
ATOM     11  C   UNL     1       2.048   9.603  18.119  0.00  0.00    +0.000 A 
ATOM     12  C   UNL     1       2.519   8.356  17.711  0.00  0.00    +0.000 A 
ATOM     13  C   UNL     1       2.415   7.247  18.562  0.00  0.00    +0.000 A 
ATOM     14  C   UNL     1       1.825   7.362  19.829  0.00  0.00    +0.000 A 
ATOM     15  C   UNL     1       1.294   8.607  20.184  0.00  0.00    +0.000 A 
BRANCH  10  17
ATOM     16  O   UNL     1       0.511  11.897  19.065  0.00  0.00    +0.000 OA
ATOM     17  C   UNL     1       0.968  11.060  19.825  0.00  0.00    +0.000 C 
BRANCH  17  18
ATOM     18  O   UNL     1       1.141  11.279  21.150  0.00  0.00    +0.000 OA
ATOM     19  H   UNL     1       2.055  11.138  21.473  0.00  0.00    +0.000 HD
ENDBRANCH  17  18
ENDBRANCH  10  17
ENDBRANCH   1  14
BRANCH   7  20
ATOM     20  N   UNL     1       5.336   3.650  18.896  0.00  0.00    +0.000 N 
ATOM     21  H   UNL     1       5.973   2.898  19.172  0.00  0.00    +0.000 HD
BRANCH  20  22
ATOM     22  C   UNL     1       5.529   4.127  17.578  0.00  0.00    +0.000 A 
ATOM     23  C   UNL     1       4.488   4.028  16.638  0.00  0.00    +0.000 A 
ATOM     24  C   UNL     1       4.602   4.581  15.359  0.00  0.00    +0.000 A 
ATOM     25  C   UNL     1       5.762   5.251  14.990  0.00  0.00    +0.000 A 
ATOM     26  C   UNL     1       6.824   5.338  15.886  0.00  0.00    +0.000 A 
ATOM     27  C   UNL     1       6.731   4.750  17.161  0.00  0.00    +0.000 A 
BRANCH  27  28
ATOM     28  C   UNL     1       7.896   4.800  18.081  0.00  0.00    +0.000 C 
ATOM     29  O   UNL     1       8.836   4.026  17.990  0.00  0.00    +0.000 OA
BRANCH  28  30
ATOM     30  O   UNL     1       7.867   5.811  18.978  0.00  0.00    +0.000 OA
ATOM     31  H   UNL     1       7.608   6.685  18.630  0.00  0.00    +0.000 HD
ENDBRANCH  28  30
ENDBRANCH  27  28
ENDBRANCH  20  22
ENDBRANCH   7  20
TORSDOF 7
ENDMDL
MODEL 9
REMARK VINA RESULT:      -8.2      2.763      4.946
REMARK  Name = 
REMARK  7 active torsions:
REMARK  status: ('A' for Active; 'I' for Inactive)
REMARK    1  A    between atoms: C_2  and  O_3
REMARK    2  A    between atoms: C_2  and  C_4
REMARK    3  A    between atoms: C_8  and  N_9
REMARK    4  A    between atoms: C_15  and  N_16
REMARK    5  A    between atoms: N_16  and  C_17
REMARK    6  A    between atoms: C_22  and  C_23
REMARK    7  A    between atoms: C_23  and  O_25
REMARK                            x       y       z     vdW  Elec       q    Type
REMARK                         _______ _______ _______ _____ _____    ______ ____
ROOT
ATOM      1  N   UNL     1       0.588   9.852  19.317  0.00  0.00    +0.000 N 
ATOM      2  C   UNL     1       1.528   8.940  18.827  0.00  0.00    +0.000 A 
ATOM      3  N   UNL     1       2.059   9.211  17.628  0.00  0.00    +0.000 NA
ATOM      4  C   UNL     1       3.019   8.366  17.189  0.00  0.00    +0.000 A 
ATOM      5  C   UNL     1       3.459   7.276  17.900  0.00  0.00    +0.000 A 
ATOM      6  F   UNL     1       4.401   6.463  17.405  0.00  0.00    +0.000 F 
ATOM      7  C   UNL     1       2.857   7.051  19.121  0.00  0.00    +0.000 A 
ATOM      8  N   UNL     1       1.895   7.880  19.567  0.00  0.00    +0.000 NA
ATOM      9  H   UNL     1       0.513  10.632  18.680  0.00  0.00    +0.000 HD
ENDROOT
BRANCH   1  14
ATOM     10  C   UNL     1      -0.807  11.475  22.379  0.00  0.00    +0.000 A 
ATOM     11  C   UNL     1      -0.925  10.379  23.232  0.00  0.00    +0.000 A 
ATOM     12  C   UNL     1      -0.501   9.124  22.798  0.00  0.00    +0.000 A 
ATOM     13  C   UNL     1       0.016   8.960  21.505  0.00  0.00    +0.000 A 
ATOM     14  C   UNL     1       0.130  10.049  20.630  0.00  0.00    +0.000 A 
ATOM     15  C   UNL     1      -0.233  11.309  21.116  0.00  0.00    +0.000 A 
BRANCH  10  17
ATOM     16  O   UNL     1      -2.439  13.173  22.711  0.00  0.00    +0.000 OA
ATOM     17  C   UNL     1      -1.280  12.809  22.821  0.00  0.00    +0.000 C 
BRANCH  17  18
ATOM     18  O   UNL     1      -0.297  13.606  23.302  0.00  0.00    +0.000 OA
ATOM     19  H   UNL     1       0.314  13.171  23.931  0.00  0.00    +0.000 HD
ENDBRANCH  17  18
ENDBRANCH  10  17
ENDBRANCH   1  14
BRANCH   7  20
ATOM     20  N   UNL     1       3.213   5.934  19.899  0.00  0.00    +0.000 N 
ATOM     21  H   UNL     1       3.652   6.181  20.791  0.00  0.00    +0.000 HD
BRANCH  20  22
ATOM     22  C   UNL     1       2.710   4.612  19.840  0.00  0.00    +0.000 A 
ATOM     23  C   UNL     1       1.433   4.326  20.354  0.00  0.00    +0.000 A 
ATOM     24  C   UNL     1       0.859   3.058  20.221  0.00  0.00    +0.000 A 
ATOM     25  C   UNL     1       1.549   2.045  19.565  0.00  0.00    +0.000 A 
ATOM     26  C   UNL     1       2.829   2.288  19.074  0.00  0.00    +0.000 A 
ATOM     27  C   UNL     1       3.429   3.550  19.239  0.00  0.00    +0.000 A 
BRANCH  27  28
ATOM     28  C   UNL     1       4.818   3.772  18.764  0.00  0.00    +0.000 C 
ATOM     29  O   UNL     1       5.684   4.258  19.474  0.00  0.00    +0.000 OA
BRANCH  28  30
ATOM     30  O   UNL     1       5.066   3.330  17.511  0.00  0.00    +0.000 OA
ATOM     31  H   UNL     1       5.004   3.998  16.802  0.00  0.00    +0.000 HD
ENDBRANCH  28  30
ENDBRANCH  27  28
ENDBRANCH  20  22
ENDBRANCH   7  20
TORSDOF 7
ENDMDL
