MODEL 1
REMARK VINA RESULT:      -9.2      0.000      0.000
REMARK  Name = 
REMARK  5 active torsions:
REMARK  status: ('A' for Active; 'I' for Inactive)
REMARK    1  A    between atoms: C_2  and  C_15
REMARK    2  A    between atoms: N_3  and  C_4
REMARK    3  A    between atoms: C_4  and  C_5
REMARK    4  A    between atoms: C_27  and  C_28
REMARK    5  A    between atoms: C_28  and  O_30
REMARK                            x       y       z     vdW  Elec       q    Type
REMARK                         _______ _______ _______ _____ _____    ______ ____
ROOT
ATOM      1  C   UNL     1       1.066   9.613  19.719  0.00  0.00    +0.000 A 
ATOM      2  C   UNL     1       0.323   9.228  20.847  0.00  0.00    +0.000 A 
ATOM      3 CL   UNL     1       0.030   7.588  21.314  0.00  0.00    +0.000 Cl
ATOM      4  C   UNL     1      -0.201  10.201  21.691  0.00  0.00    +0.000 A 
ATOM      5  C   UNL     1       0.056  11.552  21.454  0.00  0.00    +0.000 A 
ATOM      6  C   UNL     1       0.823  11.973  20.385  0.00  0.00    +0.000 A 
ATOM      7  N   UNL     1       1.055  13.300  20.258  0.00  0.00    +0.000 NA
ATOM      8  C   UNL     1       1.788  13.764  19.231  0.00  0.00    +0.000 A 
ATOM      9  N   UNL     1       1.919  15.135  19.053  0.00  0.00    +0.000 N 
ATOM     10  C   UNL     1       3.110  15.684  18.386  0.00  0.00    +0.000 C 
ATOM     11  C   UNL     1       2.648  16.857  17.526  0.00  0.00    +0.000 C 
ATOM     12  C   UNL     1       1.891  17.894  18.360  0.00  0.00    +0.000 C 
ATOM     13  C   UNL     1       0.801  17.279  19.254  0.00  0.00    +0.000 C 
ATOM     14  C   UNL     1       1.319  16.063  20.032  0.00  0.00    +0.000 C 
ATOM     15  C   UNL     1       2.236  12.885  18.255  0.00  0.00    +0.000 A 
ATOM     16  C   UNL     1       2.003  11.525  18.380  0.00  0.00    +0.000 A 
ATOM     17  C   UNL     1       1.313  11.004  19.484  0.00  0.00    +0.000 A 
ENDROOT
BRANCH   1  19
ATOM     18  O   UNL     1       1.362   8.595  17.595  0.00  0.00    +0.000 OA
ATOM     19  C   UNL     1       1.640   8.588  18.788  0.00  0.00    +0.000 C 
ATOM     20  N   UNL     1       2.461   7.637  19.353  0.00  0.00    +0.000 N 
ATOM     21  H   UNL     1       2.666   7.684  20.343  0.00  0.00    +0.000 HD
BRANCH  20  22
ATOM     22  C   UNL     1       3.108   6.589  18.588  0.00  0.00    +0.000 C 
BRANCH  22  23
ATOM     23  C   UNL     1       2.691   5.181  19.056  0.00  0.00    +0.000 C 
ATOM     24  C   UNL     1       1.683   4.551  18.064  0.00  0.00    +0.000 C 
ATOM     25  C   UNL     1       1.279   3.143  18.515  0.00  0.00    +0.000 C 
ATOM     26  C   UNL     1       2.531   2.257  18.581  0.00  0.00    +0.000 C 
ATOM     27  C   UNL     1       3.541   2.845  19.580  0.00  0.00    +0.000 C 
ATOM     28  C   UNL     1       2.889   2.920  20.971  0.00  0.00    +0.000 C 
ATOM     29  C   UNL     1       1.639   3.814  20.918  0.00  0.00    +0.000 C 
ATOM     30  C   UNL     1       0.636   3.232  19.908  0.00  0.00    +0.000 C 
ATOM     31  C   UNL     1       2.047   5.226  20.467  0.00  0.00    +0.000 C 
ATOM     32  C   UNL     1       3.938   4.262  19.128  0.00  0.00    +0.000 C 
ENDBRANCH  22  23
ENDBRANCH  20  22
ENDBRANCH   1  19
BRANCH  13  33
ATOM     33  C   UNL     1      -0.462  16.960  18.472  0.00  0.00    +0.000 C 
ATOM     34  O   UNL     1      -0.737  17.511  17.411  0.00  0.00    +0.000 OA
BRANCH  33  35
ATOM     35  O   UNL     1      -1.244  15.988  18.979  0.00  0.00    +0.000 OA
ATOM     36  H   UNL     1      -1.040  15.805  19.925  0.00  0.00    +0.000 HD
ENDBRANCH  33  35
ENDBRANCH  13  33
TORSDOF 5
ENDMDL
MODEL 2
REMARK VINA RESULT:      -9.2      0.075      1.265
REMARK  Name = 
REMARK  5 active torsions:
REMARK  status: ('A' for Active; 'I' for Inactive)
REMARK    1  A    between atoms: C_2  and  C_15
REMARK    2  A    between atoms: N_3  and  C_4
REMARK    3  A    between atoms: C_4  and  C_5
REMARK    4  A    between atoms: C_27  and  C_28
REMARK    5  A    between atoms: C_28  and  O_30
REMARK                            x       y       z     vdW  Elec       q    Type
REMARK                         _______ _______ _______ _____ _____    ______ ____
ROOT
ATOM      1  C   UNL     1       1.079   9.620  19.684  0.00  0.00    +0.000 A 
ATOM      2  C   UNL     1       0.337   9.236  20.812  0.00  0.00    +0.000 A 
ATOM      3 CL   UNL     1       0.040   7.596  21.279  0.00  0.00    +0.000 Cl
ATOM      4  C   UNL     1      -0.185  10.211  21.658  0.00  0.00    +0.000 A 
ATOM      5  C   UNL     1       0.075  11.560  21.421  0.00  0.00    +0.000 A 
ATOM      6  C   UNL     1       0.842  11.981  20.352  0.00  0.00    +0.000 A 
ATOM      7  N   UNL     1       1.078  13.307  20.224  0.00  0.00    +0.000 NA
ATOM      8  C   UNL     1       1.810  13.770  19.197  0.00  0.00    +0.000 A 
ATOM      9  N   UNL     1       1.945  15.141  19.020  0.00  0.00    +0.000 N 
ATOM     10  C   UNL     1       3.136  15.687  18.352  0.00  0.00    +0.000 C 
ATOM     11  C   UNL     1       2.676  16.862  17.493  0.00  0.00    +0.000 C 
ATOM     12  C   UNL     1       1.922  17.900  18.328  0.00  0.00    +0.000 C 
ATOM     13  C   UNL     1       0.832  17.287  19.223  0.00  0.00    +0.000 C 
ATOM     14  C   UNL     1       1.347  16.069  20.000  0.00  0.00    +0.000 C 
ATOM     15  C   UNL     1       2.255  12.890  18.221  0.00  0.00    +0.000 A 
ATOM     16  C   UNL     1       2.019  11.531  18.345  0.00  0.00    +0.000 A 
ATOM     17  C   UNL     1       1.330  11.011  19.450  0.00  0.00    +0.000 A 
ENDROOT
BRANCH   1  19
ATOM     18  O   UNL     1       1.399   8.624  17.553  0.00  0.00    +0.000 OA
ATOM     19  C   UNL     1       1.651   8.595  18.752  0.00  0.00    +0.000 C 
ATOM     20  N   UNL     1       2.436   7.617  19.322  0.00  0.00    +0.000 N 
ATOM     21  H   UNL     1       2.620   7.646  20.316  0.00  0.00    +0.000 HD
BRANCH  20  22
ATOM     22  C   UNL     1       3.075   6.564  18.557  0.00  0.00    +0.000 C 
BRANCH  22  23
ATOM     23  C   UNL     1       2.673   5.159  19.046  0.00  0.00    +0.000 C 
ATOM     24  C   UNL     1       1.916   5.246  20.393  0.00  0.00    +0.000 C 
ATOM     25  C   UNL     1       1.497   3.852  20.876  0.00  0.00    +0.000 C 
ATOM     26  C   UNL     1       0.576   3.212  19.828  0.00  0.00    +0.000 C 
ATOM     27  C   UNL     1       1.311   3.089  18.484  0.00  0.00    +0.000 C 
ATOM     28  C   UNL     1       2.562   2.215  18.672  0.00  0.00    +0.000 C 
ATOM     29  C   UNL     1       3.498   2.853  19.712  0.00  0.00    +0.000 C 
ATOM     30  C   UNL     1       2.755   2.988  21.053  0.00  0.00    +0.000 C 
ATOM     31  C   UNL     1       3.917   4.249  19.225  0.00  0.00    +0.000 C 
ATOM     32  C   UNL     1       1.737   4.490  18.006  0.00  0.00    +0.000 C 
ENDBRANCH  22  23
ENDBRANCH  20  22
ENDBRANCH   1  19
BRANCH  13  33
ATOM     33  C   UNL     1      -0.433  16.971  18.442  0.00  0.00    +0.000 C 
ATOM     34  O   UNL     1      -0.725  17.549  17.400  0.00  0.00    +0.000 OA
BRANCH  33  35
ATOM     35  O   UNL     1      -1.196  15.973  18.927  0.00  0.00    +0.000 OA
ATOM     36  H   UNL     1      -1.958  16.311  19.451  0.00  0.00    +0.000 HD
ENDBRANCH  33  35
ENDBRANCH  13  33
TORSDOF 5
ENDMDL
MODEL 3
REMARK VINA RESULT:      -9.2      0.294      1.227
REMARK  Name = 
REMARK  5 active torsions:
REMARK  status: ('A' for Active; 'I' for Inactive)
REMARK    1  A    between atoms: C_2  and  C_15
REMARK    2  A    between atoms: N_3  and  C_4
REMARK    3  A    between atoms: C_4  and  C_5
REMARK    4  A    between atoms: C_27  and  C_28
REMARK    5  A    between atoms: C_28  and  O_30
REMARK                            x       y       z     vdW  Elec       q    Type
REMARK                         _______ _______ _______ _____ _____    ______ ____
ROOT
ATOM      1  C   UNL     1       1.138   9.554  19.583  0.00  0.00    +0.000 A 
ATOM      2  C   UNL     1       0.435   9.140  20.725  0.00  0.00    +0.000 A 
ATOM      3 CL   UNL     1       0.165   7.488  21.165  0.00  0.00    +0.000 Cl
ATOM      4  C   UNL     1      -0.066  10.092  21.608  0.00  0.00    +0.000 A 
ATOM      5  C   UNL     1       0.177  11.448  21.393  0.00  0.00    +0.000 A 
ATOM      6  C   UNL     1       0.906  11.897  20.309  0.00  0.00    +0.000 A 
ATOM      7  N   UNL     1       1.128  13.227  20.203  0.00  0.00    +0.000 NA
ATOM      8  C   UNL     1       1.824  13.719  19.163  0.00  0.00    +0.000 A 
ATOM      9  N   UNL     1       1.943  15.094  19.012  0.00  0.00    +0.000 N 
ATOM     10  C   UNL     1       3.109  15.663  18.319  0.00  0.00    +0.000 C 
ATOM     11  C   UNL     1       2.613  16.853  17.500  0.00  0.00    +0.000 C 
ATOM     12  C   UNL     1       1.879  17.867  18.381  0.00  0.00    +0.000 C 
ATOM     13  C   UNL     1       0.823  17.226  19.297  0.00  0.00    +0.000 C 
ATOM     14  C   UNL     1       1.371  15.996  20.031  0.00  0.00    +0.000 C 
ATOM     15  C   UNL     1       2.244  12.863  18.154  0.00  0.00    +0.000 A 
ATOM     16  C   UNL     1       2.021  11.500  18.256  0.00  0.00    +0.000 A 
ATOM     17  C   UNL     1       1.371  10.951  19.371  0.00  0.00    +0.000 A 
ENDROOT
BRANCH   1  19
ATOM     18  O   UNL     1       1.303   8.531  17.447  0.00  0.00    +0.000 OA
ATOM     19  C   UNL     1       1.686   8.553  18.611  0.00  0.00    +0.000 C 
ATOM     20  N   UNL     1       2.607   7.656  19.106  0.00  0.00    +0.000 N 
ATOM     21  H   UNL     1       2.895   7.726  20.074  0.00  0.00    +0.000 HD
BRANCH  20  22
ATOM     22  C   UNL     1       3.243   6.638  18.293  0.00  0.00    +0.000 C 
BRANCH  22  23
ATOM     23  C   UNL     1       2.842   5.213  18.721  0.00  0.00    +0.000 C 
ATOM     24  C   UNL     1       4.011   4.224  18.491  0.00  0.00    +0.000 C 
ATOM     25  C   UNL     1       3.624   2.808  18.931  0.00  0.00    +0.000 C 
ATOM     26  C   UNL     1       3.273   2.823  20.426  0.00  0.00    +0.000 C 
ATOM     27  C   UNL     1       2.096   3.779  20.681  0.00  0.00    +0.000 C 
ATOM     28  C   UNL     1       0.878   3.305  19.871  0.00  0.00    +0.000 C 
ATOM     29  C   UNL     1       1.215   3.296  18.371  0.00  0.00    +0.000 C 
ATOM     30  C   UNL     1       2.402   2.350  18.119  0.00  0.00    +0.000 C 
ATOM     31  C   UNL     1       1.601   4.717  17.931  0.00  0.00    +0.000 C 
ATOM     32  C   UNL     1       2.485   5.198  20.230  0.00  0.00    +0.000 C 
ENDBRANCH  22  23
ENDBRANCH  20  22
ENDBRANCH   1  19
BRANCH  13  33
ATOM     33  C   UNL     1      -0.465  16.918  18.550  0.00  0.00    +0.000 C 
ATOM     34  O   UNL     1      -0.797  17.520  17.535  0.00  0.00    +0.000 OA
BRANCH  33  35
ATOM     35  O   UNL     1      -1.201  15.899  19.033  0.00  0.00    +0.000 OA
ATOM     36  H   UNL     1      -1.351  15.198  18.357  0.00  0.00    +0.000 HD
ENDBRANCH  33  35
ENDBRANCH  13  33
TORSDOF 5
ENDMDL
MODEL 4
REMARK VINA RESULT:      -8.8      2.696      9.663
REMARK  Name = 
REMARK  5 active torsions:
REMARK  status: ('A' for Active; 'I' for Inactive)
REMARK    1  A    between atoms: C_2  and  C_15
REMARK    2  A    between atoms: N_3  and  C_4
REMARK    3  A    between atoms: C_4  and  C_5
REMARK    4  A    between atoms: C_27  and  C_28
REMARK    5  A    between atoms: C_28  and  O_30
REMARK                            x       y       z     vdW  Elec       q    Type
REMARK                         _______ _______ _______ _____ _____    ______ ____
ROOT
ATOM      1  C   UNL     1       0.853   9.413  19.649  0.00  0.00    +0.000 A 
ATOM      2  C   UNL     1       0.325   9.081  20.907  0.00  0.00    +0.000 A 
ATOM      3 CL   UNL     1      -0.954   9.944  21.692  0.00  0.00    +0.000 Cl
ATOM      4  C   UNL     1       0.813   7.970  21.587  0.00  0.00    +0.000 A 
ATOM      5  C   UNL     1       1.780   7.154  21.001  0.00  0.00    +0.000 A 
ATOM      6  C   UNL     1       2.291   7.414  19.744  0.00  0.00    +0.000 A 
ATOM      7  N   UNL     1       3.196   6.545  19.237  0.00  0.00    +0.000 NA
ATOM      8  C   UNL     1       3.731   6.756  18.022  0.00  0.00    +0.000 A 
ATOM      9  N   UNL     1       4.740   5.916  17.567  0.00  0.00    +0.000 N 
ATOM     10  C   UNL     1       4.933   5.706  16.125  0.00  0.00    +0.000 C 
ATOM     11  C   UNL     1       6.437   5.622  15.875  0.00  0.00    +0.000 C 
ATOM     12  C   UNL     1       7.083   4.533  16.737  0.00  0.00    +0.000 C 
ATOM     13  C   UNL     1       6.675   4.606  18.218  0.00  0.00    +0.000 C 
ATOM     14  C   UNL     1       5.159   4.762  18.387  0.00  0.00    +0.000 C 
ATOM     15  C   UNL     1       3.415   7.913  17.325  0.00  0.00    +0.000 A 
ATOM     16  C   UNL     1       2.489   8.807  17.837  0.00  0.00    +0.000 A 
ATOM     17  C   UNL     1       1.852   8.570  19.064  0.00  0.00    +0.000 A 
ENDROOT
BRANCH   1  19
ATOM     18  O   UNL     1      -0.499  10.485  18.019  0.00  0.00    +0.000 OA
ATOM     19  C   UNL     1       0.351  10.606  18.893  0.00  0.00    +0.000 C 
ATOM     20  N   UNL     1       0.919  11.820  19.214  0.00  0.00    +0.000 N 
ATOM     21  H   UNL     1       1.610  11.863  19.951  0.00  0.00    +0.000 HD
BRANCH  20  22
ATOM     22  C   UNL     1       0.533  13.069  18.587  0.00  0.00    +0.000 C 
BRANCH  22  23
ATOM     23  C   UNL     1       1.566  14.187  18.825  0.00  0.00    +0.000 C 
ATOM     24  C   UNL     1       0.910  15.580  18.665  0.00  0.00    +0.000 C 
ATOM     25  C   UNL     1       1.929  16.697  18.917  0.00  0.00    +0.000 C 
ATOM     26  C   UNL     1       2.475  16.566  20.347  0.00  0.00    +0.000 C 
ATOM     27  C   UNL     1       3.157  15.199  20.527  0.00  0.00    +0.000 C 
ATOM     28  C   UNL     1       4.313  15.076  19.521  0.00  0.00    +0.000 C 
ATOM     29  C   UNL     1       3.775  15.195  18.085  0.00  0.00    +0.000 C 
ATOM     30  C   UNL     1       3.082  16.557  17.910  0.00  0.00    +0.000 C 
ATOM     31  C   UNL     1       2.755  14.073  17.833  0.00  0.00    +0.000 C 
ATOM     32  C   UNL     1       2.132  14.080  20.264  0.00  0.00    +0.000 C 
ENDBRANCH  22  23
ENDBRANCH  20  22
ENDBRANCH   1  19
BRANCH  13  33
ATOM     33  C   UNL     1       7.446   5.681  18.967  0.00  0.00    +0.000 C 
ATOM     34  O   UNL     1       7.808   6.724  18.434  0.00  0.00    +0.000 OA
BRANCH  33  35
ATOM     35  O   UNL     1       7.662   5.451  20.277  0.00  0.00    +0.000 OA
ATOM     36  H   UNL     1       7.541   4.502  20.511  0.00  0.00    +0.000 HD
ENDBRANCH  33  35
ENDBRANCH  13  33
TORSDOF 5
ENDMDL
MODEL 5
REMARK VINA RESULT:      -8.8      2.700      9.647
REMARK  Name = 
REMARK  5 active torsions:
REMARK  status: ('A' for Active; 'I' for Inactive)
REMARK    1  A    between atoms: C_2  and  C_15
REMARK    2  A    between atoms: N_3  and  C_4
REMARK    3  A    between atoms: C_4  and  C_5
REMARK    4  A    between atoms: C_27  and  C_28
REMARK    5  A    between atoms: C_28  and  O_30
REMARK                            x       y       z     vdW  Elec       q    Type
REMARK                         _______ _______ _______ _____ _____    ______ ____
ROOT
ATOM      1  C   UNL     1       0.882   9.386  19.684  0.00  0.00    +0.000 A 
ATOM      2  C   UNL     1       0.362   9.046  20.943  0.00  0.00    +0.000 A 
ATOM      3 CL   UNL     1      -0.912   9.903  21.741  0.00  0.00    +0.000 Cl
ATOM      4  C   UNL     1       0.855   7.931  21.613  0.00  0.00    +0.000 A 
ATOM      5  C   UNL     1       1.819   7.119  21.016  0.00  0.00    +0.000 A 
ATOM      6  C   UNL     1       2.322   7.387  19.757  0.00  0.00    +0.000 A 
ATOM      7  N   UNL     1       3.224   6.522  19.239  0.00  0.00    +0.000 NA
ATOM      8  C   UNL     1       3.752   6.740  18.022  0.00  0.00    +0.000 A 
ATOM      9  N   UNL     1       4.758   5.904  17.556  0.00  0.00    +0.000 N 
ATOM     10  C   UNL     1       4.942   5.703  16.111  0.00  0.00    +0.000 C 
ATOM     11  C   UNL     1       6.444   5.621  15.852  0.00  0.00    +0.000 C 
ATOM     12  C   UNL     1       7.096   4.527  16.702  0.00  0.00    +0.000 C 
ATOM     13  C   UNL     1       6.698   4.591  18.187  0.00  0.00    +0.000 C 
ATOM     14  C   UNL     1       5.182   4.745  18.366  0.00  0.00    +0.000 C 
ATOM     15  C   UNL     1       3.431   7.901  17.334  0.00  0.00    +0.000 A 
ATOM     16  C   UNL     1       2.508   8.792  17.858  0.00  0.00    +0.000 A 
ATOM     17  C   UNL     1       1.878   8.547  19.088  0.00  0.00    +0.000 A 
ENDROOT
BRANCH   1  19
ATOM     18  O   UNL     1      -0.451  10.463  18.041  0.00  0.00    +0.000 OA
ATOM     19  C   UNL     1       0.375  10.583  18.938  0.00  0.00    +0.000 C 
ATOM     20  N   UNL     1       0.910  11.801  19.297  0.00  0.00    +0.000 N 
ATOM     21  H   UNL     1       1.582  11.844  20.052  0.00  0.00    +0.000 HD
BRANCH  20  22
ATOM     22  C   UNL     1       0.514  13.055  18.685  0.00  0.00    +0.000 C 
BRANCH  22  23
ATOM     23  C   UNL     1       1.563  14.165  18.894  0.00  0.00    +0.000 C 
ATOM     24  C   UNL     1       2.138  14.108  20.331  0.00  0.00    +0.000 C 
ATOM     25  C   UNL     1       3.194  15.199  20.540  0.00  0.00    +0.000 C 
ATOM     26  C   UNL     1       4.338  14.991  19.537  0.00  0.00    +0.000 C 
ATOM     27  C   UNL     1       3.800  15.068  18.099  0.00  0.00    +0.000 C 
ATOM     28  C   UNL     1       3.162  16.449  17.873  0.00  0.00    +0.000 C 
ATOM     29  C   UNL     1       2.008  16.664  18.866  0.00  0.00    +0.000 C 
ATOM     30  C   UNL     1       2.545  16.572  20.304  0.00  0.00    +0.000 C 
ATOM     31  C   UNL     1       0.949  15.570  18.653  0.00  0.00    +0.000 C 
ATOM     32  C   UNL     1       2.733  13.976  17.896  0.00  0.00    +0.000 C 
ENDBRANCH  22  23
ENDBRANCH  20  22
ENDBRANCH   1  19
BRANCH  13  33
ATOM     33  C   UNL     1       7.473   5.661  18.938  0.00  0.00    +0.000 C 
ATOM     34  O   UNL     1       7.865   6.690  18.399  0.00  0.00    +0.000 OA
BRANCH  33  35
ATOM     35  O   UNL     1       7.658   5.445  20.254  0.00  0.00    +0.000 OA
ATOM     36  H   UNL     1       8.462   4.903  20.431  0.00  0.00    +0.000 HD
ENDBRANCH  33  35
ENDBRANCH  13  33
TORSDOF 5
ENDMDL
MODEL 6
REMARK VINA RESULT:      -8.8      2.696      9.672
REMARK  Name = 
REMARK  5 active torsions:
REMARK  status: ('A' for Active; 'I' for Inactive)
REMARK    1  A    between atoms: C_2  and  C_15
REMARK    2  A    between atoms: N_3  and  C_4
REMARK    3  A    between atoms: C_4  and  C_5
REMARK    4  A    between atoms: C_27  and  C_28
REMARK    5  A    between atoms: C_28  and  O_30
REMARK                            x       y       z     vdW  Elec       q    Type
REMARK                         _______ _______ _______ _____ _____    ______ ____
ROOT
ATOM      1  C   UNL     1       0.873   9.391  19.668  0.00  0.00    +0.000 A 
ATOM      2  C   UNL     1       0.356   9.059  20.930  0.00  0.00    +0.000 A 
ATOM      3 CL   UNL     1      -0.917   9.920  21.725  0.00  0.00    +0.000 Cl
ATOM      4  C   UNL     1       0.851   7.948  21.606  0.00  0.00    +0.000 A 
ATOM      5  C   UNL     1       1.814   7.134  21.012  0.00  0.00    +0.000 A 
ATOM      6  C   UNL     1       2.315   7.394  19.751  0.00  0.00    +0.000 A 
ATOM      7  N   UNL     1       3.216   6.526  19.237  0.00  0.00    +0.000 NA
ATOM      8  C   UNL     1       3.742   6.737  18.017  0.00  0.00    +0.000 A 
ATOM      9  N   UNL     1       4.748   5.899  17.555  0.00  0.00    +0.000 N 
ATOM     10  C   UNL     1       4.929   5.689  16.111  0.00  0.00    +0.000 C 
ATOM     11  C   UNL     1       6.431   5.607  15.849  0.00  0.00    +0.000 C 
ATOM     12  C   UNL     1       7.086   4.519  16.705  0.00  0.00    +0.000 C 
ATOM     13  C   UNL     1       6.690   4.592  18.190  0.00  0.00    +0.000 C 
ATOM     14  C   UNL     1       5.175   4.746  18.371  0.00  0.00    +0.000 C 
ATOM     15  C   UNL     1       3.418   7.894  17.323  0.00  0.00    +0.000 A 
ATOM     16  C   UNL     1       2.496   8.787  17.843  0.00  0.00    +0.000 A 
ATOM     17  C   UNL     1       1.869   8.550  19.075  0.00  0.00    +0.000 A 
ENDROOT
BRANCH   1  19
ATOM     18  O   UNL     1      -0.498  10.462  18.052  0.00  0.00    +0.000 OA
ATOM     19  C   UNL     1       0.364  10.583  18.915  0.00  0.00    +0.000 C 
ATOM     20  N   UNL     1       0.937  11.797  19.227  0.00  0.00    +0.000 N 
ATOM     21  H   UNL     1       1.638  11.841  19.956  0.00  0.00    +0.000 HD
BRANCH  20  22
ATOM     22  C   UNL     1       0.545  13.045  18.603  0.00  0.00    +0.000 C 
BRANCH  22  23
ATOM     23  C   UNL     1       1.550  14.180  18.881  0.00  0.00    +0.000 C 
ATOM     24  C   UNL     1       2.757  14.089  17.915  0.00  0.00    +0.000 C 
ATOM     25  C   UNL     1       3.752  15.225  18.175  0.00  0.00    +0.000 C 
ATOM     26  C   UNL     1       3.046  16.572  17.963  0.00  0.00    +0.000 C 
ATOM     27  C   UNL     1       1.856  16.701  18.928  0.00  0.00    +0.000 C 
ATOM     28  C   UNL     1       2.370  16.612  20.375  0.00  0.00    +0.000 C 
ATOM     29  C   UNL     1       3.070  15.262  20.602  0.00  0.00    +0.000 C 
ATOM     30  C   UNL     1       4.251  15.128  19.625  0.00  0.00    +0.000 C 
ATOM     31  C   UNL     1       2.070  14.124  20.342  0.00  0.00    +0.000 C 
ATOM     32  C   UNL     1       0.863  15.553  18.669  0.00  0.00    +0.000 C 
ENDBRANCH  22  23
ENDBRANCH  20  22
ENDBRANCH   1  19
BRANCH  13  33
ATOM     33  C   UNL     1       7.466   5.667  18.933  0.00  0.00    +0.000 C 
ATOM     34  O   UNL     1       7.861   6.691  18.385  0.00  0.00    +0.000 OA
BRANCH  33  35
ATOM     35  O   UNL     1       7.648   5.463  20.251  0.00  0.00    +0.000 OA
ATOM     36  H   UNL     1       6.842   5.683  20.774  0.00  0.00    +0.000 HD
ENDBRANCH  33  35
ENDBRANCH  13  33
TORSDOF 5
ENDMDL
MODEL 7
REMARK VINA RESULT:      -8.5      0.885      1.793
REMARK  Name = 
REMARK  5 active torsions:
REMARK  status: ('A' for Active; 'I' for Inactive)
REMARK    1  A    between atoms: C_2  and  C_15
REMARK    2  A    between atoms: N_3  and  C_4
REMARK    3  A    between atoms: C_4  and  C_5
REMARK    4  A    between atoms: C_27  and  C_28
REMARK    5  A    between atoms: C_28  and  O_30
REMARK                            x       y       z     vdW  Elec       q    Type
REMARK                         _______ _______ _______ _____ _____    ______ ____
ROOT
ATOM      1  C   UNL     1       1.033   9.669  19.729  0.00  0.00    +0.000 A 
ATOM      2  C   UNL     1       0.526   9.095  20.905  0.00  0.00    +0.000 A 
ATOM      3 CL   UNL     1       0.468   7.394  21.220  0.00  0.00    +0.000 Cl
ATOM      4  C   UNL     1       0.060   9.917  21.927  0.00  0.00    +0.000 A 
ATOM      5  C   UNL     1       0.147  11.304  21.810  0.00  0.00    +0.000 A 
ATOM      6  C   UNL     1       0.685  11.911  20.691  0.00  0.00    +0.000 A 
ATOM      7  N   UNL     1       0.768  13.261  20.683  0.00  0.00    +0.000 NA
ATOM      8  C   UNL     1       1.274  13.903  19.615  0.00  0.00    +0.000 A 
ATOM      9  N   UNL     1       1.246  15.290  19.578  0.00  0.00    +0.000 N 
ATOM     10  C   UNL     1       2.254  16.030  18.804  0.00  0.00    +0.000 C 
ATOM     11  C   UNL     1       1.549  17.224  18.165  0.00  0.00    +0.000 C 
ATOM     12  C   UNL     1       0.847  18.084  19.220  0.00  0.00    +0.000 C 
ATOM     13  C   UNL     1      -0.018  17.267  20.194  0.00  0.00    +0.000 C 
ATOM     14  C   UNL     1       0.732  16.045  20.739  0.00  0.00    +0.000 C 
ATOM     15  C   UNL     1       1.635  13.179  18.488  0.00  0.00    +0.000 A 
ATOM     16  C   UNL     1       1.554  11.796  18.490  0.00  0.00    +0.000 A 
ATOM     17  C   UNL     1       1.108  11.095  19.620  0.00  0.00    +0.000 A 
ENDROOT
BRANCH   1  19
ATOM     18  O   UNL     1       1.025   8.859  17.497  0.00  0.00    +0.000 OA
ATOM     19  C   UNL     1       1.539   8.811  18.609  0.00  0.00    +0.000 C 
ATOM     20  N   UNL     1       2.579   7.958  18.910  0.00  0.00    +0.000 N 
ATOM     21  H   UNL     1       2.972   7.967  19.842  0.00  0.00    +0.000 HD
BRANCH  20  22
ATOM     22  C   UNL     1       3.191   7.076  17.936  0.00  0.00    +0.000 C 
BRANCH  22  23
ATOM     23  C   UNL     1       3.025   5.590  18.306  0.00  0.00    +0.000 C 
ATOM     24  C   UNL     1       3.130   5.393  19.838  0.00  0.00    +0.000 C 
ATOM     25  C   UNL     1       2.947   3.919  20.214  0.00  0.00    +0.000 C 
ATOM     26  C   UNL     1       1.562   3.448  19.747  0.00  0.00    +0.000 C 
ATOM     27  C   UNL     1       1.438   3.607  18.223  0.00  0.00    +0.000 C 
ATOM     28  C   UNL     1       2.527   2.765  17.538  0.00  0.00    +0.000 C 
ATOM     29  C   UNL     1       3.919   3.235  17.991  0.00  0.00    +0.000 C 
ATOM     30  C   UNL     1       4.036   3.088  19.518  0.00  0.00    +0.000 C 
ATOM     31  C   UNL     1       4.101   4.713  17.611  0.00  0.00    +0.000 C 
ATOM     32  C   UNL     1       1.631   5.088  17.848  0.00  0.00    +0.000 C 
ENDBRANCH  22  23
ENDBRANCH  20  22
ENDBRANCH   1  19
BRANCH  13  33
ATOM     33  C   UNL     1      -1.358  16.889  19.585  0.00  0.00    +0.000 C 
ATOM     34  O   UNL     1      -2.086  16.032  20.074  0.00  0.00    +0.000 OA
BRANCH  33  35
ATOM     35  O   UNL     1      -1.736  17.594  18.501  0.00  0.00    +0.000 OA
ATOM     36  H   UNL     1      -2.701  17.508  18.322  0.00  0.00    +0.000 HD
ENDBRANCH  33  35
ENDBRANCH  13  33
TORSDOF 5
ENDMDL
MODEL 8
REMARK VINA RESULT:      -8.4      2.857      9.705
REMARK  Name = 
REMARK  5 active torsions:
REMARK  status: ('A' for Active; 'I' for Inactive)
REMARK    1  A    between atoms: C_2  and  C_15
REMARK    2  A    between atoms: N_3  and  C_4
REMARK    3  A    between atoms: C_4  and  C_5
REMARK    4  A    between atoms: C_27  and  C_28
REMARK    5  A    between atoms: C_28  and  O_30
REMARK                            x       y       z     vdW  Elec       q    Type
REMARK                         _______ _______ _______ _____ _____    ______ ____
ROOT
ATOM      1  C   UNL     1       0.849   9.441  19.632  0.00  0.00    +0.000 A 
ATOM      2  C   UNL     1       0.339   9.139  20.904  0.00  0.00    +0.000 A 
ATOM      3 CL   UNL     1      -0.930  10.019  21.686  0.00  0.00    +0.000 Cl
ATOM      4  C   UNL     1       0.837   8.044  21.603  0.00  0.00    +0.000 A 
ATOM      5  C   UNL     1       1.797   7.216  21.023  0.00  0.00    +0.000 A 
ATOM      6  C   UNL     1       2.291   7.447  19.754  0.00  0.00    +0.000 A 
ATOM      7  N   UNL     1       3.189   6.567  19.254  0.00  0.00    +0.000 NA
ATOM      8  C   UNL     1       3.708   6.749  18.028  0.00  0.00    +0.000 A 
ATOM      9  N   UNL     1       4.712   5.901  17.579  0.00  0.00    +0.000 N 
ATOM     10  C   UNL     1       4.885   5.657  16.139  0.00  0.00    +0.000 C 
ATOM     11  C   UNL     1       6.386   5.568  15.872  0.00  0.00    +0.000 C 
ATOM     12  C   UNL     1       7.045   4.500  16.750  0.00  0.00    +0.000 C 
ATOM     13  C   UNL     1       6.657   4.608  18.234  0.00  0.00    +0.000 C 
ATOM     14  C   UNL     1       5.143   4.766  18.420  0.00  0.00    +0.000 C 
ATOM     15  C   UNL     1       3.381   7.890  17.308  0.00  0.00    +0.000 A 
ATOM     16  C   UNL     1       2.461   8.795  17.812  0.00  0.00    +0.000 A 
ATOM     17  C   UNL     1       1.841   8.586  19.053  0.00  0.00    +0.000 A 
ENDROOT
BRANCH   1  19
ATOM     18  O   UNL     1      -0.565  10.484  18.034  0.00  0.00    +0.000 OA
ATOM     19  C   UNL     1       0.336  10.616  18.855  0.00  0.00    +0.000 C 
ATOM     20  N   UNL     1       0.950  11.826  19.093  0.00  0.00    +0.000 N 
ATOM     21  H   UNL     1       1.683  11.881  19.789  0.00  0.00    +0.000 HD
BRANCH  20  22
ATOM     22  C   UNL     1       0.561  13.059  18.437  0.00  0.00    +0.000 C 
BRANCH  22  23
ATOM     23  C   UNL     1       0.098  14.134  19.438  0.00  0.00    +0.000 C 
ATOM     24  C   UNL     1      -1.227  13.712  20.119  0.00  0.00    +0.000 C 
ATOM     25  C   UNL     1      -1.684  14.770  21.130  0.00  0.00    +0.000 C 
ATOM     26  C   UNL     1      -0.603  14.936  22.207  0.00  0.00    +0.000 C 
ATOM     27  C   UNL     1       0.720  15.381  21.562  0.00  0.00    +0.000 C 
ATOM     28  C   UNL     1       0.502  16.721  20.839  0.00  0.00    +0.000 C 
ATOM     29  C   UNL     1      -0.571  16.563  19.751  0.00  0.00    +0.000 C 
ATOM     30  C   UNL     1      -1.891  16.104  20.396  0.00  0.00    +0.000 C 
ATOM     31  C   UNL     1      -0.111  15.503  18.737  0.00  0.00    +0.000 C 
ATOM     32  C   UNL     1       1.171  14.320  20.542  0.00  0.00    +0.000 C 
ENDBRANCH  22  23
ENDBRANCH  20  22
ENDBRANCH   1  19
BRANCH  13  33
ATOM     33  C   UNL     1       7.437   5.700  18.947  0.00  0.00    +0.000 C 
ATOM     34  O   UNL     1       7.824   6.713  18.376  0.00  0.00    +0.000 OA
BRANCH  33  35
ATOM     35  O   UNL     1       7.632   5.523  20.268  0.00  0.00    +0.000 OA
ATOM     36  H   UNL     1       7.414   4.606  20.555  0.00  0.00    +0.000 HD
ENDBRANCH  33  35
ENDBRANCH  13  33
TORSDOF 5
ENDMDL
MODEL 9
REMARK VINA RESULT:      -8.4      2.874      9.730
REMARK  Name = 
REMARK  5 active torsions:
REMARK  status: ('A' for Active; 'I' for Inactive)
REMARK    1  A    between atoms: C_2  and  C_15
REMARK    2  A    between atoms: N_3  and  C_4
REMARK    3  A    between atoms: C_4  and  C_5
REMARK    4  A    between atoms: C_27  and  C_28
REMARK    5  A    between atoms: C_28  and  O_30
REMARK                            x       y       z     vdW  Elec       q    Type
REMARK                         _______ _______ _______ _____ _____    ______ ____
ROOT
ATOM      1  C   UNL     1       0.851   9.405  19.611  0.00  0.00    +0.000 A 
ATOM      2  C   UNL     1       0.339   9.103  20.882  0.00  0.00    +0.000 A 
ATOM      3 CL   UNL     1      -0.937   9.977  21.659  0.00  0.00    +0.000 Cl
ATOM      4  C   UNL     1       0.841   8.012  21.585  0.00  0.00    +0.000 A 
ATOM      5  C   UNL     1       1.807   7.187  21.009  0.00  0.00    +0.000 A 
ATOM      6  C   UNL     1       2.303   7.418  19.741  0.00  0.00    +0.000 A 
ATOM      7  N   UNL     1       3.207   6.542  19.246  0.00  0.00    +0.000 NA
ATOM      8  C   UNL     1       3.728   6.725  18.020  0.00  0.00    +0.000 A 
ATOM      9  N   UNL     1       4.737   5.880  17.576  0.00  0.00    +0.000 N 
ATOM     10  C   UNL     1       4.916   5.634  16.137  0.00  0.00    +0.000 C 
ATOM     11  C   UNL     1       6.417   5.553  15.873  0.00  0.00    +0.000 C 
ATOM     12  C   UNL     1       7.080   4.491  16.755  0.00  0.00    +0.000 C 
ATOM     13  C   UNL     1       6.688   4.599  18.238  0.00  0.00    +0.000 C 
ATOM     14  C   UNL     1       5.172   4.750  18.420  0.00  0.00    +0.000 C 
ATOM     15  C   UNL     1       3.397   7.862  17.297  0.00  0.00    +0.000 A 
ATOM     16  C   UNL     1       2.471   8.763  17.797  0.00  0.00    +0.000 A 
ATOM     17  C   UNL     1       1.849   8.554  19.037  0.00  0.00    +0.000 A 
ENDROOT
BRANCH   1  19
ATOM     18  O   UNL     1      -0.526  10.427  17.969  0.00  0.00    +0.000 OA
ATOM     19  C   UNL     1       0.333  10.575  18.830  0.00  0.00    +0.000 C 
ATOM     20  N   UNL     1       0.896  11.800  19.113  0.00  0.00    +0.000 N 
ATOM     21  H   UNL     1       1.596  11.867  19.842  0.00  0.00    +0.000 HD
BRANCH  20  22
ATOM     22  C   UNL     1       0.496  13.030  18.459  0.00  0.00    +0.000 C 
BRANCH  22  23
ATOM     23  C   UNL     1       0.049  14.109  19.465  0.00  0.00    +0.000 C 
ATOM     24  C   UNL     1      -0.138  15.473  18.755  0.00  0.00    +0.000 C 
ATOM     25  C   UNL     1      -0.599  16.547  19.748  0.00  0.00    +0.000 C 
ATOM     26  C   UNL     1      -1.938  16.119  20.365  0.00  0.00    +0.000 C 
ATOM     27  C   UNL     1      -1.776  14.778  21.100  0.00  0.00    +0.000 C 
ATOM     28  C   UNL     1      -0.724  14.936  22.210  0.00  0.00    +0.000 C 
ATOM     29  C   UNL     1       0.624  15.354  21.601  0.00  0.00    +0.000 C 
ATOM     30  C   UNL     1       0.457  16.688  20.855  0.00  0.00    +0.000 C 
ATOM     31  C   UNL     1       1.086  14.275  20.608  0.00  0.00    +0.000 C 
ATOM     32  C   UNL     1      -1.305  13.705  20.102  0.00  0.00    +0.000 C 
ENDBRANCH  22  23
ENDBRANCH  20  22
ENDBRANCH   1  19
BRANCH  13  33
ATOM     33  C   UNL     1       7.460   5.697  18.951  0.00  0.00    +0.000 C 
ATOM     34  O   UNL     1       7.824   6.721  18.384  0.00  0.00    +0.000 OA
BRANCH  33  35
ATOM     35  O   UNL     1       7.676   5.511  20.268  0.00  0.00    +0.000 OA
ATOM     36  H   UNL     1       7.173   6.154  20.819  0.00  0.00    +0.000 HD
ENDBRANCH  33  35
ENDBRANCH  13  33
TORSDOF 5
ENDMDL
