MODEL 1
REMARK VINA RESULT:      -8.4      0.000      0.000
REMARK  Name = 
REMARK  6 active torsions:
REMARK  status: ('A' for Active; 'I' for Inactive)
REMARK    1  A    between atoms: C_1  and  C_2
REMARK    2  A    between atoms: N_4  and  C_5
REMARK    3  A    between atoms: C_8  and  N_9
REMARK    4  A    between atoms: C_22  and  C_23
REMARK    5  A    between atoms: C_32  and  C_33
REMARK    6  A    between atoms: C_32  and  C_34
REMARK                            x       y       z     vdW  Elec       q    Type
REMARK                         _______ _______ _______ _____ _____    ______ ____
ROOT
ATOM      1  C   UNL     1      -1.272  10.859  23.205  0.00  0.00    +0.000 C 
ATOM      2  C   UNL     1      -0.383  10.802  22.015  0.00  0.00    +0.000 A 
ATOM      3  N   UNL     1      -0.086   9.616  21.448  0.00  0.00    +0.000 NA
ATOM      4  N   UNL     1       0.815   9.913  20.472  0.00  0.00    +0.000 N 
ATOM      5  C   UNL     1       1.009  11.273  20.376  0.00  0.00    +0.000 A 
ATOM      6  C   UNL     1       0.222  11.882  21.327  0.00  0.00    +0.000 A 
ATOM      7  C   UNL     1       0.184  13.384  21.401  0.00  0.00    +0.000 C 
ATOM      8  C   UNL     1      -1.224  13.834  21.622  0.00  0.00    +0.000 A 
ATOM      9  C   UNL     1      -2.143  13.626  20.604  0.00  0.00    +0.000 A 
ATOM     10  C   UNL     1      -3.495  13.849  20.814  0.00  0.00    +0.000 A 
ATOM     11  C   UNL     1      -3.921  14.437  22.012  0.00  0.00    +0.000 A 
ATOM     12  C   UNL     1      -2.996  14.839  22.986  0.00  0.00    +0.000 A 
ATOM     13  C   UNL     1      -3.339  15.601  24.194  0.00  0.00    +0.000 A 
ATOM     14  C   UNL     1      -4.756  15.883  24.597  0.00  0.00    +0.000 C 
ATOM     15  C   UNL     1      -2.338  16.090  24.944  0.00  0.00    +0.000 A 
ATOM     16  C   UNL     1      -0.918  15.849  24.660  0.00  0.00    +0.000 A 
ATOM     17  O   UNL     1      -0.038  16.394  25.315  0.00  0.00    +0.000 OA
ATOM     18  O   UNL     1      -0.642  14.946  23.652  0.00  0.00    +0.000 OA
ATOM     19  C   UNL     1      -1.651  14.515  22.765  0.00  0.00    +0.000 A 
ATOM     20  O   UNL     1      -1.722  13.181  19.386  0.00  0.00    +0.000 OA
ATOM     21  C   UNL     1      -0.477  13.781  18.966  0.00  0.00    +0.000 C 
ATOM     22  C   UNL     1       0.650  13.951  20.041  0.00  0.00    +0.000 C 
ATOM     23  C   UNL     1       1.987  13.255  19.623  0.00  0.00    +0.000 C 
ATOM     24  C   UNL     1       2.537  13.792  18.293  0.00  0.00    +0.000 C 
ATOM     25  C   UNL     1       3.112  13.410  20.672  0.00  0.00    +0.000 C 
ATOM     26  O   UNL     1       1.763  11.847  19.432  0.00  0.00    +0.000 OA
ENDROOT
BRANCH   4  27
ATOM     27  C   UNL     1       1.424   8.933  19.641  0.00  0.00    +0.000 A 
ATOM     28  C   UNL     1       1.675   9.193  18.290  0.00  0.00    +0.000 A 
ATOM     29  C   UNL     1       2.450   8.288  17.549  0.00  0.00    +0.000 A 
ATOM     30  C   UNL     1       2.934   7.112  18.152  0.00  0.00    +0.000 A 
ATOM     31  C   UNL     1       2.624   6.818  19.480  0.00  0.00    +0.000 A 
ATOM     32  C   UNL     1       1.863   7.722  20.211  0.00  0.00    +0.000 A 
BRANCH  30  33
ATOM     33  N   UNL     1       3.789   6.188  17.405  0.00  0.00    +0.000 N 
ATOM     34  O   UNL     1       4.743   6.671  16.772  0.00  0.00    +0.000 OA
ATOM     35  O   UNL     1       3.514   4.979  17.442  0.00  0.00    +0.000 OA
ENDBRANCH  30  33
ENDBRANCH   4  27
TORSDOF 2
ENDMDL
MODEL 2
REMARK VINA RESULT:      -8.3      0.778      1.156
REMARK  Name = 
REMARK  6 active torsions:
REMARK  status: ('A' for Active; 'I' for Inactive)
REMARK    1  A    between atoms: C_1  and  C_2
REMARK    2  A    between atoms: N_4  and  C_5
REMARK    3  A    between atoms: C_8  and  N_9
REMARK    4  A    between atoms: C_22  and  C_23
REMARK    5  A    between atoms: C_32  and  C_33
REMARK    6  A    between atoms: C_32  and  C_34
REMARK                            x       y       z     vdW  Elec       q    Type
REMARK                         _______ _______ _______ _____ _____    ______ ____
ROOT
ATOM      1  C   UNL     1      -1.397  10.524  23.201  0.00  0.00    +0.000 C 
ATOM      2  C   UNL     1      -0.478  10.447  22.035  0.00  0.00    +0.000 A 
ATOM      3  N   UNL     1      -0.009   9.253  21.620  0.00  0.00    +0.000 NA
ATOM      4  N   UNL     1       0.869   9.552  20.624  0.00  0.00    +0.000 N 
ATOM      5  C   UNL     1       0.882  10.905  20.365  0.00  0.00    +0.000 A 
ATOM      6  C   UNL     1      -0.004  11.510  21.227  0.00  0.00    +0.000 A 
ATOM      7  C   UNL     1      -0.246  12.990  21.118  0.00  0.00    +0.000 C 
ATOM      8  C   UNL     1      -1.706  13.267  21.268  0.00  0.00    +0.000 A 
ATOM      9  C   UNL     1      -2.562  12.816  20.274  0.00  0.00    +0.000 A 
ATOM     10  C   UNL     1      -3.937  12.876  20.442  0.00  0.00    +0.000 A 
ATOM     11  C   UNL     1      -4.470  13.539  21.555  0.00  0.00    +0.000 A 
ATOM     12  C   UNL     1      -3.633  14.177  22.482  0.00  0.00    +0.000 A 
ATOM     13  C   UNL     1      -4.106  15.024  23.586  0.00  0.00    +0.000 A 
ATOM     14  C   UNL     1      -5.559  15.155  23.937  0.00  0.00    +0.000 C 
ATOM     15  C   UNL     1      -3.200  15.730  24.280  0.00  0.00    +0.000 A 
ATOM     16  C   UNL     1      -1.754  15.653  24.042  0.00  0.00    +0.000 A 
ATOM     17  O   UNL     1      -0.971  16.387  24.633  0.00  0.00    +0.000 OA
ATOM     18  O   UNL     1      -1.333  14.683  23.154  0.00  0.00    +0.000 OA
ATOM     19  C   UNL     1      -2.251  14.015  22.316  0.00  0.00    +0.000 A 
ATOM     20  O   UNL     1      -2.053  12.291  19.123  0.00  0.00    +0.000 OA
ATOM     21  C   UNL     1      -0.890  13.001  18.646  0.00  0.00    +0.000 C 
ATOM     22  C   UNL     1       0.175  13.449  19.703  0.00  0.00    +0.000 C 
ATOM     23  C   UNL     1       1.605  12.898  19.387  0.00  0.00    +0.000 C 
ATOM     24  C   UNL     1       2.112  13.342  18.007  0.00  0.00    +0.000 C 
ATOM     25  C   UNL     1       2.671  13.328  20.420  0.00  0.00    +0.000 C 
ATOM     26  O   UNL     1       1.577  11.459  19.365  0.00  0.00    +0.000 OA
ENDROOT
BRANCH   4  27
ATOM     27  C   UNL     1       1.626   8.571  19.924  0.00  0.00    +0.000 A 
ATOM     28  C   UNL     1       1.975   7.364  20.536  0.00  0.00    +0.000 A 
ATOM     29  C   UNL     1       2.547   6.342  19.762  0.00  0.00    +0.000 A 
ATOM     30  C   UNL     1       2.801   6.550  18.394  0.00  0.00    +0.000 A 
ATOM     31  C   UNL     1       2.517   7.780  17.799  0.00  0.00    +0.000 A 
ATOM     32  C   UNL     1       1.944   8.785  18.569  0.00  0.00    +0.000 A 
BRANCH  30  33
ATOM     33  N   UNL     1       3.345   5.474  17.564  0.00  0.00    +0.000 N 
ATOM     34  O   UNL     1       4.304   5.747  16.822  0.00  0.00    +0.000 OA
ATOM     35  O   UNL     1       2.820   4.352  17.643  0.00  0.00    +0.000 OA
ENDBRANCH  30  33
ENDBRANCH   4  27
TORSDOF 2
ENDMDL
MODEL 3
REMARK VINA RESULT:      -8.2      3.465      5.781
REMARK  Name = 
REMARK  6 active torsions:
REMARK  status: ('A' for Active; 'I' for Inactive)
REMARK    1  A    between atoms: C_1  and  C_2
REMARK    2  A    between atoms: N_4  and  C_5
REMARK    3  A    between atoms: C_8  and  N_9
REMARK    4  A    between atoms: C_22  and  C_23
REMARK    5  A    between atoms: C_32  and  C_33
REMARK    6  A    between atoms: C_32  and  C_34
REMARK                            x       y       z     vdW  Elec       q    Type
REMARK                         _______ _______ _______ _____ _____    ______ ____
ROOT
ATOM      1  C   UNL     1      -2.692  15.825  20.798  0.00  0.00    +0.000 C 
ATOM      2  C   UNL     1      -1.458  15.050  20.505  0.00  0.00    +0.000 A 
ATOM      3  N   UNL     1      -0.292  15.690  20.284  0.00  0.00    +0.000 NA
ATOM      4  N   UNL     1       0.586  14.707  19.948  0.00  0.00    +0.000 N 
ATOM      5  C   UNL     1      -0.001  13.465  20.043  0.00  0.00    +0.000 A 
ATOM      6  C   UNL     1      -1.307  13.643  20.439  0.00  0.00    +0.000 A 
ATOM      7  C   UNL     1      -2.172  12.439  20.692  0.00  0.00    +0.000 C 
ATOM      8  C   UNL     1      -2.986  12.663  21.925  0.00  0.00    +0.000 A 
ATOM      9  C   UNL     1      -2.323  12.734  23.141  0.00  0.00    +0.000 A 
ATOM     10  C   UNL     1      -2.993  13.122  24.291  0.00  0.00    +0.000 A 
ATOM     11  C   UNL     1      -4.383  13.293  24.258  0.00  0.00    +0.000 A 
ATOM     12  C   UNL     1      -5.111  13.039  23.087  0.00  0.00    +0.000 A 
ATOM     13  C   UNL     1      -6.579  13.039  23.005  0.00  0.00    +0.000 A 
ATOM     14  C   UNL     1      -7.452  13.484  24.141  0.00  0.00    +0.000 C 
ATOM     15  C   UNL     1      -7.152  12.591  21.877  0.00  0.00    +0.000 A 
ATOM     16  C   UNL     1      -6.396  12.163  20.695  0.00  0.00    +0.000 A 
ATOM     17  O   UNL     1      -6.957  11.670  19.724  0.00  0.00    +0.000 OA
ATOM     18  O   UNL     1      -5.033  12.388  20.728  0.00  0.00    +0.000 OA
ATOM     19  C   UNL     1      -4.382  12.733  21.931  0.00  0.00    +0.000 A 
ATOM     20  O   UNL     1      -0.994  12.438  23.211  0.00  0.00    +0.000 OA
ATOM     21  C   UNL     1      -0.623  11.314  22.383  0.00  0.00    +0.000 C 
ATOM     22  C   UNL     1      -1.252  11.224  20.951  0.00  0.00    +0.000 C 
ATOM     23  C   UNL     1      -0.171  11.147  19.824  0.00  0.00    +0.000 C 
ATOM     24  C   UNL     1       0.765   9.940  19.991  0.00  0.00    +0.000 C 
ATOM     25  C   UNL     1      -0.771  11.059  18.402  0.00  0.00    +0.000 C 
ATOM     26  O   UNL     1       0.664  12.317  19.870  0.00  0.00    +0.000 OA
ENDROOT
BRANCH   4  27
ATOM     27  C   UNL     1       1.943  14.953  19.597  0.00  0.00    +0.000 A 
ATOM     28  C   UNL     1       2.961  14.847  20.550  0.00  0.00    +0.000 A 
ATOM     29  C   UNL     1       4.300  14.901  20.133  0.00  0.00    +0.000 A 
ATOM     30  C   UNL     1       4.610  15.099  18.775  0.00  0.00    +0.000 A 
ATOM     31  C   UNL     1       3.595  15.275  17.835  0.00  0.00    +0.000 A 
ATOM     32  C   UNL     1       2.271  15.213  18.252  0.00  0.00    +0.000 A 
BRANCH  30  33
ATOM     33  N   UNL     1       6.002  15.102  18.321  0.00  0.00    +0.000 N 
ATOM     34  O   UNL     1       6.384  14.140  17.632  0.00  0.00    +0.000 OA
ATOM     35  O   UNL     1       6.722  16.058  18.649  0.00  0.00    +0.000 OA
ENDBRANCH  30  33
ENDBRANCH   4  27
TORSDOF 2
ENDMDL
MODEL 4
REMARK VINA RESULT:      -8.2      3.535      6.080
REMARK  Name = 
REMARK  6 active torsions:
REMARK  status: ('A' for Active; 'I' for Inactive)
REMARK    1  A    between atoms: C_1  and  C_2
REMARK    2  A    between atoms: N_4  and  C_5
REMARK    3  A    between atoms: C_8  and  N_9
REMARK    4  A    between atoms: C_22  and  C_23
REMARK    5  A    between atoms: C_32  and  C_33
REMARK    6  A    between atoms: C_32  and  C_34
REMARK                            x       y       z     vdW  Elec       q    Type
REMARK                         _______ _______ _______ _____ _____    ______ ____
ROOT
ATOM      1  C   UNL     1      -2.832  15.862  20.784  0.00  0.00    +0.000 C 
ATOM      2  C   UNL     1      -1.575  15.117  20.514  0.00  0.00    +0.000 A 
ATOM      3  N   UNL     1      -0.422  15.786  20.306  0.00  0.00    +0.000 NA
ATOM      4  N   UNL     1       0.486  14.824  19.989  0.00  0.00    +0.000 N 
ATOM      5  C   UNL     1      -0.071  13.568  20.083  0.00  0.00    +0.000 A 
ATOM      6  C   UNL     1      -1.387  13.714  20.459  0.00  0.00    +0.000 A 
ATOM      7  C   UNL     1      -2.225  12.490  20.706  0.00  0.00    +0.000 C 
ATOM      8  C   UNL     1      -3.062  12.700  21.926  0.00  0.00    +0.000 A 
ATOM      9  C   UNL     1      -2.419  12.795  23.151  0.00  0.00    +0.000 A 
ATOM     10  C   UNL     1      -3.115  13.173  24.289  0.00  0.00    +0.000 A 
ATOM     11  C   UNL     1      -4.509  13.308  24.234  0.00  0.00    +0.000 A 
ATOM     12  C   UNL     1      -5.213  13.029  23.055  0.00  0.00    +0.000 A 
ATOM     13  C   UNL     1      -6.679  12.991  22.951  0.00  0.00    +0.000 A 
ATOM     14  C   UNL     1      -7.579  13.420  24.071  0.00  0.00    +0.000 C 
ATOM     15  C   UNL     1      -7.224  12.522  21.817  0.00  0.00    +0.000 A 
ATOM     16  C   UNL     1      -6.440  12.106  20.649  0.00  0.00    +0.000 A 
ATOM     17  O   UNL     1      -6.974  11.594  19.673  0.00  0.00    +0.000 OA
ATOM     18  O   UNL     1      -5.084  12.366  20.701  0.00  0.00    +0.000 OA
ATOM     19  C   UNL     1      -4.460  12.734  21.911  0.00  0.00    +0.000 A 
ATOM     20  O   UNL     1      -1.084  12.533  23.242  0.00  0.00    +0.000 OA
ATOM     21  C   UNL     1      -0.672  11.415  22.426  0.00  0.00    +0.000 C 
ATOM     22  C   UNL     1      -1.278  11.301  20.986  0.00  0.00    +0.000 C 
ATOM     23  C   UNL     1      -0.179  11.244  19.875  0.00  0.00    +0.000 C 
ATOM     24  C   UNL     1       0.785  10.063  20.062  0.00  0.00    +0.000 C 
ATOM     25  C   UNL     1      -0.756  11.133  18.446  0.00  0.00    +0.000 C 
ATOM     26  O   UNL     1       0.625  12.436  19.926  0.00  0.00    +0.000 OA
ENDROOT
BRANCH   4  27
ATOM     27  C   UNL     1       1.841  15.102  19.656  0.00  0.00    +0.000 A 
ATOM     28  C   UNL     1       2.214  15.370  18.336  0.00  0.00    +0.000 A 
ATOM     29  C   UNL     1       3.513  15.832  18.070  0.00  0.00    +0.000 A 
ATOM     30  C   UNL     1       4.438  15.983  19.120  0.00  0.00    +0.000 A 
ATOM     31  C   UNL     1       4.086  15.648  20.428  0.00  0.00    +0.000 A 
ATOM     32  C   UNL     1       2.797  15.199  20.686  0.00  0.00    +0.000 A 
BRANCH  30  33
ATOM     33  N   UNL     1       5.777  16.516  18.864  0.00  0.00    +0.000 N 
ATOM     34  O   UNL     1       5.936  17.745  18.962  0.00  0.00    +0.000 OA
ATOM     35  O   UNL     1       6.676  15.716  18.560  0.00  0.00    +0.000 OA
ENDBRANCH  30  33
ENDBRANCH   4  27
TORSDOF 2
ENDMDL
MODEL 5
REMARK VINA RESULT:      -7.5      3.940      7.785
REMARK  Name = 
REMARK  6 active torsions:
REMARK  status: ('A' for Active; 'I' for Inactive)
REMARK    1  A    between atoms: C_1  and  C_2
REMARK    2  A    between atoms: N_4  and  C_5
REMARK    3  A    between atoms: C_8  and  N_9
REMARK    4  A    between atoms: C_22  and  C_23
REMARK    5  A    between atoms: C_32  and  C_33
REMARK    6  A    between atoms: C_32  and  C_34
REMARK                            x       y       z     vdW  Elec       q    Type
REMARK                         _______ _______ _______ _____ _____    ______ ____
ROOT
ATOM      1  C   UNL     1       0.718  16.034  22.927  0.00  0.00    +0.000 C 
ATOM      2  C   UNL     1      -0.163  14.875  22.629  0.00  0.00    +0.000 A 
ATOM      3  N   UNL     1      -1.452  14.885  23.023  0.00  0.00    +0.000 NA
ATOM      4  N   UNL     1      -1.927  13.654  22.691  0.00  0.00    +0.000 N 
ATOM      5  C   UNL     1      -0.973  12.920  22.022  0.00  0.00    +0.000 A 
ATOM      6  C   UNL     1       0.164  13.689  21.927  0.00  0.00    +0.000 A 
ATOM      7  C   UNL     1       1.353  13.157  21.175  0.00  0.00    +0.000 C 
ATOM      8  C   UNL     1       1.944  14.250  20.345  0.00  0.00    +0.000 A 
ATOM      9  C   UNL     1       1.197  14.740  19.283  0.00  0.00    +0.000 A 
ATOM     10  C   UNL     1       1.605  15.871  18.593  0.00  0.00    +0.000 A 
ATOM     11  C   UNL     1       2.859  16.433  18.865  0.00  0.00    +0.000 A 
ATOM     12  C   UNL     1       3.724  15.845  19.799  0.00  0.00    +0.000 A 
ATOM     13  C   UNL     1       5.111  16.272  20.031  0.00  0.00    +0.000 A 
ATOM     14  C   UNL     1       5.693  17.505  19.405  0.00  0.00    +0.000 C 
ATOM     15  C   UNL     1       5.891  15.505  20.810  0.00  0.00    +0.000 A 
ATOM     16  C   UNL     1       5.417  14.297  21.496  0.00  0.00    +0.000 A 
ATOM     17  O   UNL     1       6.187  13.575  22.117  0.00  0.00    +0.000 OA
ATOM     18  O   UNL     1       4.059  14.054  21.435  0.00  0.00    +0.000 OA
ATOM     19  C   UNL     1       3.234  14.756  20.531  0.00  0.00    +0.000 A 
ATOM     20  O   UNL     1       0.039  14.119  18.921  0.00  0.00    +0.000 OA
ATOM     21  C   UNL     1       0.127  12.679  18.986  0.00  0.00    +0.000 C 
ATOM     22  C   UNL     1       0.866  12.049  20.215  0.00  0.00    +0.000 C 
ATOM     23  C   UNL     1      -0.033  11.041  21.004  0.00  0.00    +0.000 C 
ATOM     24  C   UNL     1      -0.529   9.884  20.124  0.00  0.00    +0.000 C 
ATOM     25  C   UNL     1       0.678  10.408  22.222  0.00  0.00    +0.000 C 
ATOM     26  O   UNL     1      -1.207  11.715  21.489  0.00  0.00    +0.000 OA
ENDROOT
BRANCH   4  27
ATOM     27  C   UNL     1      -3.256  13.225  22.966  0.00  0.00    +0.000 A 
ATOM     28  C   UNL     1      -3.578  12.627  24.188  0.00  0.00    +0.000 A 
ATOM     29  C   UNL     1      -4.926  12.396  24.505  0.00  0.00    +0.000 A 
ATOM     30  C   UNL     1      -5.935  12.727  23.582  0.00  0.00    +0.000 A 
ATOM     31  C   UNL     1      -5.609  13.258  22.335  0.00  0.00    +0.000 A 
ATOM     32  C   UNL     1      -4.273  13.492  22.030  0.00  0.00    +0.000 A 
BRANCH  30  33
ATOM     33  N   UNL     1      -7.347  12.542  23.924  0.00  0.00    +0.000 N 
ATOM     34  O   UNL     1      -7.916  11.527  23.488  0.00  0.00    +0.000 OA
ATOM     35  O   UNL     1      -7.897  13.407  24.624  0.00  0.00    +0.000 OA
ENDBRANCH  30  33
ENDBRANCH   4  27
TORSDOF 2
ENDMDL
MODEL 6
REMARK VINA RESULT:      -7.3      3.353      5.853
REMARK  Name = 
REMARK  6 active torsions:
REMARK  status: ('A' for Active; 'I' for Inactive)
REMARK    1  A    between atoms: C_1  and  C_2
REMARK    2  A    between atoms: N_4  and  C_5
REMARK    3  A    between atoms: C_8  and  N_9
REMARK    4  A    between atoms: C_22  and  C_23
REMARK    5  A    between atoms: C_32  and  C_33
REMARK    6  A    between atoms: C_32  and  C_34
REMARK                            x       y       z     vdW  Elec       q    Type
REMARK                         _______ _______ _______ _____ _____    ______ ____
ROOT
ATOM      1  C   UNL     1      -1.856  15.667  20.492  0.00  0.00    +0.000 C 
ATOM      2  C   UNL     1      -0.663  14.782  20.505  0.00  0.00    +0.000 A 
ATOM      3  N   UNL     1       0.575  15.313  20.563  0.00  0.00    +0.000 NA
ATOM      4  N   UNL     1       1.416  14.250  20.451  0.00  0.00    +0.000 N 
ATOM      5  C   UNL     1       0.714  13.066  20.410  0.00  0.00    +0.000 A 
ATOM      6  C   UNL     1      -0.627  13.366  20.484  0.00  0.00    +0.000 A 
ATOM      7  C   UNL     1      -1.632  12.247  20.531  0.00  0.00    +0.000 C 
ATOM      8  C   UNL     1      -2.690  12.573  21.534  0.00  0.00    +0.000 A 
ATOM      9  C   UNL     1      -2.329  12.619  22.873  0.00  0.00    +0.000 A 
ATOM     10  C   UNL     1      -3.214  13.094  23.829  0.00  0.00    +0.000 A 
ATOM     11  C   UNL     1      -4.536  13.382  23.466  0.00  0.00    +0.000 A 
ATOM     12  C   UNL     1      -4.987  13.161  22.157  0.00  0.00    +0.000 A 
ATOM     13  C   UNL     1      -6.388  13.285  21.729  0.00  0.00    +0.000 A 
ATOM     14  C   UNL     1      -7.461  13.833  22.622  0.00  0.00    +0.000 C 
ATOM     15  C   UNL     1      -6.717  12.858  20.499  0.00  0.00    +0.000 A 
ATOM     16  C   UNL     1      -5.744  12.335  19.533  0.00  0.00    +0.000 A 
ATOM     17  O   UNL     1      -6.103  11.867  18.459  0.00  0.00    +0.000 OA
ATOM     18  O   UNL     1      -4.414  12.443  19.887  0.00  0.00    +0.000 OA
ATOM     19  C   UNL     1      -4.036  12.763  21.208  0.00  0.00    +0.000 A 
ATOM     20  O   UNL     1      -1.086  12.212  23.258  0.00  0.00    +0.000 OA
ATOM     21  C   UNL     1      -0.632  11.040  22.547  0.00  0.00    +0.000 C 
ATOM     22  C   UNL     1      -0.912  10.966  21.008  0.00  0.00    +0.000 C 
ATOM     23  C   UNL     1       0.394  10.766  20.170  0.00  0.00    +0.000 C 
ATOM     24  C   UNL     1       1.152   9.488  20.560  0.00  0.00    +0.000 C 
ATOM     25  C   UNL     1       0.140  10.692  18.647  0.00  0.00    +0.000 C 
ATOM     26  O   UNL     1       1.296  11.861  20.406  0.00  0.00    +0.000 OA
ENDROOT
BRANCH   4  27
ATOM     27  C   UNL     1       2.834  14.369  20.430  0.00  0.00    +0.000 A 
ATOM     28  C   UNL     1       3.509  14.698  19.251  0.00  0.00    +0.000 A 
ATOM     29  C   UNL     1       4.879  15.000  19.306  0.00  0.00    +0.000 A 
ATOM     30  C   UNL     1       5.569  14.932  20.530  0.00  0.00    +0.000 A 
ATOM     31  C   UNL     1       4.910  14.535  21.694  0.00  0.00    +0.000 A 
ATOM     32  C   UNL     1       3.553  14.246  21.635  0.00  0.00    +0.000 A 
BRANCH  30  33
ATOM     33  N   UNL     1       6.985  15.298  20.609  0.00  0.00    +0.000 N 
ATOM     34  O   UNL     1       7.270  16.375  21.159  0.00  0.00    +0.000 OA
ATOM     35  O   UNL     1       7.818  14.518  20.122  0.00  0.00    +0.000 OA
ENDBRANCH  30  33
ENDBRANCH   4  27
TORSDOF 2
ENDMDL
MODEL 7
REMARK VINA RESULT:      -7.3      4.512      8.356
REMARK  Name = 
REMARK  6 active torsions:
REMARK  status: ('A' for Active; 'I' for Inactive)
REMARK    1  A    between atoms: C_1  and  C_2
REMARK    2  A    between atoms: N_4  and  C_5
REMARK    3  A    between atoms: C_8  and  N_9
REMARK    4  A    between atoms: C_22  and  C_23
REMARK    5  A    between atoms: C_32  and  C_33
REMARK    6  A    between atoms: C_32  and  C_34
REMARK                            x       y       z     vdW  Elec       q    Type
REMARK                         _______ _______ _______ _____ _____    ______ ____
ROOT
ATOM      1  C   UNL     1      -0.032  13.021  19.023  0.00  0.00    +0.000 C 
ATOM      2  C   UNL     1      -0.918  13.738  19.977  0.00  0.00    +0.000 A 
ATOM      3  N   UNL     1      -1.959  13.098  20.546  0.00  0.00    +0.000 NA
ATOM      4  N   UNL     1      -2.606  14.057  21.263  0.00  0.00    +0.000 N 
ATOM      5  C   UNL     1      -1.929  15.255  21.211  0.00  0.00    +0.000 A 
ATOM      6  C   UNL     1      -0.813  15.078  20.425  0.00  0.00    +0.000 A 
ATOM      7  C   UNL     1       0.155  16.215  20.250  0.00  0.00    +0.000 C 
ATOM      8  C   UNL     1       1.553  15.693  20.328  0.00  0.00    +0.000 A 
ATOM      9  C   UNL     1       1.997  15.192  21.543  0.00  0.00    +0.000 A 
ATOM     10  C   UNL     1       3.210  14.527  21.634  0.00  0.00    +0.000 A 
ATOM     11  C   UNL     1       4.067  14.497  20.527  0.00  0.00    +0.000 A 
ATOM     12  C   UNL     1       3.733  15.162  19.339  0.00  0.00    +0.000 A 
ATOM     13  C   UNL     1       4.635  15.315  18.189  0.00  0.00    +0.000 A 
ATOM     14  C   UNL     1       5.961  14.619  18.104  0.00  0.00    +0.000 C 
ATOM     15  C   UNL     1       4.264  16.138  17.195  0.00  0.00    +0.000 A 
ATOM     16  C   UNL     1       2.978  16.843  17.160  0.00  0.00    +0.000 A 
ATOM     17  O   UNL     1       2.723  17.658  16.282  0.00  0.00    +0.000 OA
ATOM     18  O   UNL     1       2.068  16.501  18.141  0.00  0.00    +0.000 OA
ATOM     19  C   UNL     1       2.461  15.746  19.266  0.00  0.00    +0.000 A 
ATOM     20  O   UNL     1       1.229  15.336  22.661  0.00  0.00    +0.000 OA
ATOM     21  C   UNL     1       0.579  16.623  22.736  0.00  0.00    +0.000 C 
ATOM     22  C   UNL     1      -0.041  17.205  21.421  0.00  0.00    +0.000 C 
ATOM     23  C   UNL     1      -1.564  17.533  21.569  0.00  0.00    +0.000 C 
ATOM     24  C   UNL     1      -1.840  18.543  22.693  0.00  0.00    +0.000 C 
ATOM     25  C   UNL     1      -2.195  18.108  20.281  0.00  0.00    +0.000 C 
ATOM     26  O   UNL     1      -2.287  16.338  21.911  0.00  0.00    +0.000 OA
ENDROOT
BRANCH   4  27
ATOM     27  C   UNL     1      -3.798  13.815  22.002  0.00  0.00    +0.000 A 
ATOM     28  C   UNL     1      -5.053  14.054  21.436  0.00  0.00    +0.000 A 
ATOM     29  C   UNL     1      -6.205  13.622  22.113  0.00  0.00    +0.000 A 
ATOM     30  C   UNL     1      -6.094  12.992  23.366  0.00  0.00    +0.000 A 
ATOM     31  C   UNL     1      -4.845  12.817  23.963  0.00  0.00    +0.000 A 
ATOM     32  C   UNL     1      -3.708  13.240  23.284  0.00  0.00    +0.000 A 
BRANCH  30  33
ATOM     33  N   UNL     1      -7.283  12.488  24.056  0.00  0.00    +0.000 N 
ATOM     34  O   UNL     1      -7.916  13.285  24.768  0.00  0.00    +0.000 OA
ATOM     35  O   UNL     1      -7.590  11.296  23.895  0.00  0.00    +0.000 OA
ENDBRANCH  30  33
ENDBRANCH   4  27
TORSDOF 2
ENDMDL
MODEL 8
REMARK VINA RESULT:      -7.2      3.967      7.647
REMARK  Name = 
REMARK  6 active torsions:
REMARK  status: ('A' for Active; 'I' for Inactive)
REMARK    1  A    between atoms: C_1  and  C_2
REMARK    2  A    between atoms: N_4  and  C_5
REMARK    3  A    between atoms: C_8  and  N_9
REMARK    4  A    between atoms: C_22  and  C_23
REMARK    5  A    between atoms: C_32  and  C_33
REMARK    6  A    between atoms: C_32  and  C_34
REMARK                            x       y       z     vdW  Elec       q    Type
REMARK                         _______ _______ _______ _____ _____    ______ ____
ROOT
ATOM      1  C   UNL     1       0.787  16.161  22.937  0.00  0.00    +0.000 C 
ATOM      2  C   UNL     1      -0.144  15.083  22.515  0.00  0.00    +0.000 A 
ATOM      3  N   UNL     1      -1.462  15.182  22.784  0.00  0.00    +0.000 NA
ATOM      4  N   UNL     1      -1.992  14.001  22.364  0.00  0.00    +0.000 N 
ATOM      5  C   UNL     1      -1.034  13.215  21.763  0.00  0.00    +0.000 A 
ATOM      6  C   UNL     1       0.161  13.896  21.804  0.00  0.00    +0.000 A 
ATOM      7  C   UNL     1       1.375  13.296  21.151  0.00  0.00    +0.000 C 
ATOM      8  C   UNL     1       2.124  14.363  20.420  0.00  0.00    +0.000 A 
ATOM      9  C   UNL     1       1.522  14.940  19.311  0.00  0.00    +0.000 A 
ATOM     10  C   UNL     1       2.078  16.056  18.704  0.00  0.00    +0.000 A 
ATOM     11  C   UNL     1       3.338  16.511  19.114  0.00  0.00    +0.000 A 
ATOM     12  C   UNL     1       4.062  15.831  20.104  0.00  0.00    +0.000 A 
ATOM     13  C   UNL     1       5.447  16.142  20.483  0.00  0.00    +0.000 A 
ATOM     14  C   UNL     1       6.177  17.344  19.960  0.00  0.00    +0.000 C 
ATOM     15  C   UNL     1       6.088  15.295  21.304  0.00  0.00    +0.000 A 
ATOM     16  C   UNL     1       5.461  14.108  21.898  0.00  0.00    +0.000 A 
ATOM     17  O   UNL     1       6.111  13.311  22.563  0.00  0.00    +0.000 OA
ATOM     18  O   UNL     1       4.101  13.973  21.699  0.00  0.00    +0.000 OA
ATOM     19  C   UNL     1       3.423  14.762  20.747  0.00  0.00    +0.000 A 
ATOM     20  O   UNL     1       0.362  14.421  18.818  0.00  0.00    +0.000 OA
ATOM     21  C   UNL     1       0.337  12.977  18.839  0.00  0.00    +0.000 C 
ATOM     22  C   UNL     1       0.903  12.257  20.109  0.00  0.00    +0.000 C 
ATOM     23  C   UNL     1      -0.141  11.299  20.772  0.00  0.00    +0.000 C 
ATOM     24  C   UNL     1      -0.634  10.210  19.807  0.00  0.00    +0.000 C 
ATOM     25  C   UNL     1       0.399  10.579  22.029  0.00  0.00    +0.000 C 
ATOM     26  O   UNL     1      -1.304  12.048  21.167  0.00  0.00    +0.000 OA
ENDROOT
BRANCH   4  27
ATOM     27  C   UNL     1      -3.369  13.668  22.495  0.00  0.00    +0.000 A 
ATOM     28  C   UNL     1      -4.183  13.528  21.367  0.00  0.00    +0.000 A 
ATOM     29  C   UNL     1      -5.479  13.009  21.517  0.00  0.00    +0.000 A 
ATOM     30  C   UNL     1      -5.963  12.673  22.794  0.00  0.00    +0.000 A 
ATOM     31  C   UNL     1      -5.176  12.879  23.927  0.00  0.00    +0.000 A 
ATOM     32  C   UNL     1      -3.891  13.385  23.772  0.00  0.00    +0.000 A 
BRANCH  30  33
ATOM     33  N   UNL     1      -7.292  12.079  22.957  0.00  0.00    +0.000 N 
ATOM     34  O   UNL     1      -7.908  12.326  24.007  0.00  0.00    +0.000 OA
ATOM     35  O   UNL     1      -7.727  11.363  22.042  0.00  0.00    +0.000 OA
ENDBRANCH  30  33
ENDBRANCH   4  27
TORSDOF 2
ENDMDL
MODEL 9
REMARK VINA RESULT:      -7.1      4.270      8.195
REMARK  Name = 
REMARK  6 active torsions:
REMARK  status: ('A' for Active; 'I' for Inactive)
REMARK    1  A    between atoms: C_1  and  C_2
REMARK    2  A    between atoms: N_4  and  C_5
REMARK    3  A    between atoms: C_8  and  N_9
REMARK    4  A    between atoms: C_22  and  C_23
REMARK    5  A    between atoms: C_32  and  C_33
REMARK    6  A    between atoms: C_32  and  C_34
REMARK                            x       y       z     vdW  Elec       q    Type
REMARK                         _______ _______ _______ _____ _____    ______ ____
ROOT
ATOM      1  C   UNL     1       0.707  12.690  19.860  0.00  0.00    +0.000 C 
ATOM      2  C   UNL     1      -0.447  13.316  20.556  0.00  0.00    +0.000 A 
ATOM      3  N   UNL     1      -1.407  12.544  21.104  0.00  0.00    +0.000 NA
ATOM      4  N   UNL     1      -2.344  13.422  21.554  0.00  0.00    +0.000 N 
ATOM      5  C   UNL     1      -1.934  14.723  21.366  0.00  0.00    +0.000 A 
ATOM      6  C   UNL     1      -0.697  14.695  20.763  0.00  0.00    +0.000 A 
ATOM      7  C   UNL     1       0.026  15.988  20.501  0.00  0.00    +0.000 C 
ATOM      8  C   UNL     1       1.472  15.823  20.836  0.00  0.00    +0.000 A 
ATOM      9  C   UNL     1       1.816  15.628  22.166  0.00  0.00    +0.000 A 
ATOM     10  C   UNL     1       3.113  15.285  22.519  0.00  0.00    +0.000 A 
ATOM     11  C   UNL     1       4.119  15.290  21.545  0.00  0.00    +0.000 A 
ATOM     12  C   UNL     1       3.842  15.673  20.225  0.00  0.00    +0.000 A 
ATOM     13  C   UNL     1       4.860  15.857  19.181  0.00  0.00    +0.000 A 
ATOM     14  C   UNL     1       6.299  15.485  19.381  0.00  0.00    +0.000 C 
ATOM     15  C   UNL     1       4.485  16.412  18.017  0.00  0.00    +0.000 A 
ATOM     16  C   UNL     1       3.101  16.785  17.704  0.00  0.00    +0.000 A 
ATOM     17  O   UNL     1       2.820  17.377  16.668  0.00  0.00    +0.000 OA
ATOM     18  O   UNL     1       2.141  16.391  18.616  0.00  0.00    +0.000 OA
ATOM     19  C   UNL     1       2.503  15.927  19.898  0.00  0.00    +0.000 A 
ATOM     20  O   UNL     1       0.871  15.754  23.140  0.00  0.00    +0.000 OA
ATOM     21  C   UNL     1      -0.038  16.851  22.904  0.00  0.00    +0.000 C 
ATOM     22  C   UNL     1      -0.554  17.068  21.441  0.00  0.00    +0.000 C 
ATOM     23  C   UNL     1      -2.115  17.051  21.346  0.00  0.00    +0.000 C 
ATOM     24  C   UNL     1      -2.769  18.126  22.228  0.00  0.00    +0.000 C 
ATOM     25  C   UNL     1      -2.645  17.263  19.909  0.00  0.00    +0.000 C 
ATOM     26  O   UNL     1      -2.616  15.785  21.811  0.00  0.00    +0.000 OA
ENDROOT
BRANCH   4  27
ATOM     27  C   UNL     1      -3.559  13.023  22.178  0.00  0.00    +0.000 A 
ATOM     28  C   UNL     1      -3.636  12.871  23.566  0.00  0.00    +0.000 A 
ATOM     29  C   UNL     1      -4.889  12.671  24.167  0.00  0.00    +0.000 A 
ATOM     30  C   UNL     1      -6.047  12.583  23.372  0.00  0.00    +0.000 A 
ATOM     31  C   UNL     1      -5.961  12.663  21.983  0.00  0.00    +0.000 A 
ATOM     32  C   UNL     1      -4.719  12.870  21.394  0.00  0.00    +0.000 A 
BRANCH  30  33
ATOM     33  N   UNL     1      -7.365  12.429  23.991  0.00  0.00    +0.000 N 
ATOM     34  O   UNL     1      -7.916  11.319  23.902  0.00  0.00    +0.000 OA
ATOM     35  O   UNL     1      -7.860  13.412  24.564  0.00  0.00    +0.000 OA
ENDBRANCH  30  33
ENDBRANCH   4  27
TORSDOF 2
ENDMDL
