MODEL 1
REMARK VINA RESULT:      -9.4      0.000      0.000
REMARK  Name = 
REMARK  6 active torsions:
REMARK  status: ('A' for Active; 'I' for Inactive)
REMARK    1  A    between atoms: C_1  and  N_2
REMARK    2  A    between atoms: C_4  and  C_5
REMARK    3  A    between atoms: C_6  and  C_7
REMARK    4  A    between atoms: N_9  and  C_10
REMARK    5  A    between atoms: C_10  and  C_11
REMARK    6  A    between atoms: C_11  and  N_12
REMARK                            x       y       z     vdW  Elec       q    Type
REMARK                         _______ _______ _______ _____ _____    ______ ____
ROOT
ATOM      1  C   UNL     1       3.598   3.389  18.810  0.00  0.00    +0.000 C 
ATOM      2  C   UNL     1       2.481   3.933  19.309  0.00  0.00    +0.000 C 
ATOM      3  C   UNL     1       1.476   2.852  19.422  0.00  0.00    +0.000 C 
ATOM      4  O   UNL     1       0.338   2.956  19.842  0.00  0.00    +0.000 OA
ATOM      5  N   UNL     1       2.061   1.718  18.987  0.00  0.00    +0.000 N 
ATOM      6  C   UNL     1       3.329   1.955  18.586  0.00  0.00    +0.000 C 
ATOM      7  O   UNL     1       4.102   1.129  18.135  0.00  0.00    +0.000 OA
ATOM      8  H   UNL     1       1.604   0.824  18.939  0.00  0.00    +0.000 HD
ENDROOT
BRANCH   1  12
ATOM      9  C   UNL     1       7.794   5.651  19.365  0.00  0.00    +0.000 C 
ATOM     10  N   UNL     1       6.696   4.989  18.706  0.00  0.00    +0.000 N 
ATOM     11  N   UNL     1       5.672   4.483  19.427  0.00  0.00    +0.000 NA
ATOM     12  C   UNL     1       4.835   3.998  18.498  0.00  0.00    +0.000 A 
ATOM     13  C   UNL     1       5.350   4.161  17.181  0.00  0.00    +0.000 A 
ATOM     14  C   UNL     1       4.962   3.852  15.868  0.00  0.00    +0.000 A 
ATOM     15  C   UNL     1       5.820   4.235  14.836  0.00  0.00    +0.000 A 
ATOM     16  C   UNL     1       7.004   4.891  15.150  0.00  0.00    +0.000 A 
ATOM     17  N   UNL     1       7.428   5.201  16.397  0.00  0.00    +0.000 NA
ATOM     18  C   UNL     1       6.562   4.813  17.357  0.00  0.00    +0.000 A 
ENDBRANCH   1  12
BRANCH   2  19
ATOM     19  C   UNL     1       2.218   5.280  19.650  0.00  0.00    +0.000 A 
ATOM     20  C   UNL     1       1.683   5.702  20.843  0.00  0.00    +0.000 A 
ATOM     21  N   UNL     1       1.569   7.071  20.798  0.00  0.00    +0.000 N 
ATOM     22  C   UNL     1       2.001   7.535  19.564  0.00  0.00    +0.000 A 
ATOM     23  C   UNL     1       2.047   8.830  19.018  0.00  0.00    +0.000 A 
ATOM     24  C   UNL     1       2.544   8.983  17.717  0.00  0.00    +0.000 A 
ATOM     25  C   UNL     1       2.984   7.889  16.982  0.00  0.00    +0.000 A 
ATOM     26  C   UNL     1       2.932   6.605  17.527  0.00  0.00    +0.000 A 
ATOM     27  C   UNL     1       2.428   6.420  18.832  0.00  0.00    +0.000 A 
BRANCH  21  28
ATOM     28  C   UNL     1       1.016   7.909  21.859  0.00  0.00    +0.000 C 
BRANCH  28  29
ATOM     29  C   UNL     1      -0.309   8.577  21.498  0.00  0.00    +0.000 C 
BRANCH  29  30
ATOM     30  N   UNL     1      -0.378   9.969  21.890  0.00  0.00    +0.000 N 
ATOM     31  C   UNL     1      -0.202  11.043  21.062  0.00  0.00    +0.000 A 
ATOM     32  C   UNL     1      -0.499  12.139  21.838  0.00  0.00    +0.000 A 
ATOM     33  N   UNL     1      -0.837  11.756  23.109  0.00  0.00    +0.000 NA
ATOM     34  C   UNL     1      -0.764  10.444  23.110  0.00  0.00    +0.000 A 
ENDBRANCH  29  30
ENDBRANCH  28  29
ENDBRANCH  21  28
ENDBRANCH   2  19
TORSDOF 5
ENDMDL
MODEL 2
REMARK VINA RESULT:      -8.1      7.056     10.740
REMARK  Name = 
REMARK  6 active torsions:
REMARK  status: ('A' for Active; 'I' for Inactive)
REMARK    1  A    between atoms: C_1  and  N_2
REMARK    2  A    between atoms: C_4  and  C_5
REMARK    3  A    between atoms: C_6  and  C_7
REMARK    4  A    between atoms: N_9  and  C_10
REMARK    5  A    between atoms: C_10  and  C_11
REMARK    6  A    between atoms: C_11  and  N_12
REMARK                            x       y       z     vdW  Elec       q    Type
REMARK                         _______ _______ _______ _____ _____    ______ ____
ROOT
ATOM      1  C   UNL     1      -1.925  13.817  22.462  0.00  0.00    +0.000 C 
ATOM      2  C   UNL     1      -3.164  14.213  22.147  0.00  0.00    +0.000 C 
ATOM      3  C   UNL     1      -3.313  15.609  22.614  0.00  0.00    +0.000 C 
ATOM      4  O   UNL     1      -4.299  16.314  22.500  0.00  0.00    +0.000 OA
ATOM      5  N   UNL     1      -2.142  15.968  23.177  0.00  0.00    +0.000 N 
ATOM      6  C   UNL     1      -1.260  14.945  23.142  0.00  0.00    +0.000 C 
ATOM      7  O   UNL     1      -0.125  14.966  23.583  0.00  0.00    +0.000 OA
ATOM      8  H   UNL     1      -1.961  16.865  23.593  0.00  0.00    +0.000 HD
ENDROOT
BRANCH   1  12
ATOM      9  C   UNL     1      -0.153   9.439  23.316  0.00  0.00    +0.000 C 
ATOM     10  N   UNL     1      -0.508  10.631  22.587  0.00  0.00    +0.000 N 
ATOM     11  N   UNL     1      -1.188  11.626  23.198  0.00  0.00    +0.000 NA
ATOM     12  C   UNL     1      -1.296  12.568  22.249  0.00  0.00    +0.000 A 
ATOM     13  C   UNL     1      -0.718  12.151  21.016  0.00  0.00    +0.000 A 
ATOM     14  C   UNL     1      -0.547  12.665  19.722  0.00  0.00    +0.000 A 
ATOM     15  C   UNL     1       0.127  11.869  18.796  0.00  0.00    +0.000 A 
ATOM     16  C   UNL     1       0.591  10.619  19.190  0.00  0.00    +0.000 A 
ATOM     17  N   UNL     1       0.444  10.075  20.420  0.00  0.00    +0.000 NA
ATOM     18  C   UNL     1      -0.212  10.886  21.277  0.00  0.00    +0.000 A 
ENDBRANCH   1  12
BRANCH   2  19
ATOM     19  C   UNL     1      -4.205  13.484  21.526  0.00  0.00    +0.000 A 
ATOM     20  C   UNL     1      -4.243  13.143  20.196  0.00  0.00    +0.000 A 
ATOM     21  N   UNL     1      -5.409  12.449  19.968  0.00  0.00    +0.000 N 
ATOM     22  C   UNL     1      -6.139  12.366  21.144  0.00  0.00    +0.000 A 
ATOM     23  C   UNL     1      -7.397  11.802  21.423  0.00  0.00    +0.000 A 
ATOM     24  C   UNL     1      -7.881  11.879  22.734  0.00  0.00    +0.000 A 
ATOM     25  C   UNL     1      -7.143  12.493  23.739  0.00  0.00    +0.000 A 
ATOM     26  C   UNL     1      -5.898  13.056  23.456  0.00  0.00    +0.000 A 
ATOM     27  C   UNL     1      -5.389  13.000  22.141  0.00  0.00    +0.000 A 
BRANCH  21  28
ATOM     28  C   UNL     1      -5.846  11.932  18.673  0.00  0.00    +0.000 C 
BRANCH  28  29
ATOM     29  C   UNL     1      -5.348  10.521  18.366  0.00  0.00    +0.000 C 
BRANCH  29  30
ATOM     30  N   UNL     1      -4.217  10.494  17.463  0.00  0.00    +0.000 N 
ATOM     31  C   UNL     1      -4.098  11.217  16.308  0.00  0.00    +0.000 A 
ATOM     32  C   UNL     1      -2.816  10.977  15.871  0.00  0.00    +0.000 A 
ATOM     33  N   UNL     1      -2.167  10.123  16.723  0.00  0.00    +0.000 NA
ATOM     34  C   UNL     1      -3.031   9.855  17.676  0.00  0.00    +0.000 A 
ENDBRANCH  29  30
ENDBRANCH  28  29
ENDBRANCH  21  28
ENDBRANCH   2  19
TORSDOF 5
ENDMDL
MODEL 3
REMARK VINA RESULT:      -8.1      7.971     10.835
REMARK  Name = 
REMARK  6 active torsions:
REMARK  status: ('A' for Active; 'I' for Inactive)
REMARK    1  A    between atoms: C_1  and  N_2
REMARK    2  A    between atoms: C_4  and  C_5
REMARK    3  A    between atoms: C_6  and  C_7
REMARK    4  A    between atoms: N_9  and  C_10
REMARK    5  A    between atoms: C_10  and  C_11
REMARK    6  A    between atoms: C_11  and  N_12
REMARK                            x       y       z     vdW  Elec       q    Type
REMARK                         _______ _______ _______ _____ _____    ______ ____
ROOT
ATOM      1  C   UNL     1      -1.584  14.044  21.653  0.00  0.00    +0.000 C 
ATOM      2  C   UNL     1      -2.588  13.167  21.528  0.00  0.00    +0.000 C 
ATOM      3  C   UNL     1      -3.003  12.774  22.892  0.00  0.00    +0.000 C 
ATOM      4  O   UNL     1      -3.893  11.997  23.188  0.00  0.00    +0.000 OA
ATOM      5  N   UNL     1      -2.221  13.451  23.757  0.00  0.00    +0.000 N 
ATOM      6  C   UNL     1      -1.332  14.223  23.096  0.00  0.00    +0.000 C 
ATOM      7  O   UNL     1      -0.490  14.940  23.607  0.00  0.00    +0.000 OA
ATOM      8  H   UNL     1      -2.273  13.368  24.758  0.00  0.00    +0.000 HD
ENDROOT
BRANCH   1  12
ATOM      9  C   UNL     1       1.997  15.079  18.630  0.00  0.00    +0.000 C 
ATOM     10  N   UNL     1       0.726  15.186  19.301  0.00  0.00    +0.000 N 
ATOM     11  N   UNL     1       0.357  14.262  20.215  0.00  0.00    +0.000 NA
ATOM     12  C   UNL     1      -0.832  14.702  20.653  0.00  0.00    +0.000 A 
ATOM     13  C   UNL     1      -1.239  15.891  19.983  0.00  0.00    +0.000 A 
ATOM     14  C   UNL     1      -2.337  16.766  19.992  0.00  0.00    +0.000 A 
ATOM     15  C   UNL     1      -2.293  17.863  19.132  0.00  0.00    +0.000 A 
ATOM     16  C   UNL     1      -1.182  18.037  18.314  0.00  0.00    +0.000 A 
ATOM     17  N   UNL     1      -0.106  17.220  18.260  0.00  0.00    +0.000 NA
ATOM     18  C   UNL     1      -0.197  16.177  19.112  0.00  0.00    +0.000 A 
ENDBRANCH   1  12
BRANCH   2  19
ATOM     19  C   UNL     1      -3.169  12.635  20.353  0.00  0.00    +0.000 A 
ATOM     20  C   UNL     1      -4.456  12.870  19.934  0.00  0.00    +0.000 A 
ATOM     21  N   UNL     1      -4.655  12.179  18.762  0.00  0.00    +0.000 N 
ATOM     22  C   UNL     1      -3.506  11.473  18.436  0.00  0.00    +0.000 A 
ATOM     23  C   UNL     1      -3.219  10.598  17.374  0.00  0.00    +0.000 A 
ATOM     24  C   UNL     1      -1.942  10.024  17.314  0.00  0.00    +0.000 A 
ATOM     25  C   UNL     1      -0.980  10.309  18.276  0.00  0.00    +0.000 A 
ATOM     26  C   UNL     1      -1.272  11.174  19.332  0.00  0.00    +0.000 A 
ATOM     27  C   UNL     1      -2.553  11.760  19.421  0.00  0.00    +0.000 A 
BRANCH  21  28
ATOM     28  C   UNL     1      -5.904  12.140  18.005  0.00  0.00    +0.000 C 
BRANCH  28  29
ATOM     29  C   UNL     1      -7.158  12.147  18.876  0.00  0.00    +0.000 C 
BRANCH  29  30
ATOM     30  N   UNL     1      -7.368  10.907  19.594  0.00  0.00    +0.000 N 
ATOM     31  C   UNL     1      -7.038   9.658  19.146  0.00  0.00    +0.000 A 
ATOM     32  C   UNL     1      -7.287   8.824  20.210  0.00  0.00    +0.000 A 
ATOM     33  N   UNL     1      -7.767   9.533  21.279  0.00  0.00    +0.000 NA
ATOM     34  C   UNL     1      -7.797  10.786  20.883  0.00  0.00    +0.000 A 
ENDBRANCH  29  30
ENDBRANCH  28  29
ENDBRANCH  21  28
ENDBRANCH   2  19
TORSDOF 5
ENDMDL
MODEL 4
REMARK VINA RESULT:      -8.0      7.885     12.032
REMARK  Name = 
REMARK  6 active torsions:
REMARK  status: ('A' for Active; 'I' for Inactive)
REMARK    1  A    between atoms: C_1  and  N_2
REMARK    2  A    between atoms: C_4  and  C_5
REMARK    3  A    between atoms: C_6  and  C_7
REMARK    4  A    between atoms: N_9  and  C_10
REMARK    5  A    between atoms: C_10  and  C_11
REMARK    6  A    between atoms: C_11  and  N_12
REMARK                            x       y       z     vdW  Elec       q    Type
REMARK                         _______ _______ _______ _____ _____    ______ ____
ROOT
ATOM      1  C   UNL     1      -4.860  13.675  22.592  0.00  0.00    +0.000 C 
ATOM      2  C   UNL     1      -3.523  13.630  22.644  0.00  0.00    +0.000 C 
ATOM      3  C   UNL     1      -3.099  14.450  23.800  0.00  0.00    +0.000 C 
ATOM      4  O   UNL     1      -1.958  14.645  24.176  0.00  0.00    +0.000 OA
ATOM      5  N   UNL     1      -4.218  14.933  24.378  0.00  0.00    +0.000 N 
ATOM      6  C   UNL     1      -5.317  14.529  23.705  0.00  0.00    +0.000 C 
ATOM      7  O   UNL     1      -6.468  14.813  23.982  0.00  0.00    +0.000 OA
ATOM      8  H   UNL     1      -4.229  15.536  25.181  0.00  0.00    +0.000 HD
ENDROOT
BRANCH   1  12
ATOM      9  C   UNL     1      -7.715  10.420  20.521  0.00  0.00    +0.000 C 
ATOM     10  N   UNL     1      -7.020  11.665  20.729  0.00  0.00    +0.000 N 
ATOM     11  N   UNL     1      -6.267  11.849  21.835  0.00  0.00    +0.000 NA
ATOM     12  C   UNL     1      -5.747  13.075  21.668  0.00  0.00    +0.000 A 
ATOM     13  C   UNL     1      -6.206  13.688  20.468  0.00  0.00    +0.000 A 
ATOM     14  C   UNL     1      -6.038  14.908  19.794  0.00  0.00    +0.000 A 
ATOM     15  C   UNL     1      -6.705  15.069  18.579  0.00  0.00    +0.000 A 
ATOM     16  C   UNL     1      -7.496  14.032  18.099  0.00  0.00    +0.000 A 
ATOM     17  N   UNL     1      -7.698  12.844  18.714  0.00  0.00    +0.000 NA
ATOM     18  C   UNL     1      -7.030  12.738  19.882  0.00  0.00    +0.000 A 
ENDBRANCH   1  12
BRANCH   2  19
ATOM     19  C   UNL     1      -2.616  12.981  21.774  0.00  0.00    +0.000 A 
ATOM     20  C   UNL     1      -2.429  13.297  20.451  0.00  0.00    +0.000 A 
ATOM     21  N   UNL     1      -1.479  12.445  19.939  0.00  0.00    +0.000 N 
ATOM     22  C   UNL     1      -1.071  11.557  20.924  0.00  0.00    +0.000 A 
ATOM     23  C   UNL     1      -0.162  10.485  20.894  0.00  0.00    +0.000 A 
ATOM     24  C   UNL     1       0.042   9.756  22.072  0.00  0.00    +0.000 A 
ATOM     25  C   UNL     1      -0.631  10.080  23.244  0.00  0.00    +0.000 A 
ATOM     26  C   UNL     1      -1.536  11.143  23.268  0.00  0.00    +0.000 A 
ATOM     27  C   UNL     1      -1.767  11.889  22.093  0.00  0.00    +0.000 A 
BRANCH  21  28
ATOM     28  C   UNL     1      -1.013  12.432  18.555  0.00  0.00    +0.000 C 
BRANCH  28  29
ATOM     29  C   UNL     1      -1.254  11.108  17.831  0.00  0.00    +0.000 C 
BRANCH  29  30
ATOM     30  N   UNL     1      -2.517  11.061  17.125  0.00  0.00    +0.000 N 
ATOM     31  C   UNL     1      -3.733  11.422  17.635  0.00  0.00    +0.000 A 
ATOM     32  C   UNL     1      -4.600  11.346  16.571  0.00  0.00    +0.000 A 
ATOM     33  N   UNL     1      -3.943  10.939  15.439  0.00  0.00    +0.000 NA
ATOM     34  C   UNL     1      -2.689  10.783  15.800  0.00  0.00    +0.000 A 
ENDBRANCH  29  30
ENDBRANCH  28  29
ENDBRANCH  21  28
ENDBRANCH   2  19
TORSDOF 5
ENDMDL
MODEL 5
REMARK VINA RESULT:      -8.0      6.611      9.632
REMARK  Name = 
REMARK  6 active torsions:
REMARK  status: ('A' for Active; 'I' for Inactive)
REMARK    1  A    between atoms: C_1  and  N_2
REMARK    2  A    between atoms: C_4  and  C_5
REMARK    3  A    between atoms: C_6  and  C_7
REMARK    4  A    between atoms: N_9  and  C_10
REMARK    5  A    between atoms: C_10  and  C_11
REMARK    6  A    between atoms: C_11  and  N_12
REMARK                            x       y       z     vdW  Elec       q    Type
REMARK                         _______ _______ _______ _____ _____    ______ ____
ROOT
ATOM      1  C   UNL     1      -3.141  11.356  17.888  0.00  0.00    +0.000 C 
ATOM      2  C   UNL     1      -4.303  11.908  18.261  0.00  0.00    +0.000 C 
ATOM      3  C   UNL     1      -5.202  11.877  17.087  0.00  0.00    +0.000 C 
ATOM      4  O   UNL     1      -6.349  12.282  17.036  0.00  0.00    +0.000 OA
ATOM      5  N   UNL     1      -4.521  11.297  16.078  0.00  0.00    +0.000 N 
ATOM      6  C   UNL     1      -3.270  10.969  16.470  0.00  0.00    +0.000 C 
ATOM      7  O   UNL     1      -2.419  10.443  15.776  0.00  0.00    +0.000 OA
ATOM      8  H   UNL     1      -4.884  11.156  15.151  0.00  0.00    +0.000 HD
ENDROOT
BRANCH   1  12
ATOM      9  C   UNL     1       0.147   9.285  20.705  0.00  0.00    +0.000 C 
ATOM     10  N   UNL     1      -0.478  10.279  19.869  0.00  0.00    +0.000 N 
ATOM     11  N   UNL     1      -1.665  10.023  19.277  0.00  0.00    +0.000 NA
ATOM     12  C   UNL     1      -1.955  11.164  18.633  0.00  0.00    +0.000 A 
ATOM     13  C   UNL     1      -0.925  12.135  18.784  0.00  0.00    +0.000 A 
ATOM     14  C   UNL     1      -0.659  13.444  18.351  0.00  0.00    +0.000 A 
ATOM     15  C   UNL     1       0.530  14.035  18.781  0.00  0.00    +0.000 A 
ATOM     16  C   UNL     1       1.386  13.312  19.602  0.00  0.00    +0.000 A 
ATOM     17  N   UNL     1       1.181  12.048  20.038  0.00  0.00    +0.000 NA
ATOM     18  C   UNL     1       0.018  11.523  19.597  0.00  0.00    +0.000 A 
ENDBRANCH   1  12
BRANCH   2  19
ATOM     19  C   UNL     1      -4.665  12.473  19.505  0.00  0.00    +0.000 A 
ATOM     20  C   UNL     1      -3.969  13.464  20.154  0.00  0.00    +0.000 A 
ATOM     21  N   UNL     1      -4.622  13.742  21.332  0.00  0.00    +0.000 N 
ATOM     22  C   UNL     1      -5.725  12.910  21.461  0.00  0.00    +0.000 A 
ATOM     23  C   UNL     1      -6.677  12.776  22.487  0.00  0.00    +0.000 A 
ATOM     24  C   UNL     1      -7.694  11.827  22.327  0.00  0.00    +0.000 A 
ATOM     25  C   UNL     1      -7.767  11.036  21.187  0.00  0.00    +0.000 A 
ATOM     26  C   UNL     1      -6.817  11.170  20.173  0.00  0.00    +0.000 A 
ATOM     27  C   UNL     1      -5.777  12.113  20.311  0.00  0.00    +0.000 A 
BRANCH  21  28
ATOM     28  C   UNL     1      -4.189  14.718  22.329  0.00  0.00    +0.000 C 
BRANCH  28  29
ATOM     29  C   UNL     1      -3.716  14.097  23.642  0.00  0.00    +0.000 C 
BRANCH  29  30
ATOM     30  N   UNL     1      -2.601  13.187  23.479  0.00  0.00    +0.000 N 
ATOM     31  C   UNL     1      -2.680  11.822  23.446  0.00  0.00    +0.000 A 
ATOM     32  C   UNL     1      -1.409  11.402  23.134  0.00  0.00    +0.000 A 
ATOM     33  N   UNL     1      -0.566  12.473  22.990  0.00  0.00    +0.000 NA
ATOM     34  C   UNL     1      -1.313  13.535  23.194  0.00  0.00    +0.000 A 
ENDBRANCH  29  30
ENDBRANCH  28  29
ENDBRANCH  21  28
ENDBRANCH   2  19
TORSDOF 5
ENDMDL
MODEL 6
REMARK VINA RESULT:      -7.8      5.096      8.520
REMARK  Name = 
REMARK  6 active torsions:
REMARK  status: ('A' for Active; 'I' for Inactive)
REMARK    1  A    between atoms: C_1  and  N_2
REMARK    2  A    between atoms: C_4  and  C_5
REMARK    3  A    between atoms: C_6  and  C_7
REMARK    4  A    between atoms: N_9  and  C_10
REMARK    5  A    between atoms: C_10  and  C_11
REMARK    6  A    between atoms: C_11  and  N_12
REMARK                            x       y       z     vdW  Elec       q    Type
REMARK                         _______ _______ _______ _____ _____    ______ ____
ROOT
ATOM      1  C   UNL     1       0.645  12.620  20.210  0.00  0.00    +0.000 C 
ATOM      2  C   UNL     1      -0.364  13.233  19.578  0.00  0.00    +0.000 C 
ATOM      3  C   UNL     1       0.131  14.555  19.136  0.00  0.00    +0.000 C 
ATOM      4  O   UNL     1      -0.494  15.399  18.520  0.00  0.00    +0.000 OA
ATOM      5  N   UNL     1       1.418  14.651  19.528  0.00  0.00    +0.000 N 
ATOM      6  C   UNL     1       1.800  13.539  20.193  0.00  0.00    +0.000 C 
ATOM      7  O   UNL     1       2.899  13.338  20.676  0.00  0.00    +0.000 OA
ATOM      8  H   UNL     1       2.003  15.452  19.372  0.00  0.00    +0.000 HD
ENDROOT
BRANCH   1  12
ATOM      9  C   UNL     1       0.222   9.205  23.555  0.00  0.00    +0.000 C 
ATOM     10  N   UNL     1       0.501   9.815  22.280  0.00  0.00    +0.000 N 
ATOM     11  N   UNL     1       0.268  11.132  22.088  0.00  0.00    +0.000 NA
ATOM     12  C   UNL     1       0.680  11.350  20.830  0.00  0.00    +0.000 A 
ATOM     13  C   UNL     1       1.138  10.155  20.206  0.00  0.00    +0.000 A 
ATOM     14  C   UNL     1       1.646   9.763  18.958  0.00  0.00    +0.000 A 
ATOM     15  C   UNL     1       1.993   8.422  18.795  0.00  0.00    +0.000 A 
ATOM     16  C   UNL     1       1.819   7.545  19.860  0.00  0.00    +0.000 A 
ATOM     17  N   UNL     1       1.325   7.870  21.077  0.00  0.00    +0.000 NA
ATOM     18  C   UNL     1       1.009   9.178  21.183  0.00  0.00    +0.000 A 
ENDBRANCH   1  12
BRANCH   2  19
ATOM     19  C   UNL     1      -1.689  12.787  19.367  0.00  0.00    +0.000 A 
ATOM     20  C   UNL     1      -2.797  13.269  20.022  0.00  0.00    +0.000 A 
ATOM     21  N   UNL     1      -3.897  12.587  19.557  0.00  0.00    +0.000 N 
ATOM     22  C   UNL     1      -3.499  11.643  18.622  0.00  0.00    +0.000 A 
ATOM     23  C   UNL     1      -4.228  10.684  17.897  0.00  0.00    +0.000 A 
ATOM     24  C   UNL     1      -3.531   9.854  17.010  0.00  0.00    +0.000 A 
ATOM     25  C   UNL     1      -2.156   9.970  16.845  0.00  0.00    +0.000 A 
ATOM     26  C   UNL     1      -1.436  10.920  17.572  0.00  0.00    +0.000 A 
ATOM     27  C   UNL     1      -2.111  11.765  18.478  0.00  0.00    +0.000 A 
BRANCH  21  28
ATOM     28  C   UNL     1      -5.269  12.779  20.021  0.00  0.00    +0.000 C 
BRANCH  28  29
ATOM     29  C   UNL     1      -5.416  13.850  21.100  0.00  0.00    +0.000 C 
BRANCH  29  30
ATOM     30  N   UNL     1      -5.830  13.321  22.383  0.00  0.00    +0.000 N 
ATOM     31  C   UNL     1      -7.113  13.016  22.745  0.00  0.00    +0.000 A 
ATOM     32  C   UNL     1      -7.000  12.419  23.979  0.00  0.00    +0.000 A 
ATOM     33  N   UNL     1      -5.688  12.368  24.373  0.00  0.00    +0.000 NA
ATOM     34  C   UNL     1      -5.006  12.910  23.389  0.00  0.00    +0.000 A 
ENDBRANCH  29  30
ENDBRANCH  28  29
ENDBRANCH  21  28
ENDBRANCH   2  19
TORSDOF 5
ENDMDL
MODEL 7
REMARK VINA RESULT:      -7.8      8.482     11.846
REMARK  Name = 
REMARK  6 active torsions:
REMARK  status: ('A' for Active; 'I' for Inactive)
REMARK    1  A    between atoms: C_1  and  N_2
REMARK    2  A    between atoms: C_4  and  C_5
REMARK    3  A    between atoms: C_6  and  C_7
REMARK    4  A    between atoms: N_9  and  C_10
REMARK    5  A    between atoms: C_10  and  C_11
REMARK    6  A    between atoms: C_11  and  N_12
REMARK                            x       y       z     vdW  Elec       q    Type
REMARK                         _______ _______ _______ _____ _____    ______ ____
ROOT
ATOM      1  C   UNL     1       9.842  15.498  17.986  0.00  0.00    +0.000 C 
ATOM      2  C   UNL     1      10.374  14.270  18.046  0.00  0.00    +0.000 C 
ATOM      3  C   UNL     1      11.528  14.244  17.121  0.00  0.00    +0.000 C 
ATOM      4  O   UNL     1      12.270  13.302  16.907  0.00  0.00    +0.000 OA
ATOM      5  N   UNL     1      11.622  15.469  16.565  0.00  0.00    +0.000 N 
ATOM      6  C   UNL     1      10.638  16.277  17.018  0.00  0.00    +0.000 C 
ATOM      7  O   UNL     1      10.458  17.436  16.689  0.00  0.00    +0.000 OA
ATOM      8  H   UNL     1      12.312  15.735  15.884  0.00  0.00    +0.000 HD
ENDROOT
BRANCH   1  12
ATOM      9  C   UNL     1       7.208  18.165  20.983  0.00  0.00    +0.000 C 
ATOM     10  N   UNL     1       7.524  17.192  19.968  0.00  0.00    +0.000 N 
ATOM     11  N   UNL     1       8.800  17.024  19.556  0.00  0.00    +0.000 NA
ATOM     12  C   UNL     1       8.719  16.027  18.662  0.00  0.00    +0.000 A 
ATOM     13  C   UNL     1       7.378  15.588  18.475  0.00  0.00    +0.000 A 
ATOM     14  C   UNL     1       6.694  14.640  17.697  0.00  0.00    +0.000 A 
ATOM     15  C   UNL     1       5.312  14.546  17.865  0.00  0.00    +0.000 A 
ATOM     16  C   UNL     1       4.683  15.385  18.779  0.00  0.00    +0.000 A 
ATOM     17  N   UNL     1       5.295  16.319  19.542  0.00  0.00    +0.000 NA
ATOM     18  C   UNL     1       6.629  16.368  19.344  0.00  0.00    +0.000 A 
ENDBRANCH   1  12
BRANCH   2  19
ATOM     19  C   UNL     1       9.948  13.147  18.792  0.00  0.00    +0.000 A 
ATOM     20  C   UNL     1       9.751  11.888  18.279  0.00  0.00    +0.000 A 
ATOM     21  N   UNL     1       9.331  11.072  19.304  0.00  0.00    +0.000 N 
ATOM     22  C   UNL     1       9.228  11.809  20.474  0.00  0.00    +0.000 A 
ATOM     23  C   UNL     1       8.810  11.451  21.768  0.00  0.00    +0.000 A 
ATOM     24  C   UNL     1       8.813  12.438  22.762  0.00  0.00    +0.000 A 
ATOM     25  C   UNL     1       9.218  13.738  22.484  0.00  0.00    +0.000 A 
ATOM     26  C   UNL     1       9.627  14.090  21.197  0.00  0.00    +0.000 A 
ATOM     27  C   UNL     1       9.627  13.118  20.174  0.00  0.00    +0.000 A 
BRANCH  21  28
ATOM     28  C   UNL     1       8.984   9.659  19.171  0.00  0.00    +0.000 C 
BRANCH  28  29
ATOM     29  C   UNL     1       8.224   9.324  17.889  0.00  0.00    +0.000 C 
BRANCH  29  30
ATOM     30  N   UNL     1       7.756   7.955  17.839  0.00  0.00    +0.000 N 
ATOM     31  C   UNL     1       8.152   6.944  18.671  0.00  0.00    +0.000 A 
ATOM     32  C   UNL     1       7.345   5.879  18.341  0.00  0.00    +0.000 A 
ATOM     33  N   UNL     1       6.485   6.219  17.330  0.00  0.00    +0.000 NA
ATOM     34  C   UNL     1       6.749   7.476  17.053  0.00  0.00    +0.000 A 
ENDBRANCH  29  30
ENDBRANCH  28  29
ENDBRANCH  21  28
ENDBRANCH   2  19
TORSDOF 5
ENDMDL
MODEL 8
REMARK VINA RESULT:      -7.8      7.380     11.871
REMARK  Name = 
REMARK  6 active torsions:
REMARK  status: ('A' for Active; 'I' for Inactive)
REMARK    1  A    between atoms: C_1  and  N_2
REMARK    2  A    between atoms: C_4  and  C_5
REMARK    3  A    between atoms: C_6  and  C_7
REMARK    4  A    between atoms: N_9  and  C_10
REMARK    5  A    between atoms: C_10  and  C_11
REMARK    6  A    between atoms: C_11  and  N_12
REMARK                            x       y       z     vdW  Elec       q    Type
REMARK                         _______ _______ _______ _____ _____    ______ ____
ROOT
ATOM      1  C   UNL     1      -3.622  14.360  21.187  0.00  0.00    +0.000 C 
ATOM      2  C   UNL     1      -2.321  14.106  20.998  0.00  0.00    +0.000 C 
ATOM      3  C   UNL     1      -1.582  15.357  21.279  0.00  0.00    +0.000 C 
ATOM      4  O   UNL     1      -0.377  15.520  21.223  0.00  0.00    +0.000 OA
ATOM      5  N   UNL     1      -2.493  16.288  21.629  0.00  0.00    +0.000 N 
ATOM      6  C   UNL     1      -3.742  15.776  21.583  0.00  0.00    +0.000 C 
ATOM      7  O   UNL     1      -4.770  16.379  21.836  0.00  0.00    +0.000 OA
ATOM      8  H   UNL     1      -2.273  17.240  21.862  0.00  0.00    +0.000 HD
ENDROOT
BRANCH   1  12
ATOM      9  C   UNL     1      -6.938  11.576  19.116  0.00  0.00    +0.000 C 
ATOM     10  N   UNL     1      -6.215  12.266  20.155  0.00  0.00    +0.000 N 
ATOM     11  N   UNL     1      -5.106  12.978  19.856  0.00  0.00    +0.000 NA
ATOM     12  C   UNL     1      -4.738  13.506  21.033  0.00  0.00    +0.000 A 
ATOM     13  C   UNL     1      -5.595  13.092  22.093  0.00  0.00    +0.000 A 
ATOM     14  C   UNL     1      -5.702  13.286  23.479  0.00  0.00    +0.000 A 
ATOM     15  C   UNL     1      -6.764  12.663  24.136  0.00  0.00    +0.000 A 
ATOM     16  C   UNL     1      -7.653  11.888  23.400  0.00  0.00    +0.000 A 
ATOM     17  N   UNL     1      -7.587  11.662  22.068  0.00  0.00    +0.000 NA
ATOM     18  C   UNL     1      -6.546  12.287  21.480  0.00  0.00    +0.000 A 
ENDBRANCH   1  12
BRANCH   2  19
ATOM     19  C   UNL     1      -1.696  12.911  20.572  0.00  0.00    +0.000 A 
ATOM     20  C   UNL     1      -1.401  12.597  19.268  0.00  0.00    +0.000 A 
ATOM     21  N   UNL     1      -0.810  11.356  19.252  0.00  0.00    +0.000 N 
ATOM     22  C   UNL     1      -0.747  10.852  20.543  0.00  0.00    +0.000 A 
ATOM     23  C   UNL     1      -0.276   9.626  21.044  0.00  0.00    +0.000 A 
ATOM     24  C   UNL     1      -0.349   9.403  22.424  0.00  0.00    +0.000 A 
ATOM     25  C   UNL     1      -0.871  10.363  23.282  0.00  0.00    +0.000 A 
ATOM     26  C   UNL     1      -1.343  11.577  22.779  0.00  0.00    +0.000 A 
ATOM     27  C   UNL     1      -1.288  11.826  21.391  0.00  0.00    +0.000 A 
BRANCH  21  28
ATOM     28  C   UNL     1      -0.371  10.644  18.054  0.00  0.00    +0.000 C 
BRANCH  28  29
ATOM     29  C   UNL     1      -1.362   9.594  17.557  0.00  0.00    +0.000 C 
BRANCH  29  30
ATOM     30  N   UNL     1      -2.520  10.162  16.898  0.00  0.00    +0.000 N 
ATOM     31  C   UNL     1      -3.707  10.477  17.499  0.00  0.00    +0.000 A 
ATOM     32  C   UNL     1      -4.439  11.111  16.523  0.00  0.00    +0.000 A 
ATOM     33  N   UNL     1      -3.731  11.176  15.351  0.00  0.00    +0.000 NA
ATOM     34  C   UNL     1      -2.576  10.604  15.609  0.00  0.00    +0.000 A 
ENDBRANCH  29  30
ENDBRANCH  28  29
ENDBRANCH  21  28
ENDBRANCH   2  19
TORSDOF 5
ENDMDL
MODEL 9
REMARK VINA RESULT:      -7.8      4.390      9.765
REMARK  Name = 
REMARK  6 active torsions:
REMARK  status: ('A' for Active; 'I' for Inactive)
REMARK    1  A    between atoms: C_1  and  N_2
REMARK    2  A    between atoms: C_4  and  C_5
REMARK    3  A    between atoms: C_6  and  C_7
REMARK    4  A    between atoms: N_9  and  C_10
REMARK    5  A    between atoms: C_10  and  C_11
REMARK    6  A    between atoms: C_11  and  N_12
REMARK                            x       y       z     vdW  Elec       q    Type
REMARK                         _______ _______ _______ _____ _____    ______ ____
ROOT
ATOM      1  C   UNL     1      -0.118  13.872  22.160  0.00  0.00    +0.000 C 
ATOM      2  C   UNL     1      -0.712  12.685  21.982  0.00  0.00    +0.000 C 
ATOM      3  C   UNL     1      -1.710  12.525  23.063  0.00  0.00    +0.000 C 
ATOM      4  O   UNL     1      -2.454  11.576  23.232  0.00  0.00    +0.000 OA
ATOM      5  N   UNL     1      -1.658  13.638  23.822  0.00  0.00    +0.000 N 
ATOM      6  C   UNL     1      -0.718  14.490  23.359  0.00  0.00    +0.000 C 
ATOM      7  O   UNL     1      -0.434  15.571  23.843  0.00  0.00    +0.000 OA
ATOM      8  H   UNL     1      -2.221  13.797  24.639  0.00  0.00    +0.000 HD
ENDROOT
BRANCH   1  12
ATOM      9  C   UNL     1       4.270  15.204  20.747  0.00  0.00    +0.000 C 
ATOM     10  N   UNL     1       2.834  15.089  20.754  0.00  0.00    +0.000 N 
ATOM     11  N   UNL     1       2.216  14.316  21.674  0.00  0.00    +0.000 NA
ATOM     12  C   UNL     1       0.912  14.486  21.411  0.00  0.00    +0.000 A 
ATOM     13  C   UNL     1       0.702  15.340  20.291  0.00  0.00    +0.000 A 
ATOM     14  C   UNL     1      -0.384  15.851  19.563  0.00  0.00    +0.000 A 
ATOM     15  C   UNL     1      -0.099  16.706  18.497  0.00  0.00    +0.000 A 
ATOM     16  C   UNL     1       1.227  17.007  18.208  0.00  0.00    +0.000 A 
ATOM     17  N   UNL     1       2.306  16.534  18.872  0.00  0.00    +0.000 NA
ATOM     18  C   UNL     1       1.977  15.715  19.893  0.00  0.00    +0.000 A 
ENDBRANCH   1  12
BRANCH   2  19
ATOM     19  C   UNL     1      -0.460  11.698  21.001  0.00  0.00    +0.000 A 
ATOM     20  C   UNL     1       0.575  10.796  21.037  0.00  0.00    +0.000 A 
ATOM     21  N   UNL     1       0.495  10.010  19.911  0.00  0.00    +0.000 N 
ATOM     22  C   UNL     1      -0.575  10.423  19.131  0.00  0.00    +0.000 A 
ATOM     23  C   UNL     1      -1.048   9.975  17.885  0.00  0.00    +0.000 A 
ATOM     24  C   UNL     1      -2.173  10.604  17.337  0.00  0.00    +0.000 A 
ATOM     25  C   UNL     1      -2.811  11.643  18.004  0.00  0.00    +0.000 A 
ATOM     26  C   UNL     1      -2.335  12.088  19.238  0.00  0.00    +0.000 A 
ATOM     27  C   UNL     1      -1.198  11.477  19.809  0.00  0.00    +0.000 A 
BRANCH  21  28
ATOM     28  C   UNL     1       1.429   8.945  19.555  0.00  0.00    +0.000 C 
BRANCH  28  29
ATOM     29  C   UNL     1       1.585   7.871  20.629  0.00  0.00    +0.000 C 
BRANCH  29  30
ATOM     30  N   UNL     1       2.109   6.620  20.121  0.00  0.00    +0.000 N 
ATOM     31  C   UNL     1       1.812   5.375  20.600  0.00  0.00    +0.000 A 
ATOM     32  C   UNL     1       2.421   4.505  19.725  0.00  0.00    +0.000 A 
ATOM     33  N   UNL     1       3.083   5.192  18.742  0.00  0.00    +0.000 NA
ATOM     34  C   UNL     1       2.871   6.463  19.000  0.00  0.00    +0.000 A 
ENDBRANCH  29  30
ENDBRANCH  28  29
ENDBRANCH  21  28
ENDBRANCH   2  19
TORSDOF 5
ENDMDL
