MODEL 1
REMARK VINA RESULT:      -7.5      0.000      0.000
REMARK  Name = 
REMARK  4 active torsions:
REMARK  status: ('A' for Active; 'I' for Inactive)
REMARK    1  A    between atoms: C_2  and  C_3
REMARK    2  A    between atoms: C_3  and  N_4
REMARK    3  A    between atoms: C_5  and  C_7
REMARK    4  A    between atoms: N_13  and  C_14
REMARK                            x       y       z     vdW  Elec       q    Type
REMARK                         _______ _______ _______ _____ _____    ______ ____
ROOT
ATOM      1  C   UNL     1       5.769   4.656  17.824  0.00  0.00    +0.000 C 
ENDROOT
BRANCH   1   3
ATOM      2  O   UNL     1       4.223   6.504  18.066  0.00  0.00    +0.000 OA
ATOM      3  C   UNL     1       4.416   5.294  18.141  0.00  0.00    +0.000 C 
ATOM      4  N   UNL     1       3.466   4.388  18.563  0.00  0.00    +0.000 N 
ATOM      5  H   UNL     1       3.830   3.495  18.891  0.00  0.00    +0.000 HD
BRANCH   4   6
ATOM      6  C   UNL     1       2.116   4.772  18.963  0.00  0.00    +0.000 C 
ATOM      7  C   UNL     1       1.125   3.637  18.673  0.00  0.00    +0.000 C 
ATOM      8  C   UNL     1       1.394   2.409  19.542  0.00  0.00    +0.000 C 
ATOM      9  C   UNL     1       1.390   2.761  21.027  0.00  0.00    +0.000 C 
ATOM     10  C   UNL     1       2.292   3.949  21.363  0.00  0.00    +0.000 C 
ATOM     11  C   UNL     1       2.051   5.150  20.448  0.00  0.00    +0.000 C 
ENDBRANCH   4   6
ENDBRANCH   1   3
BRANCH   1  12
ATOM     12  N   UNL     1       5.920   4.399  16.404  0.00  0.00    +0.000 N 
ATOM     13  C   UNL     1       6.779   5.137  15.617  0.00  0.00    +0.000 C 
ATOM     14  O   UNL     1       7.411   6.086  16.076  0.00  0.00    +0.000 OA
ATOM     15  H   UNL     1       5.326   3.711  15.955  0.00  0.00    +0.000 HD
BRANCH  13  16
ATOM     16  C   UNL     1       6.866   4.701  14.239  0.00  0.00    +0.000 A 
ATOM     17  C   UNL     1       7.642   5.164  13.194  0.00  0.00    +0.000 A 
ATOM     18  C   UNL     1       7.322   4.374  12.063  0.00  0.00    +0.000 A 
ATOM     19  C   UNL     1       6.375   3.471  12.485  0.00  0.00    +0.000 A 
ATOM     20 BR   UNL     1       5.576   2.176  11.406  0.00  0.00    +0.000 Br
ATOM     21  O   UNL     1       6.096   3.653  13.805  0.00  0.00    +0.000 OA
ENDBRANCH  13  16
ENDBRANCH   1  12
TORSDOF 4
ENDMDL
MODEL 2
REMARK VINA RESULT:      -7.5      1.239      1.782
REMARK  Name = 
REMARK  4 active torsions:
REMARK  status: ('A' for Active; 'I' for Inactive)
REMARK    1  A    between atoms: C_2  and  C_3
REMARK    2  A    between atoms: C_3  and  N_4
REMARK    3  A    between atoms: C_5  and  C_7
REMARK    4  A    between atoms: N_13  and  C_14
REMARK                            x       y       z     vdW  Elec       q    Type
REMARK                         _______ _______ _______ _____ _____    ______ ____
ROOT
ATOM      1  C   UNL     1       5.104   5.907  17.681  0.00  0.00    +0.000 C 
ENDROOT
BRANCH   1   3
ATOM      2  O   UNL     1       6.028   4.130  19.042  0.00  0.00    +0.000 OA
ATOM      3  C   UNL     1       5.033   4.748  18.677  0.00  0.00    +0.000 C 
ATOM      4  N   UNL     1       3.748   4.443  19.074  0.00  0.00    +0.000 N 
ATOM      5  H   UNL     1       3.008   4.796  18.469  0.00  0.00    +0.000 HD
BRANCH   4   6
ATOM      6  C   UNL     1       3.432   3.347  19.985  0.00  0.00    +0.000 C 
ATOM      7  C   UNL     1       2.297   3.748  20.937  0.00  0.00    +0.000 C 
ATOM      8  C   UNL     1       0.978   3.958  20.195  0.00  0.00    +0.000 C 
ATOM      9  C   UNL     1       0.588   2.725  19.384  0.00  0.00    +0.000 C 
ATOM     10  C   UNL     1       1.716   2.223  18.481  0.00  0.00    +0.000 C 
ATOM     11  C   UNL     1       3.044   2.072  19.224  0.00  0.00    +0.000 C 
ENDBRANCH   4   6
ENDBRANCH   1   3
BRANCH   1  12
ATOM     12  N   UNL     1       5.268   5.434  16.319  0.00  0.00    +0.000 N 
ATOM     13  C   UNL     1       6.498   5.424  15.695  0.00  0.00    +0.000 C 
ATOM     14  O   UNL     1       7.500   5.872  16.249  0.00  0.00    +0.000 OA
ATOM     15  H   UNL     1       4.451   5.176  15.778  0.00  0.00    +0.000 HD
BRANCH  13  16
ATOM     16  C   UNL     1       6.499   4.852  14.366  0.00  0.00    +0.000 A 
ATOM     17  C   UNL     1       7.502   4.772  13.419  0.00  0.00    +0.000 A 
ATOM     18  C   UNL     1       6.952   4.112  12.293  0.00  0.00    +0.000 A 
ATOM     19  C   UNL     1       5.648   3.822  12.620  0.00  0.00    +0.000 A 
ATOM     20 BR   UNL     1       4.432   2.957  11.501  0.00  0.00    +0.000 Br
ATOM     21  O   UNL     1       5.363   4.259  13.877  0.00  0.00    +0.000 OA
ENDBRANCH  13  16
ENDBRANCH   1  12
TORSDOF 4
ENDMDL
MODEL 3
REMARK VINA RESULT:      -7.4      0.569      1.006
REMARK  Name = 
REMARK  4 active torsions:
REMARK  status: ('A' for Active; 'I' for Inactive)
REMARK    1  A    between atoms: C_2  and  C_3
REMARK    2  A    between atoms: C_3  and  N_4
REMARK    3  A    between atoms: C_5  and  C_7
REMARK    4  A    between atoms: N_13  and  C_14
REMARK                            x       y       z     vdW  Elec       q    Type
REMARK                         _______ _______ _______ _____ _____    ______ ____
ROOT
ATOM      1  C   UNL     1       6.280   4.429  18.018  0.00  0.00    +0.000 C 
ENDROOT
BRANCH   1   3
ATOM      2  O   UNL     1       4.769   6.313  18.189  0.00  0.00    +0.000 OA
ATOM      3  C   UNL     1       4.996   5.136  18.453  0.00  0.00    +0.000 C 
ATOM      4  N   UNL     1       4.159   4.341  19.206  0.00  0.00    +0.000 N 
ATOM      5  H   UNL     1       4.594   3.520  19.623  0.00  0.00    +0.000 HD
BRANCH   4   6
ATOM      6  C   UNL     1       2.897   4.815  19.768  0.00  0.00    +0.000 C 
ATOM      7  C   UNL     1       1.849   4.994  18.663  0.00  0.00    +0.000 C 
ATOM      8  C   UNL     1       1.452   3.661  18.030  0.00  0.00    +0.000 C 
ATOM      9  C   UNL     1       0.963   2.666  19.080  0.00  0.00    +0.000 C 
ATOM     10  C   UNL     1       1.928   2.515  20.256  0.00  0.00    +0.000 C 
ATOM     11  C   UNL     1       2.361   3.859  20.841  0.00  0.00    +0.000 C 
ENDBRANCH   4   6
ENDBRANCH   1   3
BRANCH   1  12
ATOM     12  N   UNL     1       6.316   4.217  16.583  0.00  0.00    +0.000 N 
ATOM     13  C   UNL     1       6.930   5.109  15.730  0.00  0.00    +0.000 C 
ATOM     14  O   UNL     1       7.424   6.155  16.146  0.00  0.00    +0.000 OA
ATOM     15  H   UNL     1       5.812   3.435  16.181  0.00  0.00    +0.000 HD
BRANCH  13  16
ATOM     16  C   UNL     1       6.940   4.709  14.339  0.00  0.00    +0.000 A 
ATOM     17  C   UNL     1       7.691   5.170  13.273  0.00  0.00    +0.000 A 
ATOM     18  C   UNL     1       7.290   4.426  12.137  0.00  0.00    +0.000 A 
ATOM     19  C   UNL     1       6.323   3.551  12.575  0.00  0.00    +0.000 A 
ATOM     20 BR   UNL     1       5.425   2.321  11.497  0.00  0.00    +0.000 Br
ATOM     21  O   UNL     1       6.108   3.707  13.910  0.00  0.00    +0.000 OA
ENDBRANCH  13  16
ENDBRANCH   1  12
TORSDOF 4
ENDMDL
MODEL 4
REMARK VINA RESULT:      -7.2      1.705      2.305
REMARK  Name = 
REMARK  4 active torsions:
REMARK  status: ('A' for Active; 'I' for Inactive)
REMARK    1  A    between atoms: C_2  and  C_3
REMARK    2  A    between atoms: C_3  and  N_4
REMARK    3  A    between atoms: C_5  and  C_7
REMARK    4  A    between atoms: N_13  and  C_14
REMARK                            x       y       z     vdW  Elec       q    Type
REMARK                         _______ _______ _______ _____ _____    ______ ____
ROOT
ATOM      1  C   UNL     1       7.667   4.693  17.934  0.00  0.00    +0.000 C 
ENDROOT
BRANCH   1   3
ATOM      2  O   UNL     1       6.177   5.561  19.634  0.00  0.00    +0.000 OA
ATOM      3  C   UNL     1       6.417   4.679  18.816  0.00  0.00    +0.000 C 
ATOM      4  N   UNL     1       5.629   3.562  18.633  0.00  0.00    +0.000 N 
ATOM      5  H   UNL     1       6.088   2.771  18.186  0.00  0.00    +0.000 HD
BRANCH   4   6
ATOM      6  C   UNL     1       4.410   3.311  19.396  0.00  0.00    +0.000 C 
ATOM      7  C   UNL     1       3.439   4.491  19.263  0.00  0.00    +0.000 C 
ATOM      8  C   UNL     1       2.915   4.640  17.835  0.00  0.00    +0.000 C 
ATOM      9  C   UNL     1       2.266   3.350  17.339  0.00  0.00    +0.000 C 
ATOM     10  C   UNL     1       3.155   2.121  17.532  0.00  0.00    +0.000 C 
ATOM     11  C   UNL     1       3.718   2.016  18.949  0.00  0.00    +0.000 C 
ENDBRANCH   4   6
ENDBRANCH   1   3
BRANCH   1  12
ATOM     12  N   UNL     1       7.361   4.327  16.564  0.00  0.00    +0.000 N 
ATOM     13  C   UNL     1       6.926   5.256  15.642  0.00  0.00    +0.000 C 
ATOM     14  O   UNL     1       6.722   6.426  15.960  0.00  0.00    +0.000 OA
ATOM     15  H   UNL     1       7.390   3.352  16.289  0.00  0.00    +0.000 HD
BRANCH  13  16
ATOM     16  C   UNL     1       6.738   4.739  14.303  0.00  0.00    +0.000 A 
ATOM     17  C   UNL     1       7.622   4.632  13.245  0.00  0.00    +0.000 A 
ATOM     18  C   UNL     1       6.905   4.056  12.169  0.00  0.00    +0.000 A 
ATOM     19  C   UNL     1       5.628   3.840  12.632  0.00  0.00    +0.000 A 
ATOM     20 BR   UNL     1       4.238   3.102  11.631  0.00  0.00    +0.000 Br
ATOM     21  O   UNL     1       5.516   4.243  13.927  0.00  0.00    +0.000 OA
ENDBRANCH  13  16
ENDBRANCH   1  12
TORSDOF 4
ENDMDL
MODEL 5
REMARK VINA RESULT:      -7.2      1.696      2.340
REMARK  Name = 
REMARK  4 active torsions:
REMARK  status: ('A' for Active; 'I' for Inactive)
REMARK    1  A    between atoms: C_2  and  C_3
REMARK    2  A    between atoms: C_3  and  N_4
REMARK    3  A    between atoms: C_5  and  C_7
REMARK    4  A    between atoms: N_13  and  C_14
REMARK                            x       y       z     vdW  Elec       q    Type
REMARK                         _______ _______ _______ _____ _____    ______ ____
ROOT
ATOM      1  C   UNL     1       7.270   6.395  17.408  0.00  0.00    +0.000 C 
ENDROOT
BRANCH   1   3
ATOM      2  O   UNL     1       7.286   4.873  19.291  0.00  0.00    +0.000 OA
ATOM      3  C   UNL     1       6.626   5.517  18.482  0.00  0.00    +0.000 C 
ATOM      4  N   UNL     1       5.249   5.485  18.411  0.00  0.00    +0.000 N 
ATOM      5  H   UNL     1       4.849   5.784  17.523  0.00  0.00    +0.000 HD
BRANCH   4   6
ATOM      6  C   UNL     1       4.421   4.680  19.305  0.00  0.00    +0.000 C 
ATOM      7  C   UNL     1       3.126   5.425  19.656  0.00  0.00    +0.000 C 
ATOM      8  C   UNL     1       2.223   5.605  18.435  0.00  0.00    +0.000 C 
ATOM      9  C   UNL     1       1.912   4.269  17.766  0.00  0.00    +0.000 C 
ATOM     10  C   UNL     1       3.163   3.440  17.476  0.00  0.00    +0.000 C 
ATOM     11  C   UNL     1       4.084   3.316  18.689  0.00  0.00    +0.000 C 
ENDBRANCH   4   6
ENDBRANCH   1   3
BRANCH   1  12
ATOM     12  N   UNL     1       7.380   5.698  16.140  0.00  0.00    +0.000 N 
ATOM     13  C   UNL     1       6.302   5.555  15.292  0.00  0.00    +0.000 C 
ATOM     14  O   UNL     1       5.185   5.963  15.603  0.00  0.00    +0.000 OA
ATOM     15  H   UNL     1       8.248   5.234  15.899  0.00  0.00    +0.000 HD
BRANCH  13  16
ATOM     16  C   UNL     1       6.602   4.900  14.036  0.00  0.00    +0.000 A 
ATOM     17  C   UNL     1       7.569   5.170  13.086  0.00  0.00    +0.000 A 
ATOM     18  C   UNL     1       7.407   4.216  12.053  0.00  0.00    +0.000 A 
ATOM     19  C   UNL     1       6.355   3.416  12.434  0.00  0.00    +0.000 A 
ATOM     20 BR   UNL     1       5.687   1.983  11.443  0.00  0.00    +0.000 Br
ATOM     21  O   UNL     1       5.863   3.816  13.638  0.00  0.00    +0.000 OA
ENDBRANCH  13  16
ENDBRANCH   1  12
TORSDOF 4
ENDMDL
MODEL 6
REMARK VINA RESULT:      -6.9      1.483      1.954
REMARK  Name = 
REMARK  4 active torsions:
REMARK  status: ('A' for Active; 'I' for Inactive)
REMARK    1  A    between atoms: C_2  and  C_3
REMARK    2  A    between atoms: C_3  and  N_4
REMARK    3  A    between atoms: C_5  and  C_7
REMARK    4  A    between atoms: N_13  and  C_14
REMARK                            x       y       z     vdW  Elec       q    Type
REMARK                         _______ _______ _______ _____ _____    ______ ____
ROOT
ATOM      1  C   UNL     1       6.740   4.436  16.810  0.00  0.00    +0.000 C 
ENDROOT
BRANCH   1   3
ATOM      2  O   UNL     1       5.840   6.545  17.587  0.00  0.00    +0.000 OA
ATOM      3  C   UNL     1       5.708   5.328  17.502  0.00  0.00    +0.000 C 
ATOM      4  N   UNL     1       4.658   4.626  18.056  0.00  0.00    +0.000 N 
ATOM      5  H   UNL     1       4.826   3.633  18.203  0.00  0.00    +0.000 HD
BRANCH   4   6
ATOM      6  C   UNL     1       3.578   5.262  18.804  0.00  0.00    +0.000 C 
ATOM      7  C   UNL     1       2.324   5.396  17.929  0.00  0.00    +0.000 C 
ATOM      8  C   UNL     1       1.729   4.033  17.574  0.00  0.00    +0.000 C 
ATOM      9  C   UNL     1       1.428   3.210  18.824  0.00  0.00    +0.000 C 
ATOM     10  C   UNL     1       2.617   3.119  19.781  0.00  0.00    +0.000 C 
ATOM     11  C   UNL     1       3.238   4.483  20.081  0.00  0.00    +0.000 C 
ENDBRANCH   4   6
ENDBRANCH   1   3
BRANCH   1  12
ATOM     12  N   UNL     1       6.238   3.910  15.555  0.00  0.00    +0.000 N 
ATOM     13  C   UNL     1       6.687   4.378  14.337  0.00  0.00    +0.000 C 
ATOM     14  O   UNL     1       7.490   5.306  14.266  0.00  0.00    +0.000 OA
ATOM     15  H   UNL     1       5.482   3.236  15.562  0.00  0.00    +0.000 HD
BRANCH  13  16
ATOM     16  C   UNL     1       6.139   3.694  13.185  0.00  0.00    +0.000 A 
ATOM     17  C   UNL     1       6.645   2.653  12.430  0.00  0.00    +0.000 A 
ATOM     18  C   UNL     1       5.694   2.380  11.418  0.00  0.00    +0.000 A 
ATOM     19  C   UNL     1       4.661   3.266  11.617  0.00  0.00    +0.000 A 
ATOM     20 BR   UNL     1       3.123   3.369  10.565  0.00  0.00    +0.000 Br
ATOM     21  O   UNL     1       4.915   4.062  12.690  0.00  0.00    +0.000 OA
ENDBRANCH  13  16
ENDBRANCH   1  12
TORSDOF 4
ENDMDL
MODEL 7
REMARK VINA RESULT:      -6.7      1.424      2.085
REMARK  Name = 
REMARK  4 active torsions:
REMARK  status: ('A' for Active; 'I' for Inactive)
REMARK    1  A    between atoms: C_2  and  C_3
REMARK    2  A    between atoms: C_3  and  N_4
REMARK    3  A    between atoms: C_5  and  C_7
REMARK    4  A    between atoms: N_13  and  C_14
REMARK                            x       y       z     vdW  Elec       q    Type
REMARK                         _______ _______ _______ _____ _____    ______ ____
ROOT
ATOM      1  C   UNL     1       5.405   5.552  17.295  0.00  0.00    +0.000 C 
ENDROOT
BRANCH   1   3
ATOM      2  O   UNL     1       6.072   4.325  19.273  0.00  0.00    +0.000 OA
ATOM      3  C   UNL     1       5.212   4.539  18.425  0.00  0.00    +0.000 C 
ATOM      4  N   UNL     1       4.010   3.866  18.360  0.00  0.00    +0.000 N 
ATOM      5  H   UNL     1       3.543   3.891  17.455  0.00  0.00    +0.000 HD
BRANCH   4   6
ATOM      6  C   UNL     1       3.627   2.822  19.305  0.00  0.00    +0.000 C 
ATOM      7  C   UNL     1       3.139   3.441  20.622  0.00  0.00    +0.000 C 
ATOM      8  C   UNL     1       1.837   4.220  20.438  0.00  0.00    +0.000 C 
ATOM      9  C   UNL     1       0.747   3.351  19.816  0.00  0.00    +0.000 C 
ATOM     10  C   UNL     1       1.207   2.634  18.546  0.00  0.00    +0.000 C 
ATOM     11  C   UNL     1       2.539   1.906  18.729  0.00  0.00    +0.000 C 
ENDBRANCH   4   6
ENDBRANCH   1   3
BRANCH   1  12
ATOM     12  N   UNL     1       5.242   4.937  15.991  0.00  0.00    +0.000 N 
ATOM     13  C   UNL     1       6.267   4.901  15.069  0.00  0.00    +0.000 C 
ATOM     14  O   UNL     1       7.348   5.443  15.294  0.00  0.00    +0.000 OA
ATOM     15  H   UNL     1       4.331   4.592  15.712  0.00  0.00    +0.000 HD
BRANCH  13  16
ATOM     16  C   UNL     1       5.961   4.185  13.849  0.00  0.00    +0.000 A 
ATOM     17  C   UNL     1       4.772   4.050  13.157  0.00  0.00    +0.000 A 
ATOM     18  C   UNL     1       5.044   3.236  12.030  0.00  0.00    +0.000 A 
ATOM     19  C   UNL     1       6.382   2.927  12.097  0.00  0.00    +0.000 A 
ATOM     20 BR   UNL     1       7.297   1.864  10.866  0.00  0.00    +0.000 Br
ATOM     21  O   UNL     1       6.951   3.502  13.191  0.00  0.00    +0.000 OA
ENDBRANCH  13  16
ENDBRANCH   1  12
TORSDOF 4
ENDMDL
MODEL 8
REMARK VINA RESULT:      -6.7      4.698      6.954
REMARK  Name = 
REMARK  4 active torsions:
REMARK  status: ('A' for Active; 'I' for Inactive)
REMARK    1  A    between atoms: C_2  and  C_3
REMARK    2  A    between atoms: C_3  and  N_4
REMARK    3  A    between atoms: C_5  and  C_7
REMARK    4  A    between atoms: N_13  and  C_14
REMARK                            x       y       z     vdW  Elec       q    Type
REMARK                         _______ _______ _______ _____ _____    ______ ____
ROOT
ATOM      1  C   UNL     1       3.989   6.414  17.466  0.00  0.00    +0.000 C 
ENDROOT
BRANCH   1   3
ATOM      2  O   UNL     1       4.421   4.203  16.580  0.00  0.00    +0.000 OA
ATOM      3  C   UNL     1       3.819   4.896  17.394  0.00  0.00    +0.000 C 
ATOM      4  N   UNL     1       2.894   4.404  18.290  0.00  0.00    +0.000 N 
ATOM      5  H   UNL     1       2.243   5.089  18.667  0.00  0.00    +0.000 HD
BRANCH   4   6
ATOM      6  C   UNL     1       2.534   2.991  18.373  0.00  0.00    +0.000 C 
ATOM      7  C   UNL     1       3.382   2.280  19.436  0.00  0.00    +0.000 C 
ATOM      8  C   UNL     1       3.073   2.787  20.844  0.00  0.00    +0.000 C 
ATOM      9  C   UNL     1       1.587   2.664  21.170  0.00  0.00    +0.000 C 
ATOM     10  C   UNL     1       0.686   3.275  20.097  0.00  0.00    +0.000 C 
ATOM     11  C   UNL     1       1.044   2.803  18.687  0.00  0.00    +0.000 C 
ENDBRANCH   4   6
ENDBRANCH   1   3
BRANCH   1  12
ATOM     12  N   UNL     1       3.233   6.987  18.564  0.00  0.00    +0.000 N 
ATOM     13  C   UNL     1       2.412   8.082  18.391  0.00  0.00    +0.000 C 
ATOM     14  O   UNL     1       2.334   8.657  17.307  0.00  0.00    +0.000 OA
ATOM     15  H   UNL     1       3.364   6.627  19.502  0.00  0.00    +0.000 HD
BRANCH  13  16
ATOM     16  C   UNL     1       1.674   8.478  19.571  0.00  0.00    +0.000 A 
ATOM     17  C   UNL     1       1.474   7.824  20.772  0.00  0.00    +0.000 A 
ATOM     18  C   UNL     1       0.667   8.670  21.571  0.00  0.00    +0.000 A 
ATOM     19  C   UNL     1       0.425   9.793  20.814  0.00  0.00    +0.000 A 
ATOM     20 BR   UNL     1      -0.599  11.252  21.362  0.00  0.00    +0.000 Br
ATOM     21  O   UNL     1       1.036   9.692  19.602  0.00  0.00    +0.000 OA
ENDBRANCH  13  16
ENDBRANCH   1  12
TORSDOF 4
ENDMDL
MODEL 9
REMARK VINA RESULT:      -6.7      5.098      6.201
REMARK  Name = 
REMARK  4 active torsions:
REMARK  status: ('A' for Active; 'I' for Inactive)
REMARK    1  A    between atoms: C_2  and  C_3
REMARK    2  A    between atoms: C_3  and  N_4
REMARK    3  A    between atoms: C_5  and  C_7
REMARK    4  A    between atoms: N_13  and  C_14
REMARK                            x       y       z     vdW  Elec       q    Type
REMARK                         _______ _______ _______ _____ _____    ______ ____
ROOT
ATOM      1  C   UNL     1       7.649   6.065  17.985  0.00  0.00    +0.000 C 
ENDROOT
BRANCH   1   3
ATOM      2  O   UNL     1       7.128   5.280  20.215  0.00  0.00    +0.000 OA
ATOM      3  C   UNL     1       6.724   5.552  19.089  0.00  0.00    +0.000 C 
ATOM      4  N   UNL     1       5.419   5.381  18.677  0.00  0.00    +0.000 N 
ATOM      5  H   UNL     1       5.282   5.324  17.669  0.00  0.00    +0.000 HD
BRANCH   4   6
ATOM      6  C   UNL     1       4.368   4.859  19.545  0.00  0.00    +0.000 C 
ATOM      7  C   UNL     1       3.163   5.810  19.564  0.00  0.00    +0.000 C 
ATOM      8  C   UNL     1       2.470   5.877  18.203  0.00  0.00    +0.000 C 
ATOM      9  C   UNL     1       2.054   4.491  17.716  0.00  0.00    +0.000 C 
ATOM     10  C   UNL     1       3.195   3.474  17.764  0.00  0.00    +0.000 C 
ATOM     11  C   UNL     1       3.916   3.459  19.112  0.00  0.00    +0.000 C 
ENDBRANCH   4   6
ENDBRANCH   1   3
BRANCH   1  12
ATOM     12  N   UNL     1       8.287   7.314  18.357  0.00  0.00    +0.000 N 
ATOM     13  C   UNL     1       7.876   8.525  17.841  0.00  0.00    +0.000 C 
ATOM     14  O   UNL     1       6.986   8.590  16.995  0.00  0.00    +0.000 OA
ATOM     15  H   UNL     1       9.108   7.297  18.951  0.00  0.00    +0.000 HD
BRANCH  13  16
ATOM     16  C   UNL     1       8.569   9.678  18.374  0.00  0.00    +0.000 A 
ATOM     17  C   UNL     1       9.272   9.843  19.553  0.00  0.00    +0.000 A 
ATOM     18  C   UNL     1       9.740  11.179  19.568  0.00  0.00    +0.000 A 
ATOM     19  C   UNL     1       9.302  11.750  18.396  0.00  0.00    +0.000 A 
ATOM     20 BR   UNL     1       9.621  13.515  17.881  0.00  0.00    +0.000 Br
ATOM     21  O   UNL     1       8.597  10.848  17.660  0.00  0.00    +0.000 OA
ENDBRANCH  13  16
ENDBRANCH   1  12
TORSDOF 4
ENDMDL
