MODEL 1
REMARK VINA RESULT:      -7.8      0.000      0.000
REMARK  Name = 
REMARK  10 active torsions:
REMARK  status: ('A' for Active; 'I' for Inactive)
REMARK    1  A    between atoms: C_1  and  C_2
REMARK    2  A    between atoms: C_2  and  O_3
REMARK    3  A    between atoms: O_3  and  C_4
REMARK    4  A    between atoms: C_4  and  C_5
REMARK    5  A    between atoms: C_5  and  C_6
REMARK    6  A    between atoms: C_6  and  N_7
REMARK    7  A    between atoms: C_8  and  C_10
REMARK    8  A    between atoms: N_16  and  C_17
REMARK    9  A    between atoms: C_17  and  C_18
REMARK   10  A    between atoms: C_18  and  C_19
REMARK                            x       y       z     vdW  Elec       q    Type
REMARK                         _______ _______ _______ _____ _____    ______ ____
ROOT
ATOM      1  C   UNL     1       2.644   7.087  18.450  0.00  0.00    +0.000 A 
ATOM      2  C   UNL     1       2.246   8.101  17.570  0.00  0.00    +0.000 A 
ATOM      3  C   UNL     1       1.579   9.222  18.064  0.00  0.00    +0.000 A 
ATOM      4  C   UNL     1       1.313   9.324  19.434  0.00  0.00    +0.000 A 
ATOM      5  C   UNL     1       0.641  10.511  19.988  0.00  0.00    +0.000 A 
ATOM      6  O   UNL     1       0.342  11.426  19.222  0.00  0.00    +0.000 OA
ATOM      7  N   UNL     1       0.409  10.527  21.361  0.00  0.00    +0.000 N 
ATOM      8  C   UNL     1       0.825   9.525  22.227  0.00  0.00    +0.000 A 
ATOM      9  O   UNL     1       0.687   9.558  23.448  0.00  0.00    +0.000 OA
ATOM     10  N   UNL     1       1.439   8.441  21.665  0.00  0.00    +0.000 N 
ATOM     11  C   UNL     1       1.699   8.314  20.304  0.00  0.00    +0.000 A 
ATOM     12  C   UNL     1       2.357   7.186  19.819  0.00  0.00    +0.000 A 
ATOM     13  H   UNL     1       1.737   7.724  22.315  0.00  0.00    +0.000 HD
ENDROOT
BRANCH   1  15
ATOM     14  N   UNL     1       2.591   4.715  17.908  0.00  0.00    +0.000 N 
ATOM     15  C   UNL     1       3.343   5.868  17.978  0.00  0.00    +0.000 C 
ATOM     16  O   UNL     1       4.521   5.944  17.648  0.00  0.00    +0.000 OA
ATOM     17  H   UNL     1       1.597   4.739  18.082  0.00  0.00    +0.000 HD
BRANCH  14  18
ATOM     18  C   UNL     1       3.170   3.481  17.413  0.00  0.00    +0.000 C 
BRANCH  18  19
ATOM     19  C   UNL     1       2.293   2.278  17.749  0.00  0.00    +0.000 C 
BRANCH  19  20
ATOM     20  C   UNL     1       2.065   2.166  19.250  0.00  0.00    +0.000 C 
BRANCH  20  21
ATOM     21  O   UNL     1       0.939   2.963  19.604  0.00  0.00    +0.000 OA
BRANCH  21  23
ATOM     22  C   UNL     1       2.274   2.990  21.573  0.00  0.00    +0.000 C 
ATOM     23  C   UNL     1       1.120   3.645  20.840  0.00  0.00    +0.000 C 
ENDBRANCH  21  23
ENDBRANCH  20  21
ENDBRANCH  19  20
ENDBRANCH  18  19
ENDBRANCH  14  18
ENDBRANCH   1  15
BRANCH   7  24
ATOM     24  C   UNL     1      -0.179  11.742  21.928  0.00  0.00    +0.000 C 
BRANCH  24  25
ATOM     25  C   UNL     1      -1.710  11.687  22.041  0.00  0.00    +0.000 C 
BRANCH  25  26
ATOM     26  C   UNL     1      -2.222  12.679  23.059  0.00  0.00    +0.000 A 
ATOM     27  C   UNL     1      -1.452  13.794  23.415  0.00  0.00    +0.000 A 
ATOM     28  C   UNL     1      -1.918  14.697  24.373  0.00  0.00    +0.000 A 
ATOM     29  C   UNL     1      -3.157  14.488  24.986  0.00  0.00    +0.000 A 
ATOM     30  C   UNL     1      -3.924  13.379  24.639  0.00  0.00    +0.000 A 
ATOM     31  C   UNL     1      -3.459  12.477  23.682  0.00  0.00    +0.000 A 
ENDBRANCH  25  26
ENDBRANCH  24  25
ENDBRANCH   7  24
TORSDOF 9
ENDMDL
MODEL 2
REMARK VINA RESULT:      -7.7      1.183      1.579
REMARK  Name = 
REMARK  10 active torsions:
REMARK  status: ('A' for Active; 'I' for Inactive)
REMARK    1  A    between atoms: C_1  and  C_2
REMARK    2  A    between atoms: C_2  and  O_3
REMARK    3  A    between atoms: O_3  and  C_4
REMARK    4  A    between atoms: C_4  and  C_5
REMARK    5  A    between atoms: C_5  and  C_6
REMARK    6  A    between atoms: C_6  and  N_7
REMARK    7  A    between atoms: C_8  and  C_10
REMARK    8  A    between atoms: N_16  and  C_17
REMARK    9  A    between atoms: C_17  and  C_18
REMARK   10  A    between atoms: C_18  and  C_19
REMARK                            x       y       z     vdW  Elec       q    Type
REMARK                         _______ _______ _______ _____ _____    ______ ____
ROOT
ATOM      1  C   UNL     1       2.387   7.284  19.108  0.00  0.00    +0.000 A 
ATOM      2  C   UNL     1       2.118   8.171  18.058  0.00  0.00    +0.000 A 
ATOM      3  C   UNL     1       1.391   9.335  18.307  0.00  0.00    +0.000 A 
ATOM      4  C   UNL     1       0.937   9.608  19.602  0.00  0.00    +0.000 A 
ATOM      5  C   UNL     1       0.198  10.844  19.900  0.00  0.00    +0.000 A 
ATOM      6  O   UNL     1       0.010  11.649  18.989  0.00  0.00    +0.000 OA
ATOM      7  N   UNL     1      -0.224  11.033  21.215  0.00  0.00    +0.000 N 
ATOM      8  C   UNL     1       0.066  10.155  22.252  0.00  0.00    +0.000 A 
ATOM      9  O   UNL     1      -0.241  10.342  23.427  0.00  0.00    +0.000 OA
ATOM     10  N   UNL     1       0.750   9.018  21.925  0.00  0.00    +0.000 N 
ATOM     11  C   UNL     1       1.196   8.722  20.640  0.00  0.00    +0.000 A 
ATOM     12  C   UNL     1       1.912   7.553  20.400  0.00  0.00    +0.000 A 
ATOM     13  H   UNL     1       0.953   8.396  22.696  0.00  0.00    +0.000 HD
ENDROOT
BRANCH   1  15
ATOM     14  N   UNL     1       2.930   5.373  17.703  0.00  0.00    +0.000 N 
ATOM     15  C   UNL     1       3.142   6.026  18.898  0.00  0.00    +0.000 C 
ATOM     16  O   UNL     1       3.926   5.648  19.761  0.00  0.00    +0.000 OA
ATOM     17  H   UNL     1       2.361   5.792  16.982  0.00  0.00    +0.000 HD
BRANCH  14  18
ATOM     18  C   UNL     1       3.658   4.160  17.381  0.00  0.00    +0.000 C 
BRANCH  18  19
ATOM     19  C   UNL     1       2.718   2.967  17.233  0.00  0.00    +0.000 C 
BRANCH  19  20
ATOM     20  C   UNL     1       3.032   1.890  18.263  0.00  0.00    +0.000 C 
BRANCH  20  21
ATOM     21  O   UNL     1       1.971   1.837  19.211  0.00  0.00    +0.000 OA
BRANCH  21  23
ATOM     22  C   UNL     1       1.033   3.507  20.621  0.00  0.00    +0.000 C 
ATOM     23  C   UNL     1       2.235   2.618  20.370  0.00  0.00    +0.000 C 
ENDBRANCH  21  23
ENDBRANCH  20  21
ENDBRANCH  19  20
ENDBRANCH  18  19
ENDBRANCH  14  18
ENDBRANCH   1  15
BRANCH   7  24
ATOM     24  C   UNL     1      -0.882  12.300  21.534  0.00  0.00    +0.000 C 
BRANCH  24  25
ATOM     25  C   UNL     1      -2.290  12.428  20.934  0.00  0.00    +0.000 C 
BRANCH  25  26
ATOM     26  C   UNL     1      -3.336  12.576  22.013  0.00  0.00    +0.000 A 
ATOM     27  C   UNL     1      -4.658  12.903  21.681  0.00  0.00    +0.000 A 
ATOM     28  C   UNL     1      -5.618  13.061  22.683  0.00  0.00    +0.000 A 
ATOM     29  C   UNL     1      -5.263  12.899  24.025  0.00  0.00    +0.000 A 
ATOM     30  C   UNL     1      -3.950  12.579  24.360  0.00  0.00    +0.000 A 
ATOM     31  C   UNL     1      -2.990  12.420  23.360  0.00  0.00    +0.000 A 
ENDBRANCH  25  26
ENDBRANCH  24  25
ENDBRANCH   7  24
TORSDOF 9
ENDMDL
MODEL 3
REMARK VINA RESULT:      -7.7      1.163      1.409
REMARK  Name = 
REMARK  10 active torsions:
REMARK  status: ('A' for Active; 'I' for Inactive)
REMARK    1  A    between atoms: C_1  and  C_2
REMARK    2  A    between atoms: C_2  and  O_3
REMARK    3  A    between atoms: O_3  and  C_4
REMARK    4  A    between atoms: C_4  and  C_5
REMARK    5  A    between atoms: C_5  and  C_6
REMARK    6  A    between atoms: C_6  and  N_7
REMARK    7  A    between atoms: C_8  and  C_10
REMARK    8  A    between atoms: N_16  and  C_17
REMARK    9  A    between atoms: C_17  and  C_18
REMARK   10  A    between atoms: C_18  and  C_19
REMARK                            x       y       z     vdW  Elec       q    Type
REMARK                         _______ _______ _______ _____ _____    ______ ____
ROOT
ATOM      1  C   UNL     1       2.369   7.312  19.116  0.00  0.00    +0.000 A 
ATOM      2  C   UNL     1       2.107   8.213  18.076  0.00  0.00    +0.000 A 
ATOM      3  C   UNL     1       1.380   9.375  18.336  0.00  0.00    +0.000 A 
ATOM      4  C   UNL     1       0.919   9.631  19.632  0.00  0.00    +0.000 A 
ATOM      5  C   UNL     1       0.179  10.865  19.942  0.00  0.00    +0.000 A 
ATOM      6  O   UNL     1      -0.003  11.682  19.040  0.00  0.00    +0.000 OA
ATOM      7  N   UNL     1      -0.250  11.036  21.256  0.00  0.00    +0.000 N 
ATOM      8  C   UNL     1       0.032  10.145  22.283  0.00  0.00    +0.000 A 
ATOM      9  O   UNL     1      -0.281  10.316  23.459  0.00  0.00    +0.000 OA
ATOM     10  N   UNL     1       0.717   9.011  21.945  0.00  0.00    +0.000 N 
ATOM     11  C   UNL     1       1.171   8.732  20.659  0.00  0.00    +0.000 A 
ATOM     12  C   UNL     1       1.887   7.565  20.408  0.00  0.00    +0.000 A 
ATOM     13  H   UNL     1       0.915   8.378  22.710  0.00  0.00    +0.000 HD
ENDROOT
BRANCH   1  15
ATOM     14  N   UNL     1       2.821   5.351  17.749  0.00  0.00    +0.000 N 
ATOM     15  C   UNL     1       3.124   6.056  18.893  0.00  0.00    +0.000 C 
ATOM     16  O   UNL     1       3.985   5.725  19.700  0.00  0.00    +0.000 OA
ATOM     17  H   UNL     1       2.186   5.732  17.063  0.00  0.00    +0.000 HD
BRANCH  14  18
ATOM     18  C   UNL     1       3.539   4.135  17.416  0.00  0.00    +0.000 C 
BRANCH  18  19
ATOM     19  C   UNL     1       2.584   2.966  17.190  0.00  0.00    +0.000 C 
BRANCH  19  20
ATOM     20  C   UNL     1       1.485   2.942  18.244  0.00  0.00    +0.000 C 
BRANCH  20  21
ATOM     21  O   UNL     1       2.083   2.819  19.529  0.00  0.00    +0.000 OA
BRANCH  21  23
ATOM     22  C   UNL     1       2.017   3.226  21.872  0.00  0.00    +0.000 C 
ATOM     23  C   UNL     1       1.239   3.292  20.572  0.00  0.00    +0.000 C 
ENDBRANCH  21  23
ENDBRANCH  20  21
ENDBRANCH  19  20
ENDBRANCH  18  19
ENDBRANCH  14  18
ENDBRANCH   1  15
BRANCH   7  24
ATOM     24  C   UNL     1      -0.908  12.300  21.589  0.00  0.00    +0.000 C 
BRANCH  24  25
ATOM     25  C   UNL     1      -2.318  12.432  20.993  0.00  0.00    +0.000 C 
BRANCH  25  26
ATOM     26  C   UNL     1      -3.360  12.590  22.074  0.00  0.00    +0.000 A 
ATOM     27  C   UNL     1      -3.026  12.382  23.419  0.00  0.00    +0.000 A 
ATOM     28  C   UNL     1      -3.997  12.506  24.415  0.00  0.00    +0.000 A 
ATOM     29  C   UNL     1      -5.312  12.833  24.073  0.00  0.00    +0.000 A 
ATOM     30  C   UNL     1      -5.650  13.035  22.737  0.00  0.00    +0.000 A 
ATOM     31  C   UNL     1      -4.681  12.913  21.742  0.00  0.00    +0.000 A 
ENDBRANCH  25  26
ENDBRANCH  24  25
ENDBRANCH   7  24
TORSDOF 9
ENDMDL
MODEL 4
REMARK VINA RESULT:      -7.6      0.978      1.427
REMARK  Name = 
REMARK  10 active torsions:
REMARK  status: ('A' for Active; 'I' for Inactive)
REMARK    1  A    between atoms: C_1  and  C_2
REMARK    2  A    between atoms: C_2  and  O_3
REMARK    3  A    between atoms: O_3  and  C_4
REMARK    4  A    between atoms: C_4  and  C_5
REMARK    5  A    between atoms: C_5  and  C_6
REMARK    6  A    between atoms: C_6  and  N_7
REMARK    7  A    between atoms: C_8  and  C_10
REMARK    8  A    between atoms: N_16  and  C_17
REMARK    9  A    between atoms: C_17  and  C_18
REMARK   10  A    between atoms: C_18  and  C_19
REMARK                            x       y       z     vdW  Elec       q    Type
REMARK                         _______ _______ _______ _____ _____    ______ ____
ROOT
ATOM      1  C   UNL     1       2.904   7.024  18.786  0.00  0.00    +0.000 A 
ATOM      2  C   UNL     1       2.785   8.017  17.805  0.00  0.00    +0.000 A 
ATOM      3  C   UNL     1       1.951   9.112  18.029  0.00  0.00    +0.000 A 
ATOM      4  C   UNL     1       1.240   9.210  19.230  0.00  0.00    +0.000 A 
ATOM      5  C   UNL     1       0.379  10.371  19.507  0.00  0.00    +0.000 A 
ATOM      6  O   UNL     1       0.318  11.269  18.668  0.00  0.00    +0.000 OA
ATOM      7  N   UNL     1      -0.298  10.385  20.724  0.00  0.00    +0.000 N 
ATOM      8  C   UNL     1      -0.157   9.405  21.698  0.00  0.00    +0.000 A 
ATOM      9  O   UNL     1      -0.694   9.439  22.803  0.00  0.00    +0.000 OA
ATOM     10  N   UNL     1       0.649   8.344  21.393  0.00  0.00    +0.000 N 
ATOM     11  C   UNL     1       1.352   8.221  20.198  0.00  0.00    +0.000 A 
ATOM     12  C   UNL     1       2.174   7.119  19.980  0.00  0.00    +0.000 A 
ATOM     13  H   UNL     1       0.740   7.644  22.118  0.00  0.00    +0.000 HD
ENDROOT
BRANCH   1  15
ATOM     14  N   UNL     1       3.527   5.074  17.471  0.00  0.00    +0.000 N 
ATOM     15  C   UNL     1       3.766   5.833  18.596  0.00  0.00    +0.000 C 
ATOM     16  O   UNL     1       4.651   5.599  19.411  0.00  0.00    +0.000 OA
ATOM     17  H   UNL     1       2.862   5.381  16.776  0.00  0.00    +0.000 HD
BRANCH  14  18
ATOM     18  C   UNL     1       4.347   3.917  17.169  0.00  0.00    +0.000 C 
BRANCH  18  19
ATOM     19  C   UNL     1       3.971   2.722  18.042  0.00  0.00    +0.000 C 
BRANCH  19  20
ATOM     20  C   UNL     1       2.645   2.117  17.603  0.00  0.00    +0.000 C 
BRANCH  20  21
ATOM     21  O   UNL     1       1.601   3.044  17.885  0.00  0.00    +0.000 OA
BRANCH  21  23
ATOM     22  C   UNL     1       1.024   3.557  20.135  0.00  0.00    +0.000 C 
ATOM     23  C   UNL     1       0.776   2.625  18.966  0.00  0.00    +0.000 C 
ENDBRANCH  21  23
ENDBRANCH  20  21
ENDBRANCH  19  20
ENDBRANCH  18  19
ENDBRANCH  14  18
ENDBRANCH   1  15
BRANCH   7  24
ATOM     24  C   UNL     1      -1.085  11.577  21.042  0.00  0.00    +0.000 C 
BRANCH  24  25
ATOM     25  C   UNL     1      -0.468  12.443  22.150  0.00  0.00    +0.000 C 
BRANCH  25  26
ATOM     26  C   UNL     1      -1.527  12.980  23.084  0.00  0.00    +0.000 A 
ATOM     27  C   UNL     1      -2.732  12.288  23.264  0.00  0.00    +0.000 A 
ATOM     28  C   UNL     1      -3.719  12.798  24.111  0.00  0.00    +0.000 A 
ATOM     29  C   UNL     1      -3.510  14.008  24.778  0.00  0.00    +0.000 A 
ATOM     30  C   UNL     1      -2.316  14.702  24.598  0.00  0.00    +0.000 A 
ATOM     31  C   UNL     1      -1.330  14.192  23.754  0.00  0.00    +0.000 A 
ENDBRANCH  25  26
ENDBRANCH  24  25
ENDBRANCH   7  24
TORSDOF 9
ENDMDL
MODEL 5
REMARK VINA RESULT:      -7.6      0.708      1.195
REMARK  Name = 
REMARK  10 active torsions:
REMARK  status: ('A' for Active; 'I' for Inactive)
REMARK    1  A    between atoms: C_1  and  C_2
REMARK    2  A    between atoms: C_2  and  O_3
REMARK    3  A    between atoms: O_3  and  C_4
REMARK    4  A    between atoms: C_4  and  C_5
REMARK    5  A    between atoms: C_5  and  C_6
REMARK    6  A    between atoms: C_6  and  N_7
REMARK    7  A    between atoms: C_8  and  C_10
REMARK    8  A    between atoms: N_16  and  C_17
REMARK    9  A    between atoms: C_17  and  C_18
REMARK   10  A    between atoms: C_18  and  C_19
REMARK                            x       y       z     vdW  Elec       q    Type
REMARK                         _______ _______ _______ _____ _____    ______ ____
ROOT
ATOM      1  C   UNL     1       2.434   7.450  18.498  0.00  0.00    +0.000 A 
ATOM      2  C   UNL     1       1.921   8.474  17.691  0.00  0.00    +0.000 A 
ATOM      3  C   UNL     1       1.214   9.524  18.276  0.00  0.00    +0.000 A 
ATOM      4  C   UNL     1       1.023   9.548  19.662  0.00  0.00    +0.000 A 
ATOM      5  C   UNL     1       0.310  10.661  20.308  0.00  0.00    +0.000 A 
ATOM      6  O   UNL     1      -0.092  11.587  19.606  0.00  0.00    +0.000 OA
ATOM      7  N   UNL     1       0.159  10.601  21.692  0.00  0.00    +0.000 N 
ATOM      8  C   UNL     1       0.689   9.591  22.484  0.00  0.00    +0.000 A 
ATOM      9  O   UNL     1       0.622   9.560  23.711  0.00  0.00    +0.000 OA
ATOM     10  N   UNL     1       1.337   8.576  21.837  0.00  0.00    +0.000 N 
ATOM     11  C   UNL     1       1.524   8.528  20.459  0.00  0.00    +0.000 A 
ATOM     12  C   UNL     1       2.222   7.469  19.884  0.00  0.00    +0.000 A 
ATOM     13  H   UNL     1       1.718   7.853  22.434  0.00  0.00    +0.000 HD
ENDROOT
BRANCH   1  15
ATOM     14  N   UNL     1       2.721   5.046  18.257  0.00  0.00    +0.000 N 
ATOM     15  C   UNL     1       3.181   6.303  17.929  0.00  0.00    +0.000 C 
ATOM     16  O   UNL     1       4.131   6.518  17.185  0.00  0.00    +0.000 OA
ATOM     17  H   UNL     1       1.865   4.932  18.779  0.00  0.00    +0.000 HD
BRANCH  14  18
ATOM     18  C   UNL     1       3.353   3.860  17.712  0.00  0.00    +0.000 C 
BRANCH  18  19
ATOM     19  C   UNL     1       2.373   2.693  17.628  0.00  0.00    +0.000 C 
BRANCH  19  20
ATOM     20  C   UNL     1       2.232   1.996  18.974  0.00  0.00    +0.000 C 
BRANCH  20  21
ATOM     21  O   UNL     1       3.174   2.556  19.883  0.00  0.00    +0.000 OA
BRANCH  21  23
ATOM     22  C   UNL     1       1.226   3.245  21.061  0.00  0.00    +0.000 C 
ATOM     23  C   UNL     1       2.640   2.717  21.192  0.00  0.00    +0.000 C 
ENDBRANCH  21  23
ENDBRANCH  20  21
ENDBRANCH  19  20
ENDBRANCH  18  19
ENDBRANCH  14  18
ENDBRANCH   1  15
BRANCH   7  24
ATOM     24  C   UNL     1      -0.471  11.747  22.349  0.00  0.00    +0.000 C 
BRANCH  24  25
ATOM     25  C   UNL     1      -1.887  11.455  22.867  0.00  0.00    +0.000 C 
BRANCH  25  26
ATOM     26  C   UNL     1      -2.563  12.713  23.359  0.00  0.00    +0.000 A 
ATOM     27  C   UNL     1      -3.958  12.769  23.482  0.00  0.00    +0.000 A 
ATOM     28  C   UNL     1      -4.582  13.940  23.915  0.00  0.00    +0.000 A 
ATOM     29  C   UNL     1      -3.816  15.068  24.224  0.00  0.00    +0.000 A 
ATOM     30  C   UNL     1      -2.430  15.019  24.099  0.00  0.00    +0.000 A 
ATOM     31  C   UNL     1      -1.805  13.849  23.666  0.00  0.00    +0.000 A 
ENDBRANCH  25  26
ENDBRANCH  24  25
ENDBRANCH   7  24
TORSDOF 9
ENDMDL
MODEL 6
REMARK VINA RESULT:      -7.6      1.841      3.200
REMARK  Name = 
REMARK  10 active torsions:
REMARK  status: ('A' for Active; 'I' for Inactive)
REMARK    1  A    between atoms: C_1  and  C_2
REMARK    2  A    between atoms: C_2  and  O_3
REMARK    3  A    between atoms: O_3  and  C_4
REMARK    4  A    between atoms: C_4  and  C_5
REMARK    5  A    between atoms: C_5  and  C_6
REMARK    6  A    between atoms: C_6  and  N_7
REMARK    7  A    between atoms: C_8  and  C_10
REMARK    8  A    between atoms: N_16  and  C_17
REMARK    9  A    between atoms: C_17  and  C_18
REMARK   10  A    between atoms: C_18  and  C_19
REMARK                            x       y       z     vdW  Elec       q    Type
REMARK                         _______ _______ _______ _____ _____    ______ ____
ROOT
ATOM      1  C   UNL     1       3.020   6.929  18.742  0.00  0.00    +0.000 A 
ATOM      2  C   UNL     1       2.916   7.926  17.763  0.00  0.00    +0.000 A 
ATOM      3  C   UNL     1       2.069   9.014  17.975  0.00  0.00    +0.000 A 
ATOM      4  C   UNL     1       1.333   9.103  19.161  0.00  0.00    +0.000 A 
ATOM      5  C   UNL     1       0.459  10.257  19.425  0.00  0.00    +0.000 A 
ATOM      6  O   UNL     1       0.410  11.158  18.590  0.00  0.00    +0.000 OA
ATOM      7  N   UNL     1      -0.244  10.260  20.628  0.00  0.00    +0.000 N 
ATOM      8  C   UNL     1      -0.118   9.276  21.599  0.00  0.00    +0.000 A 
ATOM      9  O   UNL     1      -0.679   9.301  22.693  0.00  0.00    +0.000 OA
ATOM     10  N   UNL     1       0.701   8.222  21.306  0.00  0.00    +0.000 N 
ATOM     11  C   UNL     1       1.430   8.109  20.126  0.00  0.00    +0.000 A 
ATOM     12  C   UNL     1       2.264   7.013  19.920  0.00  0.00    +0.000 A 
ATOM     13  H   UNL     1       0.781   7.518  22.030  0.00  0.00    +0.000 HD
ENDROOT
BRANCH   1  15
ATOM     14  N   UNL     1       3.891   5.160  17.316  0.00  0.00    +0.000 N 
ATOM     15  C   UNL     1       3.892   5.744  18.564  0.00  0.00    +0.000 C 
ATOM     16  O   UNL     1       4.584   5.365  19.502  0.00  0.00    +0.000 OA
ATOM     17  H   UNL     1       3.389   5.586  16.550  0.00  0.00    +0.000 HD
BRANCH  14  18
ATOM     18  C   UNL     1       4.747   4.026  17.027  0.00  0.00    +0.000 C 
BRANCH  18  19
ATOM     19  C   UNL     1       6.186   4.463  16.769  0.00  0.00    +0.000 C 
BRANCH  19  20
ATOM     20  C   UNL     1       6.247   5.559  15.713  0.00  0.00    +0.000 C 
BRANCH  20  21
ATOM     21  O   UNL     1       6.368   6.819  16.365  0.00  0.00    +0.000 OA
BRANCH  21  23
ATOM     22  C   UNL     1       7.813   8.225  17.626  0.00  0.00    +0.000 C 
ATOM     23  C   UNL     1       7.335   6.803  17.408  0.00  0.00    +0.000 C 
ENDBRANCH  21  23
ENDBRANCH  20  21
ENDBRANCH  19  20
ENDBRANCH  18  19
ENDBRANCH  14  18
ENDBRANCH   1  15
BRANCH   7  24
ATOM     24  C   UNL     1      -1.046  11.446  20.934  0.00  0.00    +0.000 C 
BRANCH  24  25
ATOM     25  C   UNL     1      -0.416  12.353  22.001  0.00  0.00    +0.000 C 
BRANCH  25  26
ATOM     26  C   UNL     1      -1.461  12.904  22.941  0.00  0.00    +0.000 A 
ATOM     27  C   UNL     1      -2.653  12.204  23.169  0.00  0.00    +0.000 A 
ATOM     28  C   UNL     1      -3.628  12.728  24.021  0.00  0.00    +0.000 A 
ATOM     29  C   UNL     1      -3.420  13.959  24.648  0.00  0.00    +0.000 A 
ATOM     30  C   UNL     1      -2.239  14.661  24.422  0.00  0.00    +0.000 A 
ATOM     31  C   UNL     1      -1.264  14.139  23.571  0.00  0.00    +0.000 A 
ENDBRANCH  25  26
ENDBRANCH  24  25
ENDBRANCH   7  24
TORSDOF 9
ENDMDL
MODEL 7
REMARK VINA RESULT:      -7.5      1.054      1.262
REMARK  Name = 
REMARK  10 active torsions:
REMARK  status: ('A' for Active; 'I' for Inactive)
REMARK    1  A    between atoms: C_1  and  C_2
REMARK    2  A    between atoms: C_2  and  O_3
REMARK    3  A    between atoms: O_3  and  C_4
REMARK    4  A    between atoms: C_4  and  C_5
REMARK    5  A    between atoms: C_5  and  C_6
REMARK    6  A    between atoms: C_6  and  N_7
REMARK    7  A    between atoms: C_8  and  C_10
REMARK    8  A    between atoms: N_16  and  C_17
REMARK    9  A    between atoms: C_17  and  C_18
REMARK   10  A    between atoms: C_18  and  C_19
REMARK                            x       y       z     vdW  Elec       q    Type
REMARK                         _______ _______ _______ _____ _____    ______ ____
ROOT
ATOM      1  C   UNL     1       2.404   7.133  18.690  0.00  0.00    +0.000 A 
ATOM      2  C   UNL     1       1.975   8.140  17.816  0.00  0.00    +0.000 A 
ATOM      3  C   UNL     1       1.306   9.254  18.323  0.00  0.00    +0.000 A 
ATOM      4  C   UNL     1       1.069   9.357  19.698  0.00  0.00    +0.000 A 
ATOM      5  C   UNL     1       0.395  10.537  20.263  0.00  0.00    +0.000 A 
ATOM      6  O   UNL     1       0.068  11.446  19.502  0.00  0.00    +0.000 OA
ATOM      7  N   UNL     1       0.193  10.554  21.641  0.00  0.00    +0.000 N 
ATOM      8  C   UNL     1       0.640   9.559  22.500  0.00  0.00    +0.000 A 
ATOM      9  O   UNL     1       0.529   9.593  23.724  0.00  0.00    +0.000 OA
ATOM     10  N   UNL     1       1.255   8.481  21.928  0.00  0.00    +0.000 N 
ATOM     11  C   UNL     1       1.486   8.353  20.561  0.00  0.00    +0.000 A 
ATOM     12  C   UNL     1       2.146   7.232  20.065  0.00  0.00    +0.000 A 
ATOM     13  H   UNL     1       1.576   7.770  22.573  0.00  0.00    +0.000 HD
ENDROOT
BRANCH   1  15
ATOM     14  N   UNL     1       2.318   4.836  17.893  0.00  0.00    +0.000 N 
ATOM     15  C   UNL     1       3.107   5.921  18.205  0.00  0.00    +0.000 C 
ATOM     16  O   UNL     1       4.326   5.949  18.077  0.00  0.00    +0.000 OA
ATOM     17  H   UNL     1       1.312   4.911  17.908  0.00  0.00    +0.000 HD
BRANCH  14  18
ATOM     18  C   UNL     1       2.906   3.620  17.364  0.00  0.00    +0.000 C 
BRANCH  18  19
ATOM     19  C   UNL     1       2.496   2.399  18.183  0.00  0.00    +0.000 C 
BRANCH  19  20
ATOM     20  C   UNL     1       1.012   2.437  18.521  0.00  0.00    +0.000 C 
BRANCH  20  21
ATOM     21  O   UNL     1       0.836   3.157  19.737  0.00  0.00    +0.000 OA
BRANCH  21  23
ATOM     22  C   UNL     1       2.198   3.785  21.582  0.00  0.00    +0.000 C 
ATOM     23  C   UNL     1       1.611   2.624  20.804  0.00  0.00    +0.000 C 
ENDBRANCH  21  23
ENDBRANCH  20  21
ENDBRANCH  19  20
ENDBRANCH  18  19
ENDBRANCH  14  18
ENDBRANCH   1  15
BRANCH   7  24
ATOM     24  C   UNL     1      -0.396  11.763  22.219  0.00  0.00    +0.000 C 
BRANCH  24  25
ATOM     25  C   UNL     1      -1.727  11.510  22.944  0.00  0.00    +0.000 C 
BRANCH  25  26
ATOM     26  C   UNL     1      -2.729  12.602  22.651  0.00  0.00    +0.000 A 
ATOM     27  C   UNL     1      -3.208  12.797  21.349  0.00  0.00    +0.000 A 
ATOM     28  C   UNL     1      -4.117  13.821  21.077  0.00  0.00    +0.000 A 
ATOM     29  C   UNL     1      -4.550  14.663  22.106  0.00  0.00    +0.000 A 
ATOM     30  C   UNL     1      -4.073  14.477  23.400  0.00  0.00    +0.000 A 
ATOM     31  C   UNL     1      -3.165  13.453  23.673  0.00  0.00    +0.000 A 
ENDBRANCH  25  26
ENDBRANCH  24  25
ENDBRANCH   7  24
TORSDOF 9
ENDMDL
MODEL 8
REMARK VINA RESULT:      -7.4      1.098      1.278
REMARK  Name = 
REMARK  10 active torsions:
REMARK  status: ('A' for Active; 'I' for Inactive)
REMARK    1  A    between atoms: C_1  and  C_2
REMARK    2  A    between atoms: C_2  and  O_3
REMARK    3  A    between atoms: O_3  and  C_4
REMARK    4  A    between atoms: C_4  and  C_5
REMARK    5  A    between atoms: C_5  and  C_6
REMARK    6  A    between atoms: C_6  and  N_7
REMARK    7  A    between atoms: C_8  and  C_10
REMARK    8  A    between atoms: N_16  and  C_17
REMARK    9  A    between atoms: C_17  and  C_18
REMARK   10  A    between atoms: C_18  and  C_19
REMARK                            x       y       z     vdW  Elec       q    Type
REMARK                         _______ _______ _______ _____ _____    ______ ____
ROOT
ATOM      1  C   UNL     1       3.084   7.055  18.481  0.00  0.00    +0.000 A 
ATOM      2  C   UNL     1       2.889   8.086  17.554  0.00  0.00    +0.000 A 
ATOM      3  C   UNL     1       2.001   9.120  17.849  0.00  0.00    +0.000 A 
ATOM      4  C   UNL     1       1.314   9.120  19.068  0.00  0.00    +0.000 A 
ATOM      5  C   UNL     1       0.397  10.217  19.420  0.00  0.00    +0.000 A 
ATOM      6  O   UNL     1       0.268  11.149  18.628  0.00  0.00    +0.000 OA
ATOM      7  N   UNL     1      -0.252  10.133  20.650  0.00  0.00    +0.000 N 
ATOM      8  C   UNL     1      -0.035   9.116  21.570  0.00  0.00    +0.000 A 
ATOM      9  O   UNL     1      -0.548   9.066  22.686  0.00  0.00    +0.000 OA
ATOM     10  N   UNL     1       0.821   8.118  21.196  0.00  0.00    +0.000 N 
ATOM     11  C   UNL     1       1.501   8.092  19.982  0.00  0.00    +0.000 A 
ATOM     12  C   UNL     1       2.378   7.050  19.693  0.00  0.00    +0.000 A 
ATOM     13  H   UNL     1       0.966   7.389  21.883  0.00  0.00    +0.000 HD
ENDROOT
BRANCH   1  15
ATOM     14  N   UNL     1       4.022   4.911  19.148  0.00  0.00    +0.000 N 
ATOM     15  C   UNL     1       4.004   5.924  18.214  0.00  0.00    +0.000 C 
ATOM     16  O   UNL     1       4.669   5.924  17.185  0.00  0.00    +0.000 OA
ATOM     17  H   UNL     1       3.368   4.910  19.917  0.00  0.00    +0.000 HD
BRANCH  14  18
ATOM     18  C   UNL     1       4.852   3.737  18.955  0.00  0.00    +0.000 C 
BRANCH  18  19
ATOM     19  C   UNL     1       4.558   2.666  20.001  0.00  0.00    +0.000 C 
BRANCH  19  20
ATOM     20  C   UNL     1       3.062   2.548  20.262  0.00  0.00    +0.000 C 
BRANCH  20  21
ATOM     21  O   UNL     1       2.375   2.573  19.015  0.00  0.00    +0.000 OA
BRANCH  21  23
ATOM     22  C   UNL     1       0.748   3.838  20.204  0.00  0.00    +0.000 C 
ATOM     23  C   UNL     1       0.972   2.753  19.169  0.00  0.00    +0.000 C 
ENDBRANCH  21  23
ENDBRANCH  20  21
ENDBRANCH  19  20
ENDBRANCH  18  19
ENDBRANCH  14  18
ENDBRANCH   1  15
BRANCH   7  24
ATOM     24  C   UNL     1      -1.095  11.263  21.042  0.00  0.00    +0.000 C 
BRANCH  24  25
ATOM     25  C   UNL     1      -0.453  12.169  22.102  0.00  0.00    +0.000 C 
BRANCH  25  26
ATOM     26  C   UNL     1      -1.498  12.821  22.976  0.00  0.00    +0.000 A 
ATOM     27  C   UNL     1      -1.243  14.056  23.588  0.00  0.00    +0.000 A 
ATOM     28  C   UNL     1      -2.203  14.646  24.413  0.00  0.00    +0.000 A 
ATOM     29  C   UNL     1      -3.423  14.002  24.638  0.00  0.00    +0.000 A 
ATOM     30  C   UNL     1      -3.679  12.773  24.036  0.00  0.00    +0.000 A 
ATOM     31  C   UNL     1      -2.721  12.183  23.211  0.00  0.00    +0.000 A 
ENDBRANCH  25  26
ENDBRANCH  24  25
ENDBRANCH   7  24
TORSDOF 9
ENDMDL
MODEL 9
REMARK VINA RESULT:      -7.4      3.424     10.254
REMARK  Name = 
REMARK  10 active torsions:
REMARK  status: ('A' for Active; 'I' for Inactive)
REMARK    1  A    between atoms: C_1  and  C_2
REMARK    2  A    between atoms: C_2  and  O_3
REMARK    3  A    between atoms: O_3  and  C_4
REMARK    4  A    between atoms: C_4  and  C_5
REMARK    5  A    between atoms: C_5  and  C_6
REMARK    6  A    between atoms: C_6  and  N_7
REMARK    7  A    between atoms: C_8  and  C_10
REMARK    8  A    between atoms: N_16  and  C_17
REMARK    9  A    between atoms: C_17  and  C_18
REMARK   10  A    between atoms: C_18  and  C_19
REMARK                            x       y       z     vdW  Elec       q    Type
REMARK                         _______ _______ _______ _____ _____    ______ ____
ROOT
ATOM      1  C   UNL     1       1.568   8.460  19.486  0.00  0.00    +0.000 A 
ATOM      2  C   UNL     1       1.917   8.961  18.225  0.00  0.00    +0.000 A 
ATOM      3  C   UNL     1       2.898   8.315  17.474  0.00  0.00    +0.000 A 
ATOM      4  C   UNL     1       3.526   7.173  17.984  0.00  0.00    +0.000 A 
ATOM      5  C   UNL     1       4.540   6.452  17.199  0.00  0.00    +0.000 A 
ATOM      6  O   UNL     1       4.807   6.860  16.070  0.00  0.00    +0.000 OA
ATOM      7  N   UNL     1       5.120   5.330  17.786  0.00  0.00    +0.000 N 
ATOM      8  C   UNL     1       4.751   4.831  19.029  0.00  0.00    +0.000 A 
ATOM      9  O   UNL     1       5.205   3.804  19.530  0.00  0.00    +0.000 OA
ATOM     10  N   UNL     1       3.809   5.538  19.723  0.00  0.00    +0.000 N 
ATOM     11  C   UNL     1       3.185   6.684  19.238  0.00  0.00    +0.000 A 
ATOM     12  C   UNL     1       2.214   7.327  20.001  0.00  0.00    +0.000 A 
ATOM     13  H   UNL     1       3.554   5.155  20.624  0.00  0.00    +0.000 HD
ENDROOT
BRANCH   1  15
ATOM     14  N   UNL     1       0.129  10.369  19.941  0.00  0.00    +0.000 N 
ATOM     15  C   UNL     1       0.542   9.114  20.333  0.00  0.00    +0.000 C 
ATOM     16  O   UNL     1       0.094   8.512  21.302  0.00  0.00    +0.000 OA
ATOM     17  H   UNL     1       0.448  10.766  19.069  0.00  0.00    +0.000 HD
BRANCH  14  18
ATOM     18  C   UNL     1      -0.906  11.072  20.674  0.00  0.00    +0.000 C 
BRANCH  18  19
ATOM     19  C   UNL     1      -1.929  11.703  19.733  0.00  0.00    +0.000 C 
BRANCH  19  20
ATOM     20  C   UNL     1      -2.061  10.899  18.446  0.00  0.00    +0.000 C 
BRANCH  20  21
ATOM     21  O   UNL     1      -2.522  11.760  17.411  0.00  0.00    +0.000 OA
BRANCH  21  23
ATOM     22  C   UNL     1      -2.899  10.471  15.448  0.00  0.00    +0.000 C 
ATOM     23  C   UNL     1      -3.550  11.169  16.626  0.00  0.00    +0.000 C 
ENDBRANCH  21  23
ENDBRANCH  20  21
ENDBRANCH  19  20
ENDBRANCH  18  19
ENDBRANCH  14  18
ENDBRANCH   1  15
BRANCH   7  24
ATOM     24  C   UNL     1       6.064   4.559  16.976  0.00  0.00    +0.000 C 
BRANCH  24  25
ATOM     25  C   UNL     1       5.394   3.759  15.849  0.00  0.00    +0.000 C 
BRANCH  25  26
ATOM     26  C   UNL     1       6.074   4.002  14.522  0.00  0.00    +0.000 A 
ATOM     27  C   UNL     1       7.154   4.889  14.429  0.00  0.00    +0.000 A 
ATOM     28  C   UNL     1       7.766   5.129  13.197  0.00  0.00    +0.000 A 
ATOM     29  C   UNL     1       7.298   4.488  12.047  0.00  0.00    +0.000 A 
ATOM     30  C   UNL     1       6.221   3.609  12.134  0.00  0.00    +0.000 A 
ATOM     31  C   UNL     1       5.610   3.368  13.364  0.00  0.00    +0.000 A 
ENDBRANCH  25  26
ENDBRANCH  24  25
ENDBRANCH   7  24
TORSDOF 9
ENDMDL
