MODEL 1
REMARK VINA RESULT:      -7.9      0.000      0.000
REMARK  Name = 
REMARK  3 active torsions:
REMARK  status: ('A' for Active; 'I' for Inactive)
REMARK    1  A    between atoms: N_5  and  C_6
REMARK    2  A    between atoms: C_6  and  C_7
REMARK    3  A    between atoms: C_10  and  C_11
REMARK                            x       y       z     vdW  Elec       q    Type
REMARK                         _______ _______ _______ _____ _____    ______ ____
ROOT
ATOM      1  O   UNL     1       2.760   2.558  21.737  0.00  0.00    +0.000 OA
ATOM      2  C   UNL     1       3.028   3.127  20.700  0.00  0.00    +0.000 C 
ATOM      3  C   UNL     1       3.858   2.578  19.508  0.00  0.00    +0.000 C 
ATOM      4  O   UNL     1       4.407   1.497  19.478  0.00  0.00    +0.000 OA
ATOM      5  N   UNL     1       3.841   3.584  18.553  0.00  0.00    +0.000 N 
ATOM      6  C   UNL     1       3.119   4.699  19.021  0.00  0.00    +0.000 A 
ATOM      7  C   UNL     1       2.882   5.903  18.386  0.00  0.00    +0.000 A 
ATOM      8  C   UNL     1       2.207   6.898  19.101  0.00  0.00    +0.000 A 
ATOM      9 BR   UNL     1       1.938   8.588  18.291  0.00  0.00    +0.000 Br
ATOM     10  C   UNL     1       1.743   6.676  20.411  0.00  0.00    +0.000 A 
ATOM     11  C   UNL     1       1.943   5.439  21.028  0.00  0.00    +0.000 A 
ATOM     12  C   UNL     1       2.633   4.479  20.310  0.00  0.00    +0.000 A 
ENDROOT
BRANCH   5  13
ATOM     13  C   UNL     1       4.667   3.560  17.361  0.00  0.00    +0.000 C 
BRANCH  13  14
ATOM     14  C   UNL     1       5.687   4.683  17.371  0.00  0.00    +0.000 A 
ATOM     15  C   UNL     1       6.600   4.799  18.429  0.00  0.00    +0.000 A 
ATOM     16  C   UNL     1       7.409   5.933  18.551  0.00  0.00    +0.000 A 
ATOM     17  C   UNL     1       7.314   6.978  17.622  0.00  0.00    +0.000 A 
ATOM     18  C   UNL     1       6.470   6.821  16.515  0.00  0.00    +0.000 A 
ATOM     19  C   UNL     1       5.670   5.683  16.389  0.00  0.00    +0.000 A 
BRANCH  17  20
ATOM     20  C   UNL     1       8.043   8.283  17.829  0.00  0.00    +0.000 C 
ATOM     21  F   UNL     1       7.219   9.358  17.964  0.00  0.00    +0.000 F 
ATOM     22  F   UNL     1       8.839   8.275  18.933  0.00  0.00    +0.000 F 
ATOM     23  F   UNL     1       8.865   8.578  16.781  0.00  0.00    +0.000 F 
ENDBRANCH  17  20
ENDBRANCH  13  14
ENDBRANCH   5  13
TORSDOF 3
ENDMDL
MODEL 2
REMARK VINA RESULT:      -7.8      3.014      3.730
REMARK  Name = 
REMARK  3 active torsions:
REMARK  status: ('A' for Active; 'I' for Inactive)
REMARK    1  A    between atoms: N_5  and  C_6
REMARK    2  A    between atoms: C_6  and  C_7
REMARK    3  A    between atoms: C_10  and  C_11
REMARK                            x       y       z     vdW  Elec       q    Type
REMARK                         _______ _______ _______ _____ _____    ______ ____
ROOT
ATOM      1  O   UNL     1       2.496   2.405  21.203  0.00  0.00    +0.000 OA
ATOM      2  C   UNL     1       3.101   3.206  20.523  0.00  0.00    +0.000 C 
ATOM      3  C   UNL     1       4.500   3.028  19.873  0.00  0.00    +0.000 C 
ATOM      4  O   UNL     1       5.215   2.058  20.007  0.00  0.00    +0.000 OA
ATOM      5  N   UNL     1       4.730   4.200  19.167  0.00  0.00    +0.000 N 
ATOM      6  C   UNL     1       3.650   5.090  19.319  0.00  0.00    +0.000 A 
ATOM      7  C   UNL     1       3.495   6.359  18.794  0.00  0.00    +0.000 A 
ATOM      8  C   UNL     1       2.361   7.088  19.168  0.00  0.00    +0.000 A 
ATOM      9 BR   UNL     1       2.159   8.860  18.532  0.00  0.00    +0.000 Br
ATOM     10  C   UNL     1       1.383   6.542  20.018  0.00  0.00    +0.000 A 
ATOM     11  C   UNL     1       1.522   5.240  20.506  0.00  0.00    +0.000 A 
ATOM     12  C   UNL     1       2.662   4.547  20.141  0.00  0.00    +0.000 A 
ENDROOT
BRANCH   5  13
ATOM     13  C   UNL     1       6.012   4.531  18.574  0.00  0.00    +0.000 C 
BRANCH  13  14
ATOM     14  C   UNL     1       5.946   4.503  17.059  0.00  0.00    +0.000 A 
ATOM     15  C   UNL     1       4.824   3.967  16.410  0.00  0.00    +0.000 A 
ATOM     16  C   UNL     1       4.834   3.756  15.028  0.00  0.00    +0.000 A 
ATOM     17  C   UNL     1       5.969   4.068  14.269  0.00  0.00    +0.000 A 
ATOM     18  C   UNL     1       7.054   4.689  14.902  0.00  0.00    +0.000 A 
ATOM     19  C   UNL     1       7.039   4.909  16.281  0.00  0.00    +0.000 A 
BRANCH  17  20
ATOM     20  C   UNL     1       6.071   3.687  12.812  0.00  0.00    +0.000 C 
ATOM     21  F   UNL     1       4.904   3.824  12.125  0.00  0.00    +0.000 F 
ATOM     22  F   UNL     1       6.996   4.421  12.136  0.00  0.00    +0.000 F 
ATOM     23  F   UNL     1       6.443   2.384  12.652  0.00  0.00    +0.000 F 
ENDBRANCH  17  20
ENDBRANCH  13  14
ENDBRANCH   5  13
TORSDOF 3
ENDMDL
MODEL 3
REMARK VINA RESULT:      -7.8      0.736      1.081
REMARK  Name = 
REMARK  3 active torsions:
REMARK  status: ('A' for Active; 'I' for Inactive)
REMARK    1  A    between atoms: N_5  and  C_6
REMARK    2  A    between atoms: C_6  and  C_7
REMARK    3  A    between atoms: C_10  and  C_11
REMARK                            x       y       z     vdW  Elec       q    Type
REMARK                         _______ _______ _______ _____ _____    ______ ____
ROOT
ATOM      1  O   UNL     1       1.833   3.262  21.710  0.00  0.00    +0.000 OA
ATOM      2  C   UNL     1       2.198   3.758  20.665  0.00  0.00    +0.000 C 
ATOM      3  C   UNL     1       2.933   3.056  19.492  0.00  0.00    +0.000 C 
ATOM      4  O   UNL     1       3.295   1.898  19.486  0.00  0.00    +0.000 OA
ATOM      5  N   UNL     1       3.091   4.032  18.519  0.00  0.00    +0.000 N 
ATOM      6  C   UNL     1       2.562   5.260  18.959  0.00  0.00    +0.000 A 
ATOM      7  C   UNL     1       2.532   6.475  18.301  0.00  0.00    +0.000 A 
ATOM      8  C   UNL     1       2.027   7.581  18.992  0.00  0.00    +0.000 A 
ATOM      9 BR   UNL     1       2.049   9.277  18.148  0.00  0.00    +0.000 Br
ATOM     10  C   UNL     1       1.524   7.465  20.300  0.00  0.00    +0.000 A 
ATOM     11  C   UNL     1       1.511   6.224  20.941  0.00  0.00    +0.000 A 
ATOM     12  C   UNL     1       2.037   5.149  20.247  0.00  0.00    +0.000 A 
ENDROOT
BRANCH   5  13
ATOM     13  C   UNL     1       3.909   3.848  17.335  0.00  0.00    +0.000 C 
BRANCH  13  14
ATOM     14  C   UNL     1       5.069   4.826  17.306  0.00  0.00    +0.000 A 
ATOM     15  C   UNL     1       6.088   4.741  18.265  0.00  0.00    +0.000 A 
ATOM     16  C   UNL     1       7.053   5.748  18.370  0.00  0.00    +0.000 A 
ATOM     17  C   UNL     1       7.011   6.865  17.525  0.00  0.00    +0.000 A 
ATOM     18  C   UNL     1       6.048   6.904  16.508  0.00  0.00    +0.000 A 
ATOM     19  C   UNL     1       5.092   5.892  16.397  0.00  0.00    +0.000 A 
BRANCH  17  20
ATOM     20  C   UNL     1       7.927   8.045  17.734  0.00  0.00    +0.000 C 
ATOM     21  F   UNL     1       8.793   8.258  16.706  0.00  0.00    +0.000 F 
ATOM     22  F   UNL     1       7.253   9.215  17.909  0.00  0.00    +0.000 F 
ATOM     23  F   UNL     1       8.704   7.895  18.846  0.00  0.00    +0.000 F 
ENDBRANCH  17  20
ENDBRANCH  13  14
ENDBRANCH   5  13
TORSDOF 3
ENDMDL
MODEL 4
REMARK VINA RESULT:      -7.5      3.258      3.976
REMARK  Name = 
REMARK  3 active torsions:
REMARK  status: ('A' for Active; 'I' for Inactive)
REMARK    1  A    between atoms: N_5  and  C_6
REMARK    2  A    between atoms: C_6  and  C_7
REMARK    3  A    between atoms: C_10  and  C_11
REMARK                            x       y       z     vdW  Elec       q    Type
REMARK                         _______ _______ _______ _____ _____    ______ ____
ROOT
ATOM      1  O   UNL     1       2.714   3.240  21.032  0.00  0.00    +0.000 OA
ATOM      2  C   UNL     1       3.238   4.027  20.272  0.00  0.00    +0.000 C 
ATOM      3  C   UNL     1       4.591   3.863  19.528  0.00  0.00    +0.000 C 
ATOM      4  O   UNL     1       5.347   2.924  19.651  0.00  0.00    +0.000 OA
ATOM      5  N   UNL     1       4.726   5.007  18.754  0.00  0.00    +0.000 N 
ATOM      6  C   UNL     1       3.630   5.868  18.948  0.00  0.00    +0.000 A 
ATOM      7  C   UNL     1       3.391   7.105  18.379  0.00  0.00    +0.000 A 
ATOM      8  C   UNL     1       2.262   7.814  18.805  0.00  0.00    +0.000 A 
ATOM      9 BR   UNL     1       1.951   9.547  18.107  0.00  0.00    +0.000 Br
ATOM     10  C   UNL     1       1.370   7.278  19.750  0.00  0.00    +0.000 A 
ATOM     11  C   UNL     1       1.591   6.006  20.284  0.00  0.00    +0.000 A 
ATOM     12  C   UNL     1       2.725   5.333  19.865  0.00  0.00    +0.000 A 
ENDROOT
BRANCH   5  13
ATOM     13  C   UNL     1       5.948   5.350  18.052  0.00  0.00    +0.000 C 
BRANCH  13  14
ATOM     14  C   UNL     1       5.998   4.710  16.678  0.00  0.00    +0.000 A 
ATOM     15  C   UNL     1       7.142   4.841  15.879  0.00  0.00    +0.000 A 
ATOM     16  C   UNL     1       7.129   4.428  14.543  0.00  0.00    +0.000 A 
ATOM     17  C   UNL     1       5.968   3.885  13.977  0.00  0.00    +0.000 A 
ATOM     18  C   UNL     1       4.855   3.669  14.801  0.00  0.00    +0.000 A 
ATOM     19  C   UNL     1       4.873   4.072  16.137  0.00  0.00    +0.000 A 
BRANCH  17  20
ATOM     20  C   UNL     1       5.873   3.598  12.499  0.00  0.00    +0.000 C 
ATOM     21  F   UNL     1       6.767   4.293  11.744  0.00  0.00    +0.000 F 
ATOM     22  F   UNL     1       6.067   2.284  12.201  0.00  0.00    +0.000 F 
ATOM     23  F   UNL     1       4.643   3.913  11.998  0.00  0.00    +0.000 F 
ENDBRANCH  17  20
ENDBRANCH  13  14
ENDBRANCH   5  13
TORSDOF 3
ENDMDL
MODEL 5
REMARK VINA RESULT:      -7.5      4.181      5.065
REMARK  Name = 
REMARK  3 active torsions:
REMARK  status: ('A' for Active; 'I' for Inactive)
REMARK    1  A    between atoms: N_5  and  C_6
REMARK    2  A    between atoms: C_6  and  C_7
REMARK    3  A    between atoms: C_10  and  C_11
REMARK                            x       y       z     vdW  Elec       q    Type
REMARK                         _______ _______ _______ _____ _____    ______ ____
ROOT
ATOM      1  O   UNL     1       2.863   8.384  17.506  0.00  0.00    +0.000 OA
ATOM      2  C   UNL     1       3.489   7.412  17.871  0.00  0.00    +0.000 C 
ATOM      3  C   UNL     1       4.927   7.001  17.451  0.00  0.00    +0.000 C 
ATOM      4  O   UNL     1       5.612   7.587  16.640  0.00  0.00    +0.000 OA
ATOM      5  N   UNL     1       5.206   5.848  18.170  0.00  0.00    +0.000 N 
ATOM      6  C   UNL     1       4.104   5.483  18.967  0.00  0.00    +0.000 A 
ATOM      7  C   UNL     1       3.971   4.399  19.814  0.00  0.00    +0.000 A 
ATOM      8  C   UNL     1       2.733   4.201  20.434  0.00  0.00    +0.000 A 
ATOM      9 BR   UNL     1       2.492   2.680  21.535  0.00  0.00    +0.000 Br
ATOM     10  C   UNL     1       1.663   5.094  20.243  0.00  0.00    +0.000 A 
ATOM     11  C   UNL     1       1.820   6.215  19.425  0.00  0.00    +0.000 A 
ATOM     12  C   UNL     1       3.046   6.377  18.804  0.00  0.00    +0.000 A 
ENDROOT
BRANCH   5  13
ATOM     13  C   UNL     1       6.373   5.022  17.924  0.00  0.00    +0.000 C 
BRANCH  13  14
ATOM     14  C   UNL     1       6.381   4.482  16.507  0.00  0.00    +0.000 A 
ATOM     15  C   UNL     1       7.353   4.914  15.592  0.00  0.00    +0.000 A 
ATOM     16  C   UNL     1       7.255   4.577  14.239  0.00  0.00    +0.000 A 
ATOM     17  C   UNL     1       6.179   3.811  13.771  0.00  0.00    +0.000 A 
ATOM     18  C   UNL     1       5.261   3.303  14.699  0.00  0.00    +0.000 A 
ATOM     19  C   UNL     1       5.365   3.631  16.052  0.00  0.00    +0.000 A 
BRANCH  17  20
ATOM     20  C   UNL     1       5.956   3.585  12.296  0.00  0.00    +0.000 C 
ATOM     21  F   UNL     1       4.705   3.913  11.872  0.00  0.00    +0.000 F 
ATOM     22  F   UNL     1       6.817   4.295  11.516  0.00  0.00    +0.000 F 
ATOM     23  F   UNL     1       6.133   2.278  11.949  0.00  0.00    +0.000 F 
ENDBRANCH  17  20
ENDBRANCH  13  14
ENDBRANCH   5  13
TORSDOF 3
ENDMDL
MODEL 6
REMARK VINA RESULT:      -7.4      3.529      5.628
REMARK  Name = 
REMARK  3 active torsions:
REMARK  status: ('A' for Active; 'I' for Inactive)
REMARK    1  A    between atoms: N_5  and  C_6
REMARK    2  A    between atoms: C_6  and  C_7
REMARK    3  A    between atoms: C_10  and  C_11
REMARK                            x       y       z     vdW  Elec       q    Type
REMARK                         _______ _______ _______ _____ _____    ______ ____
ROOT
ATOM      1  O   UNL     1       2.402   2.716  16.434  0.00  0.00    +0.000 OA
ATOM      2  C   UNL     1       2.793   3.411  17.347  0.00  0.00    +0.000 C 
ATOM      3  C   UNL     1       1.992   3.872  18.595  0.00  0.00    +0.000 C 
ATOM      4  O   UNL     1       0.820   3.636  18.799  0.00  0.00    +0.000 OA
ATOM      5  N   UNL     1       2.888   4.606  19.358  0.00  0.00    +0.000 N 
ATOM      6  C   UNL     1       4.142   4.672  18.722  0.00  0.00    +0.000 A 
ATOM      7  C   UNL     1       5.292   5.315  19.142  0.00  0.00    +0.000 A 
ATOM      8  C   UNL     1       6.395   5.310  18.281  0.00  0.00    +0.000 A 
ATOM      9 BR   UNL     1       7.957   6.251  18.790  0.00  0.00    +0.000 Br
ATOM     10  C   UNL     1       6.361   4.642  17.044  0.00  0.00    +0.000 A 
ATOM     11  C   UNL     1       5.211   3.953  16.648  0.00  0.00    +0.000 A 
ATOM     12  C   UNL     1       4.126   3.990  17.505  0.00  0.00    +0.000 A 
ENDROOT
BRANCH   5  13
ATOM     13  C   UNL     1       2.492   5.388  20.514  0.00  0.00    +0.000 C 
BRANCH  13  14
ATOM     14  C   UNL     1       2.147   6.813  20.126  0.00  0.00    +0.000 A 
ATOM     15  C   UNL     1       1.464   7.644  21.026  0.00  0.00    +0.000 A 
ATOM     16  C   UNL     1       0.969   8.885  20.614  0.00  0.00    +0.000 A 
ATOM     17  C   UNL     1       1.138   9.316  19.292  0.00  0.00    +0.000 A 
ATOM     18  C   UNL     1       1.900   8.528  18.419  0.00  0.00    +0.000 A 
ATOM     19  C   UNL     1       2.403   7.293  18.834  0.00  0.00    +0.000 A 
BRANCH  17  20
ATOM     20  C   UNL     1       0.463  10.564  18.778  0.00  0.00    +0.000 C 
ATOM     21  F   UNL     1      -0.468  10.328  17.812  0.00  0.00    +0.000 F 
ATOM     22  F   UNL     1      -0.176  11.261  19.756  0.00  0.00    +0.000 F 
ATOM     23  F   UNL     1       1.356  11.435  18.224  0.00  0.00    +0.000 F 
ENDBRANCH  17  20
ENDBRANCH  13  14
ENDBRANCH   5  13
TORSDOF 3
ENDMDL
MODEL 7
REMARK VINA RESULT:      -7.3      6.558      8.427
REMARK  Name = 
REMARK  3 active torsions:
REMARK  status: ('A' for Active; 'I' for Inactive)
REMARK    1  A    between atoms: N_5  and  C_6
REMARK    2  A    between atoms: C_6  and  C_7
REMARK    3  A    between atoms: C_10  and  C_11
REMARK                            x       y       z     vdW  Elec       q    Type
REMARK                         _______ _______ _______ _____ _____    ______ ____
ROOT
ATOM      1  O   UNL     1      -3.640  12.703  21.021  0.00  0.00    +0.000 OA
ATOM      2  C   UNL     1      -2.854  12.322  20.180  0.00  0.00    +0.000 C 
ATOM      3  C   UNL     1      -1.305  12.290  20.279  0.00  0.00    +0.000 C 
ATOM      4  O   UNL     1      -0.656  12.702  21.217  0.00  0.00    +0.000 OA
ATOM      5  N   UNL     1      -0.871  11.733  19.085  0.00  0.00    +0.000 N 
ATOM      6  C   UNL     1      -1.965  11.437  18.250  0.00  0.00    +0.000 A 
ATOM      7  C   UNL     1      -1.961  10.891  16.980  0.00  0.00    +0.000 A 
ATOM      8  C   UNL     1      -3.185  10.775  16.313  0.00  0.00    +0.000 A 
ATOM      9 BR   UNL     1      -3.205  10.108  14.541  0.00  0.00    +0.000 Br
ATOM     10  C   UNL     1      -4.393  11.162  16.921  0.00  0.00    +0.000 A 
ATOM     11  C   UNL     1      -4.395  11.667  18.224  0.00  0.00    +0.000 A 
ATOM     12  C   UNL     1      -3.171  11.793  18.854  0.00  0.00    +0.000 A 
ENDROOT
BRANCH   5  13
ATOM     13  C   UNL     1       0.522  11.705  18.682  0.00  0.00    +0.000 C 
BRANCH  13  14
ATOM     14  C   UNL     1       1.160  10.363  18.984  0.00  0.00    +0.000 A 
ATOM     15  C   UNL     1       1.845   9.664  17.979  0.00  0.00    +0.000 A 
ATOM     16  C   UNL     1       2.264   8.347  18.187  0.00  0.00    +0.000 A 
ATOM     17  C   UNL     1       1.999   7.698  19.401  0.00  0.00    +0.000 A 
ATOM     18  C   UNL     1       1.399   8.426  20.436  0.00  0.00    +0.000 A 
ATOM     19  C   UNL     1       0.989   9.745  20.231  0.00  0.00    +0.000 A 
BRANCH  17  20
ATOM     20  C   UNL     1       2.282   6.228  19.586  0.00  0.00    +0.000 C 
ATOM     21  F   UNL     1       1.959   5.465  18.506  0.00  0.00    +0.000 F 
ATOM     22  F   UNL     1       3.592   5.970  19.853  0.00  0.00    +0.000 F 
ATOM     23  F   UNL     1       1.580   5.702  20.632  0.00  0.00    +0.000 F 
ENDBRANCH  17  20
ENDBRANCH  13  14
ENDBRANCH   5  13
TORSDOF 3
ENDMDL
MODEL 8
REMARK VINA RESULT:      -7.3      4.154      5.029
REMARK  Name = 
REMARK  3 active torsions:
REMARK  status: ('A' for Active; 'I' for Inactive)
REMARK    1  A    between atoms: N_5  and  C_6
REMARK    2  A    between atoms: C_6  and  C_7
REMARK    3  A    between atoms: C_10  and  C_11
REMARK                            x       y       z     vdW  Elec       q    Type
REMARK                         _______ _______ _______ _____ _____    ______ ____
ROOT
ATOM      1  O   UNL     1       2.857   8.457  17.996  0.00  0.00    +0.000 OA
ATOM      2  C   UNL     1       3.384   7.389  18.223  0.00  0.00    +0.000 C 
ATOM      3  C   UNL     1       4.706   6.841  17.621  0.00  0.00    +0.000 C 
ATOM      4  O   UNL     1       5.378   7.403  16.783  0.00  0.00    +0.000 OA
ATOM      5  N   UNL     1       4.902   5.607  18.224  0.00  0.00    +0.000 N 
ATOM      6  C   UNL     1       3.847   5.316  19.110  0.00  0.00    +0.000 A 
ATOM      7  C   UNL     1       3.658   4.190  19.889  0.00  0.00    +0.000 A 
ATOM      8  C   UNL     1       2.473   4.096  20.626  0.00  0.00    +0.000 A 
ATOM      9 BR   UNL     1       2.145   2.530  21.638  0.00  0.00    +0.000 Br
ATOM     10  C   UNL     1       1.515   5.126  20.614  0.00  0.00    +0.000 A 
ATOM     11  C   UNL     1       1.736   6.283  19.863  0.00  0.00    +0.000 A 
ATOM     12  C   UNL     1       2.904   6.344  19.125  0.00  0.00    +0.000 A 
ENDROOT
BRANCH   5  13
ATOM     13  C   UNL     1       5.921   4.667  17.796  0.00  0.00    +0.000 C 
BRANCH  13  14
ATOM     14  C   UNL     1       6.000   4.586  16.284  0.00  0.00    +0.000 A 
ATOM     15  C   UNL     1       4.904   4.118  15.543  0.00  0.00    +0.000 A 
ATOM     16  C   UNL     1       5.030   3.854  14.176  0.00  0.00    +0.000 A 
ATOM     17  C   UNL     1       6.256   4.040  13.524  0.00  0.00    +0.000 A 
ATOM     18  C   UNL     1       7.323   4.594  14.243  0.00  0.00    +0.000 A 
ATOM     19  C   UNL     1       7.194   4.869  15.606  0.00  0.00    +0.000 A 
BRANCH  17  20
ATOM     20  C   UNL     1       6.465   3.595  12.098  0.00  0.00    +0.000 C 
ATOM     21  F   UNL     1       5.316   3.509  11.374  0.00  0.00    +0.000 F 
ATOM     22  F   UNL     1       7.290   4.424  11.400  0.00  0.00    +0.000 F 
ATOM     23  F   UNL     1       7.038   2.359  12.029  0.00  0.00    +0.000 F 
ENDBRANCH  17  20
ENDBRANCH  13  14
ENDBRANCH   5  13
TORSDOF 3
ENDMDL
MODEL 9
REMARK VINA RESULT:      -7.3      4.144      5.932
REMARK  Name = 
REMARK  3 active torsions:
REMARK  status: ('A' for Active; 'I' for Inactive)
REMARK    1  A    between atoms: N_5  and  C_6
REMARK    2  A    between atoms: C_6  and  C_7
REMARK    3  A    between atoms: C_10  and  C_11
REMARK                            x       y       z     vdW  Elec       q    Type
REMARK                         _______ _______ _______ _____ _____    ______ ____
ROOT
ATOM      1  O   UNL     1       7.237   4.758  18.747  0.00  0.00    +0.000 OA
ATOM      2  C   UNL     1       6.098   5.023  18.426  0.00  0.00    +0.000 C 
ATOM      3  C   UNL     1       5.589   6.311  17.724  0.00  0.00    +0.000 C 
ATOM      4  O   UNL     1       6.274   7.271  17.442  0.00  0.00    +0.000 OA
ATOM      5  N   UNL     1       4.229   6.116  17.537  0.00  0.00    +0.000 N 
ATOM      6  C   UNL     1       3.830   4.870  18.059  0.00  0.00    +0.000 A 
ATOM      7  C   UNL     1       2.568   4.308  18.087  0.00  0.00    +0.000 A 
ATOM      8  C   UNL     1       2.411   3.085  18.749  0.00  0.00    +0.000 A 
ATOM      9 BR   UNL     1       0.681   2.328  18.876  0.00  0.00    +0.000 Br
ATOM     10  C   UNL     1       3.503   2.421  19.336  0.00  0.00    +0.000 A 
ATOM     11  C   UNL     1       4.785   2.972  19.261  0.00  0.00    +0.000 A 
ATOM     12  C   UNL     1       4.912   4.192  18.622  0.00  0.00    +0.000 A 
ENDROOT
BRANCH   5  13
ATOM     13  C   UNL     1       3.330   7.164  17.093  0.00  0.00    +0.000 C 
BRANCH  13  14
ATOM     14  C   UNL     1       2.634   7.831  18.264  0.00  0.00    +0.000 A 
ATOM     15  C   UNL     1       2.587   7.195  19.513  0.00  0.00    +0.000 A 
ATOM     16  C   UNL     1       1.787   7.702  20.541  0.00  0.00    +0.000 A 
ATOM     17  C   UNL     1       1.010   8.851  20.337  0.00  0.00    +0.000 A 
ATOM     18  C   UNL     1       1.129   9.538  19.122  0.00  0.00    +0.000 A 
ATOM     19  C   UNL     1       1.936   9.036  18.100  0.00  0.00    +0.000 A 
BRANCH  17  20
ATOM     20  C   UNL     1       0.007   9.315  21.365  0.00  0.00    +0.000 C 
ATOM     21  F   UNL     1       0.571   9.813  22.499  0.00  0.00    +0.000 F 
ATOM     22  F   UNL     1      -0.820  10.289  20.895  0.00  0.00    +0.000 F 
ATOM     23  F   UNL     1      -0.809   8.301  21.774  0.00  0.00    +0.000 F 
ENDBRANCH  17  20
ENDBRANCH  13  14
ENDBRANCH   5  13
TORSDOF 3
ENDMDL
