MODEL 1
REMARK VINA RESULT:      -7.7      0.000      0.000
REMARK  Name = 
REMARK  4 active torsions:
REMARK  status: ('A' for Active; 'I' for Inactive)
REMARK    1  A    between atoms: C_2  and  C_7
REMARK    2  A    between atoms: N_3  and  C_4
REMARK    3  A    between atoms: C_4  and  C_5
REMARK    4  A    between atoms: C_5  and  O_6
REMARK                            x       y       z     vdW  Elec       q    Type
REMARK                         _______ _______ _______ _____ _____    ______ ____
ROOT
ATOM      1  C   UNL     1       6.079   4.441  14.360  0.00  0.00    +0.000 A 
ATOM      2  C   UNL     1       5.876   5.836  14.637  0.00  0.00    +0.000 A 
ATOM      3  C   UNL     1       5.219   6.321  15.786  0.00  0.00    +0.000 A 
ATOM      4  C   UNL     1       4.797   5.277  16.599  0.00  0.00    +0.000 A 
ATOM      5  C   UNL     1       4.072   5.422  17.747  0.00  0.00    +0.000 A 
ATOM      6  N   UNL     1       3.904   4.134  18.221  0.00  0.00    +0.000 N 
ATOM      7  N   UNL     1       4.448   3.183  17.418  0.00  0.00    +0.000 NA
ATOM      8  C   UNL     1       4.979   3.865  16.385  0.00  0.00    +0.000 A 
ATOM      9  C   UNL     1       5.635   3.404  15.227  0.00  0.00    +0.000 A 
ATOM     10  C   UNL     1       3.245   3.868  19.437  0.00  0.00    +0.000 A 
ATOM     11  C   UNL     1       3.240   2.606  20.033  0.00  0.00    +0.000 A 
ATOM     12  C   UNL     1       2.595   2.442  21.259  0.00  0.00    +0.000 A 
ATOM     13  C   UNL     1       1.951   3.523  21.873  0.00  0.00    +0.000 A 
ATOM     14  C   UNL     1       1.944   4.779  21.262  0.00  0.00    +0.000 A 
ATOM     15  C   UNL     1       2.602   4.963  20.041  0.00  0.00    +0.000 A 
ATOM     16  C   UNL     1       2.532   6.276  19.301  0.00  0.00    +0.000 C 
ATOM     17  O   UNL     1       3.629   6.505  18.399  0.00  0.00    +0.000 OA
ENDROOT
BRANCH   1  19
ATOM     18  O   UNL     1       7.508   4.788  12.517  0.00  0.00    +0.000 OA
ATOM     19  C   UNL     1       6.726   4.029  13.080  0.00  0.00    +0.000 C 
ATOM     20  N   UNL     1       6.392   2.785  12.580  0.00  0.00    +0.000 N 
ATOM     21  H   UNL     1       5.633   2.259  12.991  0.00  0.00    +0.000 HD
BRANCH  20  22
ATOM     22  C   UNL     1       6.933   2.307  11.314  0.00  0.00    +0.000 C 
BRANCH  22  23
ATOM     23  C   UNL     1       6.158   1.106  10.770  0.00  0.00    +0.000 C 
BRANCH  23  24
ATOM     24  O   UNL     1       6.459  -0.062  11.534  0.00  0.00    +0.000 OA
ATOM     25  H   UNL     1       7.360   0.069  11.875  0.00  0.00    +0.000 HD
ENDBRANCH  23  24
ENDBRANCH  22  23
ENDBRANCH  20  22
ENDBRANCH   1  19
TORSDOF 4
ENDMDL
MODEL 2
REMARK VINA RESULT:      -7.7      4.471      6.936
REMARK  Name = 
REMARK  4 active torsions:
REMARK  status: ('A' for Active; 'I' for Inactive)
REMARK    1  A    between atoms: C_2  and  C_7
REMARK    2  A    between atoms: N_3  and  C_4
REMARK    3  A    between atoms: C_4  and  C_5
REMARK    4  A    between atoms: C_5  and  O_6
REMARK                            x       y       z     vdW  Elec       q    Type
REMARK                         _______ _______ _______ _____ _____    ______ ____
ROOT
ATOM      1  C   UNL     1       3.302   5.999  18.906  0.00  0.00    +0.000 A 
ATOM      2  C   UNL     1       3.351   6.937  17.818  0.00  0.00    +0.000 A 
ATOM      3  C   UNL     1       2.679   8.176  17.819  0.00  0.00    +0.000 A 
ATOM      4  C   UNL     1       1.967   8.358  18.998  0.00  0.00    +0.000 A 
ATOM      5  C   UNL     1       1.161   9.427  19.269  0.00  0.00    +0.000 A 
ATOM      6  N   UNL     1       0.687   9.193  20.546  0.00  0.00    +0.000 N 
ATOM      7  N   UNL     1       1.117   8.021  21.081  0.00  0.00    +0.000 NA
ATOM      8  C   UNL     1       1.887   7.466  20.125  0.00  0.00    +0.000 A 
ATOM      9  C   UNL     1       2.564   6.232  20.100  0.00  0.00    +0.000 A 
ATOM     10  C   UNL     1      -0.146  10.115  21.212  0.00  0.00    +0.000 A 
ATOM     11  C   UNL     1      -0.471   9.999  22.564  0.00  0.00    +0.000 A 
ATOM     12  C   UNL     1      -1.270  10.979  23.151  0.00  0.00    +0.000 A 
ATOM     13  C   UNL     1      -1.750  12.054  22.392  0.00  0.00    +0.000 A 
ATOM     14  C   UNL     1      -1.436  12.153  21.035  0.00  0.00    +0.000 A 
ATOM     15  C   UNL     1      -0.621  11.186  20.436  0.00  0.00    +0.000 A 
ATOM     16  C   UNL     1      -0.343  11.202  18.953  0.00  0.00    +0.000 C 
ATOM     17  O   UNL     1       0.872  10.534  18.572  0.00  0.00    +0.000 OA
ENDROOT
BRANCH   1  19
ATOM     18  O   UNL     1       4.861   4.527  17.924  0.00  0.00    +0.000 OA
ATOM     19  C   UNL     1       3.994   4.683  18.778  0.00  0.00    +0.000 C 
ATOM     20  N   UNL     1       3.604   3.682  19.645  0.00  0.00    +0.000 N 
ATOM     21  H   UNL     1       2.785   3.803  20.227  0.00  0.00    +0.000 HD
BRANCH  20  22
ATOM     22  C   UNL     1       4.184   2.347  19.573  0.00  0.00    +0.000 C 
BRANCH  22  23
ATOM     23  C   UNL     1       3.541   1.494  18.480  0.00  0.00    +0.000 C 
BRANCH  23  24
ATOM     24  O   UNL     1       2.119   1.551  18.581  0.00  0.00    +0.000 OA
ATOM     25  H   UNL     1       1.872   2.458  18.332  0.00  0.00    +0.000 HD
ENDBRANCH  23  24
ENDBRANCH  22  23
ENDBRANCH  20  22
ENDBRANCH   1  19
TORSDOF 4
ENDMDL
MODEL 3
REMARK VINA RESULT:      -7.7      2.016      3.304
REMARK  Name = 
REMARK  4 active torsions:
REMARK  status: ('A' for Active; 'I' for Inactive)
REMARK    1  A    between atoms: C_2  and  C_7
REMARK    2  A    between atoms: N_3  and  C_4
REMARK    3  A    between atoms: C_4  and  C_5
REMARK    4  A    between atoms: C_5  and  O_6
REMARK                            x       y       z     vdW  Elec       q    Type
REMARK                         _______ _______ _______ _____ _____    ______ ____
ROOT
ATOM      1  C   UNL     1       5.672   4.937  15.467  0.00  0.00    +0.000 A 
ATOM      2  C   UNL     1       5.275   3.780  16.223  0.00  0.00    +0.000 A 
ATOM      3  C   UNL     1       4.391   3.825  17.319  0.00  0.00    +0.000 A 
ATOM      4  C   UNL     1       3.966   5.124  17.567  0.00  0.00    +0.000 A 
ATOM      5  C   UNL     1       3.160   5.500  18.604  0.00  0.00    +0.000 A 
ATOM      6  N   UNL     1       2.990   6.862  18.439  0.00  0.00    +0.000 N 
ATOM      7  N   UNL     1       3.672   7.373  17.381  0.00  0.00    +0.000 NA
ATOM      8  C   UNL     1       4.315   6.318  16.842  0.00  0.00    +0.000 A 
ATOM      9  C   UNL     1       5.205   6.250  15.753  0.00  0.00    +0.000 A 
ATOM     10  C   UNL     1       2.162   7.618  19.292  0.00  0.00    +0.000 A 
ATOM     11  C   UNL     1       1.816   8.944  19.029  0.00  0.00    +0.000 A 
ATOM     12  C   UNL     1       0.958   9.604  19.908  0.00  0.00    +0.000 A 
ATOM     13  C   UNL     1       0.465   8.951  21.044  0.00  0.00    +0.000 A 
ATOM     14  C   UNL     1       0.830   7.630  21.311  0.00  0.00    +0.000 A 
ATOM     15  C   UNL     1       1.676   6.949  20.429  0.00  0.00    +0.000 A 
ATOM     16  C   UNL     1       2.174   5.558  20.734  0.00  0.00    +0.000 C 
ATOM     17  O   UNL     1       2.558   4.800  19.574  0.00  0.00    +0.000 OA
ENDROOT
BRANCH   1  19
ATOM     18  O   UNL     1       7.752   5.365  14.441  0.00  0.00    +0.000 OA
ATOM     19  C   UNL     1       6.669   4.792  14.366  0.00  0.00    +0.000 C 
ATOM     20  N   UNL     1       6.305   4.008  13.290  0.00  0.00    +0.000 N 
ATOM     21  H   UNL     1       5.353   3.681  13.197  0.00  0.00    +0.000 HD
BRANCH  20  22
ATOM     22  C   UNL     1       7.188   3.839  12.142  0.00  0.00    +0.000 C 
BRANCH  22  23
ATOM     23  C   UNL     1       6.991   2.488  11.453  0.00  0.00    +0.000 C 
BRANCH  23  24
ATOM     24  O   UNL     1       5.724   1.935  11.806  0.00  0.00    +0.000 OA
ATOM     25  H   UNL     1       5.912   1.059  12.183  0.00  0.00    +0.000 HD
ENDBRANCH  23  24
ENDBRANCH  22  23
ENDBRANCH  20  22
ENDBRANCH   1  19
TORSDOF 4
ENDMDL
MODEL 4
REMARK VINA RESULT:      -7.7      4.820      7.260
REMARK  Name = 
REMARK  4 active torsions:
REMARK  status: ('A' for Active; 'I' for Inactive)
REMARK    1  A    between atoms: C_2  and  C_7
REMARK    2  A    between atoms: N_3  and  C_4
REMARK    3  A    between atoms: C_4  and  C_5
REMARK    4  A    between atoms: C_5  and  O_6
REMARK                            x       y       z     vdW  Elec       q    Type
REMARK                         _______ _______ _______ _____ _____    ______ ____
ROOT
ATOM      1  C   UNL     1       3.091   6.575  18.893  0.00  0.00    +0.000 A 
ATOM      2  C   UNL     1       3.026   7.481  17.779  0.00  0.00    +0.000 A 
ATOM      3  C   UNL     1       2.275   8.673  17.780  0.00  0.00    +0.000 A 
ATOM      4  C   UNL     1       1.611   8.846  18.988  0.00  0.00    +0.000 A 
ATOM      5  C   UNL     1       0.750   9.868  19.270  0.00  0.00    +0.000 A 
ATOM      6  N   UNL     1       0.356   9.643  20.576  0.00  0.00    +0.000 N 
ATOM      7  N   UNL     1       0.887   8.518  21.121  0.00  0.00    +0.000 NA
ATOM      8  C   UNL     1       1.645   7.985  20.142  0.00  0.00    +0.000 A 
ATOM      9  C   UNL     1       2.400   6.797  20.116  0.00  0.00    +0.000 A 
ATOM     10  C   UNL     1      -0.502  10.529  21.258  0.00  0.00    +0.000 A 
ATOM     11  C   UNL     1      -0.752  10.434  22.627  0.00  0.00    +0.000 A 
ATOM     12  C   UNL     1      -1.584  11.379  23.228  0.00  0.00    +0.000 A 
ATOM     13  C   UNL     1      -2.171  12.396  22.465  0.00  0.00    +0.000 A 
ATOM     14  C   UNL     1      -1.931  12.474  21.092  0.00  0.00    +0.000 A 
ATOM     15  C   UNL     1      -1.084  11.544  20.478  0.00  0.00    +0.000 A 
ATOM     16  C   UNL     1      -0.881  11.532  18.983  0.00  0.00    +0.000 C 
ATOM     17  O   UNL     1       0.355  10.932  18.560  0.00  0.00    +0.000 OA
ENDROOT
BRANCH   1  19
ATOM     18  O   UNL     1       5.022   5.247  19.161  0.00  0.00    +0.000 OA
ATOM     19  C   UNL     1       3.861   5.303  18.766  0.00  0.00    +0.000 C 
ATOM     20  N   UNL     1       3.211   4.232  18.186  0.00  0.00    +0.000 N 
ATOM     21  H   UNL     1       2.315   4.363  17.737  0.00  0.00    +0.000 HD
BRANCH  20  22
ATOM     22  C   UNL     1       3.888   2.959  17.973  0.00  0.00    +0.000 C 
BRANCH  22  23
ATOM     23  C   UNL     1       3.755   2.023  19.175  0.00  0.00    +0.000 C 
BRANCH  23  24
ATOM     24  O   UNL     1       5.015   1.878  19.829  0.00  0.00    +0.000 OA
ATOM     25  H   UNL     1       5.687   1.966  19.132  0.00  0.00    +0.000 HD
ENDBRANCH  23  24
ENDBRANCH  22  23
ENDBRANCH  20  22
ENDBRANCH   1  19
TORSDOF 4
ENDMDL
MODEL 5
REMARK VINA RESULT:      -7.5      5.016      7.268
REMARK  Name = 
REMARK  4 active torsions:
REMARK  status: ('A' for Active; 'I' for Inactive)
REMARK    1  A    between atoms: C_2  and  C_7
REMARK    2  A    between atoms: N_3  and  C_4
REMARK    3  A    between atoms: C_4  and  C_5
REMARK    4  A    between atoms: C_5  and  O_6
REMARK                            x       y       z     vdW  Elec       q    Type
REMARK                         _______ _______ _______ _____ _____    ______ ____
ROOT
ATOM      1  C   UNL     1       3.013   6.875  18.695  0.00  0.00    +0.000 A 
ATOM      2  C   UNL     1       2.921   7.833  17.627  0.00  0.00    +0.000 A 
ATOM      3  C   UNL     1       2.156   9.014  17.697  0.00  0.00    +0.000 A 
ATOM      4  C   UNL     1       1.507   9.119  18.920  0.00  0.00    +0.000 A 
ATOM      5  C   UNL     1       0.638  10.116  19.264  0.00  0.00    +0.000 A 
ATOM      6  N   UNL     1       0.265   9.823  20.562  0.00  0.00    +0.000 N 
ATOM      7  N   UNL     1       0.818   8.679  21.044  0.00  0.00    +0.000 NA
ATOM      8  C   UNL     1       1.567   8.204  20.031  0.00  0.00    +0.000 A 
ATOM      9  C   UNL     1       2.335   7.028  19.936  0.00  0.00    +0.000 A 
ATOM     10  C   UNL     1      -0.593  10.664  21.299  0.00  0.00    +0.000 A 
ATOM     11  C   UNL     1      -0.823  10.499  22.665  0.00  0.00    +0.000 A 
ATOM     12  C   UNL     1      -1.658  11.403  23.322  0.00  0.00    +0.000 A 
ATOM     13  C   UNL     1      -2.266  12.449  22.618  0.00  0.00    +0.000 A 
ATOM     14  C   UNL     1      -2.047  12.596  21.247  0.00  0.00    +0.000 A 
ATOM     15  C   UNL     1      -1.198  11.708  20.577  0.00  0.00    +0.000 A 
ATOM     16  C   UNL     1      -1.016  11.772  19.081  0.00  0.00    +0.000 C 
ATOM     17  O   UNL     1       0.221  11.209  18.612  0.00  0.00    +0.000 OA
ENDROOT
BRANCH   1  19
ATOM     18  O   UNL     1       3.216   4.573  18.226  0.00  0.00    +0.000 OA
ATOM     19  C   UNL     1       3.796   5.620  18.495  0.00  0.00    +0.000 C 
ATOM     20  N   UNL     1       5.166   5.708  18.634  0.00  0.00    +0.000 N 
ATOM     21  H   UNL     1       5.588   6.549  19.004  0.00  0.00    +0.000 HD
BRANCH  20  22
ATOM     22  C   UNL     1       6.019   4.532  18.505  0.00  0.00    +0.000 C 
BRANCH  22  23
ATOM     23  C   UNL     1       6.986   4.645  17.326  0.00  0.00    +0.000 C 
BRANCH  23  24
ATOM     24  O   UNL     1       8.246   4.066  17.665  0.00  0.00    +0.000 OA
ATOM     25  H   UNL     1       8.749   4.021  16.834  0.00  0.00    +0.000 HD
ENDBRANCH  23  24
ENDBRANCH  22  23
ENDBRANCH  20  22
ENDBRANCH   1  19
TORSDOF 4
ENDMDL
MODEL 6
REMARK VINA RESULT:      -7.5      4.153      6.096
REMARK  Name = 
REMARK  4 active torsions:
REMARK  status: ('A' for Active; 'I' for Inactive)
REMARK    1  A    between atoms: C_2  and  C_7
REMARK    2  A    between atoms: N_3  and  C_4
REMARK    3  A    between atoms: C_4  and  C_5
REMARK    4  A    between atoms: C_5  and  O_6
REMARK                            x       y       z     vdW  Elec       q    Type
REMARK                         _______ _______ _______ _____ _____    ______ ____
ROOT
ATOM      1  C   UNL     1       3.581   6.242  18.110  0.00  0.00    +0.000 A 
ATOM      2  C   UNL     1       3.481   7.332  17.178  0.00  0.00    +0.000 A 
ATOM      3  C   UNL     1       2.741   8.506  17.419  0.00  0.00    +0.000 A 
ATOM      4  C   UNL     1       2.125   8.463  18.663  0.00  0.00    +0.000 A 
ATOM      5  C   UNL     1       1.285   9.420  19.156  0.00  0.00    +0.000 A 
ATOM      6  N   UNL     1       0.938   8.968  20.415  0.00  0.00    +0.000 N 
ATOM      7  N   UNL     1       1.480   7.763  20.731  0.00  0.00    +0.000 NA
ATOM      8  C   UNL     1       2.195   7.411  19.645  0.00  0.00    +0.000 A 
ATOM      9  C   UNL     1       2.938   6.245  19.379  0.00  0.00    +0.000 A 
ATOM     10  C   UNL     1       0.115   9.721  21.276  0.00  0.00    +0.000 A 
ATOM     11  C   UNL     1      -0.084   9.385  22.616  0.00  0.00    +0.000 A 
ATOM     12  C   UNL     1      -0.885  10.210  23.406  0.00  0.00    +0.000 A 
ATOM     13  C   UNL     1      -1.491  11.348  22.859  0.00  0.00    +0.000 A 
ATOM     14  C   UNL     1      -1.303  11.667  21.513  0.00  0.00    +0.000 A 
ATOM     15  C   UNL     1      -0.488  10.859  20.712  0.00  0.00    +0.000 A 
ATOM     16  C   UNL     1      -0.341  11.112  19.232  0.00  0.00    +0.000 C 
ATOM     17  O   UNL     1       0.873  10.595  18.661  0.00  0.00    +0.000 OA
ENDROOT
BRANCH   1  19
ATOM     18  O   UNL     1       4.339   4.040  18.479  0.00  0.00    +0.000 OA
ATOM     19  C   UNL     1       4.335   5.012  17.730  0.00  0.00    +0.000 C 
ATOM     20  N   UNL     1       5.011   5.038  16.527  0.00  0.00    +0.000 N 
ATOM     21  H   UNL     1       5.108   5.905  16.016  0.00  0.00    +0.000 HD
BRANCH  20  22
ATOM     22  C   UNL     1       5.814   3.905  16.083  0.00  0.00    +0.000 C 
BRANCH  22  23
ATOM     23  C   UNL     1       6.647   4.235  14.844  0.00  0.00    +0.000 C 
BRANCH  23  24
ATOM     24  O   UNL     1       7.439   5.399  15.077  0.00  0.00    +0.000 OA
ATOM     25  H   UNL     1       8.364   5.100  15.050  0.00  0.00    +0.000 HD
ENDBRANCH  23  24
ENDBRANCH  22  23
ENDBRANCH  20  22
ENDBRANCH   1  19
TORSDOF 4
ENDMDL
MODEL 7
REMARK VINA RESULT:      -7.5      3.621      5.727
REMARK  Name = 
REMARK  4 active torsions:
REMARK  status: ('A' for Active; 'I' for Inactive)
REMARK    1  A    between atoms: C_2  and  C_7
REMARK    2  A    between atoms: N_3  and  C_4
REMARK    3  A    between atoms: C_4  and  C_5
REMARK    4  A    between atoms: C_5  and  O_6
REMARK                            x       y       z     vdW  Elec       q    Type
REMARK                         _______ _______ _______ _____ _____    ______ ____
ROOT
ATOM      1  C   UNL     1       4.426   5.598  17.911  0.00  0.00    +0.000 A 
ATOM      2  C   UNL     1       3.982   5.031  19.155  0.00  0.00    +0.000 A 
ATOM      3  C   UNL     1       3.039   5.644  20.004  0.00  0.00    +0.000 A 
ATOM      4  C   UNL     1       2.608   6.857  19.482  0.00  0.00    +0.000 A 
ATOM      5  C   UNL     1       1.749   7.717  20.104  0.00  0.00    +0.000 A 
ATOM      6  N   UNL     1       1.595   8.764  19.214  0.00  0.00    +0.000 N 
ATOM      7  N   UNL     1       2.338   8.632  18.084  0.00  0.00    +0.000 NA
ATOM      8  C   UNL     1       3.003   7.471  18.241  0.00  0.00    +0.000 A 
ATOM      9  C   UNL     1       3.951   6.842  17.411  0.00  0.00    +0.000 A 
ATOM     10  C   UNL     1       0.726   9.842  19.474  0.00  0.00    +0.000 A 
ATOM     11  C   UNL     1       0.402  10.800  18.513  0.00  0.00    +0.000 A 
ATOM     12  C   UNL     1      -0.499  11.811  18.846  0.00  0.00    +0.000 A 
ATOM     13  C   UNL     1      -1.058  11.871  20.129  0.00  0.00    +0.000 A 
ATOM     14  C   UNL     1      -0.715  10.919  21.091  0.00  0.00    +0.000 A 
ATOM     15  C   UNL     1       0.174   9.889  20.766  0.00  0.00    +0.000 A 
ATOM     16  C   UNL     1       0.648   8.902  21.806  0.00  0.00    +0.000 C 
ATOM     17  O   UNL     1       1.090   7.644  21.268  0.00  0.00    +0.000 OA
ENDROOT
BRANCH   1  19
ATOM     18  O   UNL     1       6.615   4.788  17.574  0.00  0.00    +0.000 OA
ATOM     19  C   UNL     1       5.481   4.902  17.118  0.00  0.00    +0.000 C 
ATOM     20  N   UNL     1       5.117   4.419  15.877  0.00  0.00    +0.000 N 
ATOM     21  H   UNL     1       4.222   4.667  15.477  0.00  0.00    +0.000 HD
BRANCH  20  22
ATOM     22  C   UNL     1       6.083   3.764  15.004  0.00  0.00    +0.000 C 
BRANCH  22  23
ATOM     23  C   UNL     1       6.778   4.751  14.065  0.00  0.00    +0.000 C 
BRANCH  23  24
ATOM     24  O   UNL     1       7.828   5.430  14.752  0.00  0.00    +0.000 OA
ATOM     25  H   UNL     1       7.794   5.111  15.670  0.00  0.00    +0.000 HD
ENDBRANCH  23  24
ENDBRANCH  22  23
ENDBRANCH  20  22
ENDBRANCH   1  19
TORSDOF 4
ENDMDL
MODEL 8
REMARK VINA RESULT:      -7.5      2.935      4.500
REMARK  Name = 
REMARK  4 active torsions:
REMARK  status: ('A' for Active; 'I' for Inactive)
REMARK    1  A    between atoms: C_2  and  C_7
REMARK    2  A    between atoms: N_3  and  C_4
REMARK    3  A    between atoms: C_4  and  C_5
REMARK    4  A    between atoms: C_5  and  O_6
REMARK                            x       y       z     vdW  Elec       q    Type
REMARK                         _______ _______ _______ _____ _____    ______ ____
ROOT
ATOM      1  C   UNL     1       5.541   5.412  16.721  0.00  0.00    +0.000 A 
ATOM      2  C   UNL     1       5.133   4.553  17.799  0.00  0.00    +0.000 A 
ATOM      3  C   UNL     1       4.132   4.887  18.733  0.00  0.00    +0.000 A 
ATOM      4  C   UNL     1       3.607   6.146  18.475  0.00  0.00    +0.000 A 
ATOM      5  C   UNL     1       2.671   6.778  19.243  0.00  0.00    +0.000 A 
ATOM      6  N   UNL     1       2.440   7.979  18.598  0.00  0.00    +0.000 N 
ATOM      7  N   UNL     1       3.204   8.158  17.489  0.00  0.00    +0.000 NA
ATOM      8  C   UNL     1       3.963   7.048  17.409  0.00  0.00    +0.000 A 
ATOM      9  C   UNL     1       4.969   6.694  16.490  0.00  0.00    +0.000 A 
ATOM     10  C   UNL     1       1.480   8.901  19.061  0.00  0.00    +0.000 A 
ATOM     11  C   UNL     1       1.088  10.017  18.323  0.00  0.00    +0.000 A 
ATOM     12  C   UNL     1       0.101  10.856  18.842  0.00  0.00    +0.000 A 
ATOM     13  C   UNL     1      -0.475  10.588  20.090  0.00  0.00    +0.000 A 
ATOM     14  C   UNL     1      -0.064   9.479  20.831  0.00  0.00    +0.000 A 
ATOM     15  C   UNL     1       0.912   8.619  20.316  0.00  0.00    +0.000 A 
ATOM     16  C   UNL     1       1.455   7.469  21.129  0.00  0.00    +0.000 C 
ATOM     17  O   UNL     1       2.008   6.399  20.344  0.00  0.00    +0.000 OA
ENDROOT
BRANCH   1  19
ATOM     18  O   UNL     1       7.677   4.501  16.307  0.00  0.00    +0.000 OA
ATOM     19  C   UNL     1       6.660   4.993  15.827  0.00  0.00    +0.000 C 
ATOM     20  N   UNL     1       6.489   5.195  14.472  0.00  0.00    +0.000 N 
ATOM     21  H   UNL     1       5.708   5.740  14.133  0.00  0.00    +0.000 HD
BRANCH  20  22
ATOM     22  C   UNL     1       7.539   4.864  13.517  0.00  0.00    +0.000 C 
BRANCH  22  23
ATOM     23  C   UNL     1       7.011   4.054  12.332  0.00  0.00    +0.000 C 
BRANCH  23  24
ATOM     24  O   UNL     1       6.218   2.962  12.796  0.00  0.00    +0.000 OA
ATOM     25  H   UNL     1       6.176   3.056  13.762  0.00  0.00    +0.000 HD
ENDBRANCH  23  24
ENDBRANCH  22  23
ENDBRANCH  20  22
ENDBRANCH   1  19
TORSDOF 4
ENDMDL
MODEL 9
REMARK VINA RESULT:      -7.4      3.890      8.714
REMARK  Name = 
REMARK  4 active torsions:
REMARK  status: ('A' for Active; 'I' for Inactive)
REMARK    1  A    between atoms: C_2  and  C_7
REMARK    2  A    between atoms: N_3  and  C_4
REMARK    3  A    between atoms: C_4  and  C_5
REMARK    4  A    between atoms: C_5  and  O_6
REMARK                            x       y       z     vdW  Elec       q    Type
REMARK                         _______ _______ _______ _____ _____    ______ ____
ROOT
ATOM      1  C   UNL     1       1.086   8.913  20.071  0.00  0.00    +0.000 A 
ATOM      2  C   UNL     1       1.146   7.767  20.936  0.00  0.00    +0.000 A 
ATOM      3  C   UNL     1       1.881   6.600  20.643  0.00  0.00    +0.000 A 
ATOM      4  C   UNL     1       2.525   6.709  19.417  0.00  0.00    +0.000 A 
ATOM      5  C   UNL     1       3.257   5.719  18.826  0.00  0.00    +0.000 A 
ATOM      6  N   UNL     1       3.717   6.279  17.648  0.00  0.00    +0.000 N 
ATOM      7  N   UNL     1       3.285   7.551  17.444  0.00  0.00    +0.000 NA
ATOM      8  C   UNL     1       2.514   7.830  18.512  0.00  0.00    +0.000 A 
ATOM      9  C   UNL     1       1.769   8.983  18.825  0.00  0.00    +0.000 A 
ATOM     10  C   UNL     1       4.569   5.577  16.773  0.00  0.00    +0.000 A 
ATOM     11  C   UNL     1       5.204   6.184  15.689  0.00  0.00    +0.000 A 
ATOM     12  C   UNL     1       6.063   5.422  14.897  0.00  0.00    +0.000 A 
ATOM     13  C   UNL     1       6.273   4.066  15.179  0.00  0.00    +0.000 A 
ATOM     14  C   UNL     1       5.619   3.461  16.253  0.00  0.00    +0.000 A 
ATOM     15  C   UNL     1       4.768   4.217  17.067  0.00  0.00    +0.000 A 
ATOM     16  C   UNL     1       3.967   3.578  18.175  0.00  0.00    +0.000 C 
ATOM     17  O   UNL     1       3.583   4.483  19.224  0.00  0.00    +0.000 OA
ENDROOT
BRANCH   1  19
ATOM     18  O   UNL     1      -0.323  10.104  21.540  0.00  0.00    +0.000 OA
ATOM     19  C   UNL     1       0.222  10.072  20.441  0.00  0.00    +0.000 C 
ATOM     20  N   UNL     1       0.073  11.069  19.498  0.00  0.00    +0.000 N 
ATOM     21  H   UNL     1       0.411  10.933  18.555  0.00  0.00    +0.000 HD
BRANCH  20  22
ATOM     22  C   UNL     1      -0.786  12.222  19.742  0.00  0.00    +0.000 C 
BRANCH  22  23
ATOM     23  C   UNL     1      -1.910  12.336  18.712  0.00  0.00    +0.000 C 
BRANCH  23  24
ATOM     24  O   UNL     1      -1.366  12.541  17.409  0.00  0.00    +0.000 OA
ATOM     25  H   UNL     1      -0.960  11.695  17.155  0.00  0.00    +0.000 HD
ENDBRANCH  23  24
ENDBRANCH  22  23
ENDBRANCH  20  22
ENDBRANCH   1  19
TORSDOF 4
ENDMDL
