MODEL 1
REMARK VINA RESULT:      -5.6      0.000      0.000
REMARK  Name = 
REMARK  6 active torsions:
REMARK  status: ('A' for Active; 'I' for Inactive)
REMARK    1  A    between atoms: C_1  and  N_2
REMARK    2  A    between atoms: N_2  and  C_3
REMARK    3  A    between atoms: N_2  and  N_4
REMARK    4  A    between atoms: N_5  and  C_6
REMARK    5  A    between atoms: C_11  and  C_12
REMARK    6  A    between atoms: C_12  and  O_13
REMARK                            x       y       z     vdW  Elec       q    Type
REMARK                         _______ _______ _______ _____ _____    ______ ____
ROOT
ATOM      1  C   UNL     1       3.357   4.427  18.868  0.00  0.00    +0.000 A 
ATOM      2  C   UNL     1       2.996   5.412  19.800  0.00  0.00    +0.000 A 
ATOM      3  C   UNL     1       1.874   5.257  20.621  0.00  0.00    +0.000 A 
ATOM      4  C   UNL     1       1.096   4.114  20.522  0.00  0.00    +0.000 A 
ATOM      5  C   UNL     1       1.434   3.124  19.597  0.00  0.00    +0.000 A 
ATOM      6  C   UNL     1       2.558   3.267  18.759  0.00  0.00    +0.000 A 
ENDROOT
BRANCH   1   8
ATOM      7  N   UNL     1       5.576   4.360  18.923  0.00  0.00    +0.000 NA
ATOM      8  N   UNL     1       4.589   4.601  18.202  0.00  0.00    +0.000 NA
BRANCH   7  10
ATOM      9  C   UNL     1       7.558   5.663  18.956  0.00  0.00    +0.000 C 
ATOM     10  N   UNL     1       6.779   4.626  18.305  0.00  0.00    +0.000 N 
ATOM     11  C   UNL     1       6.910   4.501  16.860  0.00  0.00    +0.000 C 
ENDBRANCH   7  10
ENDBRANCH   1   8
BRANCH   6  12
ATOM     12  C   UNL     1       2.861   2.155  17.783  0.00  0.00    +0.000 C 
BRANCH  12  13
ATOM     13  O   UNL     1       4.188   1.670  17.951  0.00  0.00    +0.000 OA
ATOM     14  H   UNL     1       4.502   1.435  17.061  0.00  0.00    +0.000 HD
ENDBRANCH  12  13
ENDBRANCH   6  12
TORSDOF 4
ENDMDL
MODEL 2
REMARK VINA RESULT:      -5.4      0.907      1.329
REMARK  Name = 
REMARK  6 active torsions:
REMARK  status: ('A' for Active; 'I' for Inactive)
REMARK    1  A    between atoms: C_1  and  N_2
REMARK    2  A    between atoms: N_2  and  C_3
REMARK    3  A    between atoms: N_2  and  N_4
REMARK    4  A    between atoms: N_5  and  C_6
REMARK    5  A    between atoms: C_11  and  C_12
REMARK    6  A    between atoms: C_12  and  O_13
REMARK                            x       y       z     vdW  Elec       q    Type
REMARK                         _______ _______ _______ _____ _____    ______ ____
ROOT
ATOM      1  C   UNL     1       3.429   4.330  19.173  0.00  0.00    +0.000 A 
ATOM      2  C   UNL     1       2.656   5.415  19.615  0.00  0.00    +0.000 A 
ATOM      3  C   UNL     1       1.526   5.222  20.416  0.00  0.00    +0.000 A 
ATOM      4  C   UNL     1       1.151   3.940  20.788  0.00  0.00    +0.000 A 
ATOM      5  C   UNL     1       1.902   2.846  20.354  0.00  0.00    +0.000 A 
ATOM      6  C   UNL     1       3.040   3.022  19.542  0.00  0.00    +0.000 A 
ENDROOT
BRANCH   1   8
ATOM      7  N   UNL     1       5.558   4.951  19.279  0.00  0.00    +0.000 NA
ATOM      8  N   UNL     1       4.634   4.635  18.506  0.00  0.00    +0.000 NA
BRANCH   7  10
ATOM      9  C   UNL     1       6.945   4.637  17.380  0.00  0.00    +0.000 C 
ATOM     10  N   UNL     1       6.704   5.345  18.625  0.00  0.00    +0.000 N 
ATOM     11  C   UNL     1       7.871   5.784  19.379  0.00  0.00    +0.000 C 
ENDBRANCH   7  10
ENDBRANCH   1   8
BRANCH   6  12
ATOM     12  C   UNL     1       3.802   1.792  19.111  0.00  0.00    +0.000 C 
BRANCH  12  13
ATOM     13  O   UNL     1       5.105   1.766  19.681  0.00  0.00    +0.000 OA
ATOM     14  H   UNL     1       5.083   1.080  20.371  0.00  0.00    +0.000 HD
ENDBRANCH  12  13
ENDBRANCH   6  12
TORSDOF 4
ENDMDL
MODEL 3
REMARK VINA RESULT:      -5.3      0.883      1.374
REMARK  Name = 
REMARK  6 active torsions:
REMARK  status: ('A' for Active; 'I' for Inactive)
REMARK    1  A    between atoms: C_1  and  N_2
REMARK    2  A    between atoms: N_2  and  C_3
REMARK    3  A    between atoms: N_2  and  N_4
REMARK    4  A    between atoms: N_5  and  C_6
REMARK    5  A    between atoms: C_11  and  C_12
REMARK    6  A    between atoms: C_12  and  O_13
REMARK                            x       y       z     vdW  Elec       q    Type
REMARK                         _______ _______ _______ _____ _____    ______ ____
ROOT
ATOM      1  C   UNL     1       3.652   4.099  19.274  0.00  0.00    +0.000 A 
ATOM      2  C   UNL     1       3.101   5.261  19.836  0.00  0.00    +0.000 A 
ATOM      3  C   UNL     1       1.891   5.224  20.537  0.00  0.00    +0.000 A 
ATOM      4  C   UNL     1       1.213   4.024  20.686  0.00  0.00    +0.000 A 
ATOM      5  C   UNL     1       1.741   2.857  20.129  0.00  0.00    +0.000 A 
ATOM      6  C   UNL     1       2.956   2.878  19.416  0.00  0.00    +0.000 A 
ENDROOT
BRANCH   1   8
ATOM      7  N   UNL     1       4.956   4.686  17.576  0.00  0.00    +0.000 NA
ATOM      8  N   UNL     1       4.948   4.208  18.726  0.00  0.00    +0.000 NA
BRANCH   7  10
ATOM      9  C   UNL     1       6.273   4.032  15.713  0.00  0.00    +0.000 C 
ATOM     10  N   UNL     1       6.209   4.700  17.001  0.00  0.00    +0.000 N 
ATOM     11  C   UNL     1       7.403   4.660  17.833  0.00  0.00    +0.000 C 
ENDBRANCH   7  10
ENDBRANCH   1   8
BRANCH   6  12
ATOM     12  C   UNL     1       3.464   1.577  18.841  0.00  0.00    +0.000 C 
BRANCH  12  13
ATOM     13  O   UNL     1       4.106   1.784  17.588  0.00  0.00    +0.000 OA
ATOM     14  H   UNL     1       4.342   2.727  17.560  0.00  0.00    +0.000 HD
ENDBRANCH  12  13
ENDBRANCH   6  12
TORSDOF 4
ENDMDL
MODEL 4
REMARK VINA RESULT:      -5.2      1.858      2.309
REMARK  Name = 
REMARK  6 active torsions:
REMARK  status: ('A' for Active; 'I' for Inactive)
REMARK    1  A    between atoms: C_1  and  N_2
REMARK    2  A    between atoms: N_2  and  C_3
REMARK    3  A    between atoms: N_2  and  N_4
REMARK    4  A    between atoms: N_5  and  C_6
REMARK    5  A    between atoms: C_11  and  C_12
REMARK    6  A    between atoms: C_12  and  O_13
REMARK                            x       y       z     vdW  Elec       q    Type
REMARK                         _______ _______ _______ _____ _____    ______ ____
ROOT
ATOM      1  C   UNL     1       3.344   3.445  19.340  0.00  0.00    +0.000 A 
ATOM      2  C   UNL     1       3.617   2.710  20.504  0.00  0.00    +0.000 A 
ATOM      3  C   UNL     1       2.623   2.469  21.458  0.00  0.00    +0.000 A 
ATOM      4  C   UNL     1       1.341   2.959  21.262  0.00  0.00    +0.000 A 
ATOM      5  C   UNL     1       1.050   3.697  20.113  0.00  0.00    +0.000 A 
ATOM      6  C   UNL     1       2.041   3.954  19.145  0.00  0.00    +0.000 A 
ENDROOT
BRANCH   1   8
ATOM      7  N   UNL     1       5.094   4.505  18.476  0.00  0.00    +0.000 NA
ATOM      8  N   UNL     1       4.365   3.500  18.367  0.00  0.00    +0.000 NA
BRANCH   7  10
ATOM      9  C   UNL     1       5.625   3.979  16.224  0.00  0.00    +0.000 C 
ATOM     10  N   UNL     1       6.027   4.612  17.468  0.00  0.00    +0.000 N 
ATOM     11  C   UNL     1       7.450   4.630  17.777  0.00  0.00    +0.000 C 
ENDBRANCH   7  10
ENDBRANCH   1   8
BRANCH   6  12
ATOM     12  C   UNL     1       1.653   4.762  17.929  0.00  0.00    +0.000 C 
BRANCH  12  13
ATOM     13  O   UNL     1       2.489   5.903  17.781  0.00  0.00    +0.000 OA
ATOM     14  H   UNL     1       2.130   6.403  17.027  0.00  0.00    +0.000 HD
ENDBRANCH  12  13
ENDBRANCH   6  12
TORSDOF 4
ENDMDL
MODEL 5
REMARK VINA RESULT:      -5.2      1.509      1.995
REMARK  Name = 
REMARK  6 active torsions:
REMARK  status: ('A' for Active; 'I' for Inactive)
REMARK    1  A    between atoms: C_1  and  N_2
REMARK    2  A    between atoms: N_2  and  C_3
REMARK    3  A    between atoms: N_2  and  N_4
REMARK    4  A    between atoms: N_5  and  C_6
REMARK    5  A    between atoms: C_11  and  C_12
REMARK    6  A    between atoms: C_12  and  O_13
REMARK                            x       y       z     vdW  Elec       q    Type
REMARK                         _______ _______ _______ _____ _____    ______ ____
ROOT
ATOM      1  C   UNL     1       3.902   3.711  18.586  0.00  0.00    +0.000 A 
ATOM      2  C   UNL     1       3.030   4.337  17.681  0.00  0.00    +0.000 A 
ATOM      3  C   UNL     1       1.643   4.223  17.814  0.00  0.00    +0.000 A 
ATOM      4  C   UNL     1       1.105   3.480  18.854  0.00  0.00    +0.000 A 
ATOM      5  C   UNL     1       1.955   2.844  19.762  0.00  0.00    +0.000 A 
ATOM      6  C   UNL     1       3.355   2.945  19.639  0.00  0.00    +0.000 A 
ENDROOT
BRANCH   1   8
ATOM      7  N   UNL     1       5.490   5.207  18.174  0.00  0.00    +0.000 NA
ATOM      8  N   UNL     1       5.274   4.015  18.463  0.00  0.00    +0.000 NA
BRANCH   7  10
ATOM      9  C   UNL     1       7.433   4.655  16.929  0.00  0.00    +0.000 C 
ATOM     10  N   UNL     1       6.822   5.482  17.955  0.00  0.00    +0.000 N 
ATOM     11  C   UNL     1       7.675   5.924  19.050  0.00  0.00    +0.000 C 
ENDBRANCH   7  10
ENDBRANCH   1   8
BRANCH   6  12
ATOM     12  C   UNL     1       4.209   2.229  20.658  0.00  0.00    +0.000 C 
BRANCH  12  13
ATOM     13  O   UNL     1       5.233   1.467  20.027  0.00  0.00    +0.000 OA
ATOM     14  H   UNL     1       4.973   0.535  20.126  0.00  0.00    +0.000 HD
ENDBRANCH  12  13
ENDBRANCH   6  12
TORSDOF 4
ENDMDL
MODEL 6
REMARK VINA RESULT:      -5.2      1.592      1.878
REMARK  Name = 
REMARK  6 active torsions:
REMARK  status: ('A' for Active; 'I' for Inactive)
REMARK    1  A    between atoms: C_1  and  N_2
REMARK    2  A    between atoms: N_2  and  C_3
REMARK    3  A    between atoms: N_2  and  N_4
REMARK    4  A    between atoms: N_5  and  C_6
REMARK    5  A    between atoms: C_11  and  C_12
REMARK    6  A    between atoms: C_12  and  O_13
REMARK                            x       y       z     vdW  Elec       q    Type
REMARK                         _______ _______ _______ _____ _____    ______ ____
ROOT
ATOM      1  C   UNL     1       3.801   3.666  18.481  0.00  0.00    +0.000 A 
ATOM      2  C   UNL     1       2.843   4.253  17.639  0.00  0.00    +0.000 A 
ATOM      3  C   UNL     1       1.477   4.167  17.925  0.00  0.00    +0.000 A 
ATOM      4  C   UNL     1       1.047   3.493  19.057  0.00  0.00    +0.000 A 
ATOM      5  C   UNL     1       1.983   2.897  19.906  0.00  0.00    +0.000 A 
ATOM      6  C   UNL     1       3.362   2.970  19.630  0.00  0.00    +0.000 A 
ENDROOT
BRANCH   1   8
ATOM      7  N   UNL     1       5.334   4.388  17.047  0.00  0.00    +0.000 NA
ATOM      8  N   UNL     1       5.155   3.941  18.196  0.00  0.00    +0.000 NA
BRANCH   7  10
ATOM      9  C   UNL     1       7.410   5.315  17.725  0.00  0.00    +0.000 C 
ATOM     10  N   UNL     1       6.664   4.562  16.732  0.00  0.00    +0.000 N 
ATOM     11  C   UNL     1       7.084   4.691  15.343  0.00  0.00    +0.000 C 
ENDBRANCH   7  10
ENDBRANCH   1   8
BRANCH   6  12
ATOM     12  C   UNL     1       4.314   2.300  20.592  0.00  0.00    +0.000 C 
BRANCH  12  13
ATOM     13  O   UNL     1       5.179   1.395  19.914  0.00  0.00    +0.000 OA
ATOM     14  H   UNL     1       4.617   0.904  19.290  0.00  0.00    +0.000 HD
ENDBRANCH  12  13
ENDBRANCH   6  12
TORSDOF 4
ENDMDL
MODEL 7
REMARK VINA RESULT:      -5.1      2.833      5.066
REMARK  Name = 
REMARK  6 active torsions:
REMARK  status: ('A' for Active; 'I' for Inactive)
REMARK    1  A    between atoms: C_1  and  N_2
REMARK    2  A    between atoms: N_2  and  C_3
REMARK    3  A    between atoms: N_2  and  N_4
REMARK    4  A    between atoms: N_5  and  C_6
REMARK    5  A    between atoms: C_11  and  C_12
REMARK    6  A    between atoms: C_12  and  O_13
REMARK                            x       y       z     vdW  Elec       q    Type
REMARK                         _______ _______ _______ _____ _____    ______ ____
ROOT
ATOM      1  C   UNL     1       3.314   4.830  17.649  0.00  0.00    +0.000 A 
ATOM      2  C   UNL     1       4.162   4.082  16.818  0.00  0.00    +0.000 A 
ATOM      3  C   UNL     1       5.228   4.683  16.140  0.00  0.00    +0.000 A 
ATOM      4  C   UNL     1       5.461   6.042  16.283  0.00  0.00    +0.000 A 
ATOM      5  C   UNL     1       4.625   6.806  17.100  0.00  0.00    +0.000 A 
ATOM      6  C   UNL     1       3.545   6.217  17.786  0.00  0.00    +0.000 A 
ENDROOT
BRANCH   1   8
ATOM      7  N   UNL     1       2.851   3.612  19.447  0.00  0.00    +0.000 NA
ATOM      8  N   UNL     1       2.370   4.110  18.411  0.00  0.00    +0.000 NA
BRANCH   7  10
ATOM      9  C   UNL     1       0.756   2.500  19.389  0.00  0.00    +0.000 C 
ATOM     10  N   UNL     1       1.956   2.825  20.139  0.00  0.00    +0.000 N 
ATOM     11  C   UNL     1       1.827   2.951  21.584  0.00  0.00    +0.000 C 
ENDBRANCH   7  10
ENDBRANCH   1   8
BRANCH   6  12
ATOM     12  C   UNL     1       2.683   7.107  18.650  0.00  0.00    +0.000 C 
BRANCH  12  13
ATOM     13  O   UNL     1       2.663   6.651  19.998  0.00  0.00    +0.000 OA
ATOM     14  H   UNL     1       3.512   6.198  20.141  0.00  0.00    +0.000 HD
ENDBRANCH  12  13
ENDBRANCH   6  12
TORSDOF 4
ENDMDL
MODEL 8
REMARK VINA RESULT:      -5.1      1.081      1.173
REMARK  Name = 
REMARK  6 active torsions:
REMARK  status: ('A' for Active; 'I' for Inactive)
REMARK    1  A    between atoms: C_1  and  N_2
REMARK    2  A    between atoms: N_2  and  C_3
REMARK    3  A    between atoms: N_2  and  N_4
REMARK    4  A    between atoms: N_5  and  C_6
REMARK    5  A    between atoms: C_11  and  C_12
REMARK    6  A    between atoms: C_12  and  O_13
REMARK                            x       y       z     vdW  Elec       q    Type
REMARK                         _______ _______ _______ _____ _____    ______ ____
ROOT
ATOM      1  C   UNL     1       3.416   3.989  19.360  0.00  0.00    +0.000 A 
ATOM      2  C   UNL     1       2.645   4.750  20.252  0.00  0.00    +0.000 A 
ATOM      3  C   UNL     1       1.381   4.320  20.667  0.00  0.00    +0.000 A 
ATOM      4  C   UNL     1       0.868   3.120  20.197  0.00  0.00    +0.000 A 
ATOM      5  C   UNL     1       1.617   2.350  19.305  0.00  0.00    +0.000 A 
ATOM      6  C   UNL     1       2.890   2.772  18.873  0.00  0.00    +0.000 A 
ENDROOT
BRANCH   1   8
ATOM      7  N   UNL     1       4.800   5.420  18.378  0.00  0.00    +0.000 NA
ATOM      8  N   UNL     1       4.737   4.426  19.126  0.00  0.00    +0.000 NA
BRANCH   7  10
ATOM      9  C   UNL     1       7.047   5.532  19.130  0.00  0.00    +0.000 C 
ATOM     10  N   UNL     1       6.091   5.787  18.067  0.00  0.00    +0.000 N 
ATOM     11  C   UNL     1       6.346   6.929  17.200  0.00  0.00    +0.000 C 
ENDBRANCH   7  10
ENDBRANCH   1   8
BRANCH   6  12
ATOM     12  C   UNL     1       3.640   1.886  17.905  0.00  0.00    +0.000 C 
BRANCH  12  13
ATOM     13  O   UNL     1       4.227   0.776  18.574  0.00  0.00    +0.000 OA
ATOM     14  H   UNL     1       3.659   0.011  18.373  0.00  0.00    +0.000 HD
ENDBRANCH  12  13
ENDBRANCH   6  12
TORSDOF 4
ENDMDL
MODEL 9
REMARK VINA RESULT:      -5.1      1.779      2.631
REMARK  Name = 
REMARK  6 active torsions:
REMARK  status: ('A' for Active; 'I' for Inactive)
REMARK    1  A    between atoms: C_1  and  N_2
REMARK    2  A    between atoms: N_2  and  C_3
REMARK    3  A    between atoms: N_2  and  N_4
REMARK    4  A    between atoms: N_5  and  C_6
REMARK    5  A    between atoms: C_11  and  C_12
REMARK    6  A    between atoms: C_12  and  O_13
REMARK                            x       y       z     vdW  Elec       q    Type
REMARK                         _______ _______ _______ _____ _____    ______ ____
ROOT
ATOM      1  C   UNL     1       2.808   3.883  18.145  0.00  0.00    +0.000 A 
ATOM      2  C   UNL     1       2.049   2.727  17.902  0.00  0.00    +0.000 A 
ATOM      3  C   UNL     1       0.987   2.369  18.738  0.00  0.00    +0.000 A 
ATOM      4  C   UNL     1       0.667   3.161  19.831  0.00  0.00    +0.000 A 
ATOM      5  C   UNL     1       1.413   4.312  20.093  0.00  0.00    +0.000 A 
ATOM      6  C   UNL     1       2.489   4.684  19.264  0.00  0.00    +0.000 A 
ENDROOT
BRANCH   1   8
ATOM      7  N   UNL     1       4.825   3.618  17.256  0.00  0.00    +0.000 NA
ATOM      8  N   UNL     1       3.752   4.244  17.160  0.00  0.00    +0.000 NA
BRANCH   7  10
ATOM      9  C   UNL     1       6.940   4.660  16.983  0.00  0.00    +0.000 C 
ATOM     10  N   UNL     1       5.783   4.041  16.360  0.00  0.00    +0.000 N 
ATOM     11  C   UNL     1       5.398   4.523  15.040  0.00  0.00    +0.000 C 
ENDBRANCH   7  10
ENDBRANCH   1   8
BRANCH   6  12
ATOM     12  C   UNL     1       3.251   5.941  19.612  0.00  0.00    +0.000 C 
BRANCH  12  13
ATOM     13  O   UNL     1       4.653   5.699  19.652  0.00  0.00    +0.000 OA
ATOM     14  H   UNL     1       5.043   6.263  18.963  0.00  0.00    +0.000 HD
ENDBRANCH  12  13
ENDBRANCH   6  12
TORSDOF 4
ENDMDL
