MODEL 1
REMARK VINA RESULT:      -6.2      0.000      0.000
REMARK  Name = 
REMARK  9 active torsions:
REMARK  status: ('A' for Active; 'I' for Inactive)
REMARK    1  A    between atoms: C_2  and  C_3
REMARK    2  A    between atoms: C_3  and  N_4
REMARK    3  A    between atoms: C_5  and  S_6
REMARK    4  A    between atoms: N_7  and  N_8
REMARK    5  A    between atoms: C_9  and  C_11
REMARK    6  A    between atoms: C_14  and  O_15
REMARK    7  A    between atoms: O_15  and  C_16
REMARK    8  A    between atoms: C_16  and  C_17
REMARK    9  A    between atoms: C_16  and  C_18
REMARK                            x       y       z     vdW  Elec       q    Type
REMARK                         _______ _______ _______ _____ _____    ______ ____
ROOT
ATOM      1  N   UNL     1       2.283   7.288  19.610  0.00  0.00    +0.000 N 
ATOM      2  C   UNL     1       2.372   5.907  19.556  0.00  0.00    +0.000 C 
ATOM      3  O   UNL     1       1.790   5.128  20.307  0.00  0.00    +0.000 OA
ATOM      4  H   UNL     1       2.667   7.880  18.880  0.00  0.00    +0.000 HD
ENDROOT
BRANCH   2   5
ATOM      5  C   UNL     1       3.231   5.362  18.464  0.00  0.00    +0.000 A 
ATOM      6  C   UNL     1       3.293   3.996  18.174  0.00  0.00    +0.000 A 
ATOM      7  C   UNL     1       4.133   3.532  17.152  0.00  0.00    +0.000 A 
ATOM      8  C   UNL     1       4.887   4.427  16.386  0.00  0.00    +0.000 A 
ATOM      9  C   UNL     1       4.795   5.792  16.650  0.00  0.00    +0.000 A 
ATOM     10  C   UNL     1       3.976   6.257  17.687  0.00  0.00    +0.000 A 
BRANCH   8  11
ATOM     11  O   UNL     1       5.711   3.847  15.459  0.00  0.00    +0.000 OA
BRANCH  11  12
ATOM     12  C   UNL     1       5.949   4.543  14.228  0.00  0.00    +0.000 C 
ATOM     13  C   UNL     1       7.398   5.017  14.137  0.00  0.00    +0.000 C 
ATOM     14  C   UNL     1       5.695   3.538  13.102  0.00  0.00    +0.000 C 
ENDBRANCH  11  12
ENDBRANCH   8  11
ENDBRANCH   2   5
BRANCH   1  17
ATOM     15  N   UNL     1       0.332   9.800  21.252  0.00  0.00    +0.000 N 
ATOM     16  C   UNL     1       1.017   9.049  20.344  0.00  0.00    +0.000 C 
ATOM     17  N   UNL     1       1.582   7.907  20.610  0.00  0.00    +0.000 NA
ATOM     18  H   UNL     1      -0.336  10.473  20.903  0.00  0.00    +0.000 HD
BRANCH  16  19
ATOM     19  S   UNL     1       1.096   9.797  18.750  0.00  0.00    +0.000 S 
ATOM     20  H   UNL     1       1.206   8.658  18.057  0.00  0.00    +0.000 HD
ENDBRANCH  16  19
BRANCH  15  21
ATOM     21  C   UNL     1       0.190   9.449  22.642  0.00  0.00    +0.000 C 
BRANCH  21  23
ATOM     22  C   UNL     1      -1.354  11.449  22.558  0.00  0.00    +0.000 C 
ATOM     23  C   UNL     1      -0.808  10.414  23.211  0.00  0.00    +0.000 C 
ENDBRANCH  21  23
ENDBRANCH  15  21
ENDBRANCH   1  17
TORSDOF 7
ENDMDL
MODEL 2
REMARK VINA RESULT:      -6.1      3.253      8.595
REMARK  Name = 
REMARK  9 active torsions:
REMARK  status: ('A' for Active; 'I' for Inactive)
REMARK    1  A    between atoms: C_2  and  C_3
REMARK    2  A    between atoms: C_3  and  N_4
REMARK    3  A    between atoms: C_5  and  S_6
REMARK    4  A    between atoms: N_7  and  N_8
REMARK    5  A    between atoms: C_9  and  C_11
REMARK    6  A    between atoms: C_14  and  O_15
REMARK    7  A    between atoms: O_15  and  C_16
REMARK    8  A    between atoms: C_16  and  C_17
REMARK    9  A    between atoms: C_16  and  C_18
REMARK                            x       y       z     vdW  Elec       q    Type
REMARK                         _______ _______ _______ _____ _____    ______ ____
ROOT
ATOM      1  N   UNL     1       4.237   6.686  17.322  0.00  0.00    +0.000 N 
ATOM      2  C   UNL     1       3.076   6.372  18.008  0.00  0.00    +0.000 C 
ATOM      3  O   UNL     1       2.639   5.236  18.180  0.00  0.00    +0.000 OA
ATOM      4  H   UNL     1       4.629   7.622  17.331  0.00  0.00    +0.000 HD
ENDROOT
BRANCH   2   5
ATOM      5  C   UNL     1       2.344   7.532  18.595  0.00  0.00    +0.000 A 
ATOM      6  C   UNL     1       1.961   8.637  17.830  0.00  0.00    +0.000 A 
ATOM      7  C   UNL     1       1.295   9.713  18.435  0.00  0.00    +0.000 A 
ATOM      8  C   UNL     1       0.970   9.679  19.795  0.00  0.00    +0.000 A 
ATOM      9  C   UNL     1       1.318   8.559  20.548  0.00  0.00    +0.000 A 
ATOM     10  C   UNL     1       2.006   7.494  19.953  0.00  0.00    +0.000 A 
BRANCH   8  11
ATOM     11  O   UNL     1       0.374  10.812  20.277  0.00  0.00    +0.000 OA
BRANCH  11  12
ATOM     12  C   UNL     1      -0.188  11.740  19.338  0.00  0.00    +0.000 C 
ATOM     13  C   UNL     1      -1.714  11.723  19.397  0.00  0.00    +0.000 C 
ATOM     14  C   UNL     1       0.299  13.130  19.752  0.00  0.00    +0.000 C 
ENDBRANCH  11  12
ENDBRANCH   8  11
ENDBRANCH   2   5
BRANCH   1  17
ATOM     15  N   UNL     1       7.090   4.980  15.995  0.00  0.00    +0.000 N 
ATOM     16  C   UNL     1       6.252   5.840  16.639  0.00  0.00    +0.000 C 
ATOM     17  N   UNL     1       4.957   5.715  16.680  0.00  0.00    +0.000 NA
ATOM     18  H   UNL     1       8.058   4.956  16.283  0.00  0.00    +0.000 HD
BRANCH  16  19
ATOM     19  S   UNL     1       7.098   7.185  17.403  0.00  0.00    +0.000 S 
ATOM     20  H   UNL     1       6.367   7.202  18.524  0.00  0.00    +0.000 HD
ENDBRANCH  16  19
BRANCH  15  21
ATOM     21  C   UNL     1       6.643   3.845  15.228  0.00  0.00    +0.000 C 
BRANCH  21  23
ATOM     22  C   UNL     1       6.170   3.575  12.760  0.00  0.00    +0.000 C 
ATOM     23  C   UNL     1       6.528   4.325  13.811  0.00  0.00    +0.000 C 
ENDBRANCH  21  23
ENDBRANCH  15  21
ENDBRANCH   1  17
TORSDOF 7
ENDMDL
MODEL 3
REMARK VINA RESULT:      -6.0      2.728      9.124
REMARK  Name = 
REMARK  9 active torsions:
REMARK  status: ('A' for Active; 'I' for Inactive)
REMARK    1  A    between atoms: C_2  and  C_3
REMARK    2  A    between atoms: C_3  and  N_4
REMARK    3  A    between atoms: C_5  and  S_6
REMARK    4  A    between atoms: N_7  and  N_8
REMARK    5  A    between atoms: C_9  and  C_11
REMARK    6  A    between atoms: C_14  and  O_15
REMARK    7  A    between atoms: O_15  and  C_16
REMARK    8  A    between atoms: C_16  and  C_17
REMARK    9  A    between atoms: C_16  and  C_18
REMARK                            x       y       z     vdW  Elec       q    Type
REMARK                         _______ _______ _______ _____ _____    ______ ____
ROOT
ATOM      1  N   UNL     1       2.360   6.777  20.415  0.00  0.00    +0.000 N 
ATOM      2  C   UNL     1       1.899   7.953  19.848  0.00  0.00    +0.000 C 
ATOM      3  O   UNL     1       2.038   8.275  18.671  0.00  0.00    +0.000 OA
ATOM      4  H   UNL     1       2.096   6.493  21.354  0.00  0.00    +0.000 HD
ENDROOT
BRANCH   2   5
ATOM      5  C   UNL     1       1.151   8.859  20.769  0.00  0.00    +0.000 A 
ATOM      6  C   UNL     1       0.954   8.554  22.119  0.00  0.00    +0.000 A 
ATOM      7  C   UNL     1       0.224   9.427  22.938  0.00  0.00    +0.000 A 
ATOM      8  C   UNL     1      -0.280  10.629  22.429  0.00  0.00    +0.000 A 
ATOM      9  C   UNL     1      -0.049  10.951  21.093  0.00  0.00    +0.000 A 
ATOM     10  C   UNL     1       0.658  10.069  20.266  0.00  0.00    +0.000 A 
BRANCH   8  11
ATOM     11  O   UNL     1      -1.023  11.366  23.311  0.00  0.00    +0.000 OA
BRANCH  11  12
ATOM     12  C   UNL     1      -1.859  12.409  22.792  0.00  0.00    +0.000 C 
ATOM     13  C   UNL     1      -3.266  12.329  23.381  0.00  0.00    +0.000 C 
ATOM     14  C   UNL     1      -1.226  13.733  23.227  0.00  0.00    +0.000 C 
ENDBRANCH  11  12
ENDBRANCH   8  11
ENDBRANCH   2   5
BRANCH   1  17
ATOM     15  N   UNL     1       3.415   3.666  18.996  0.00  0.00    +0.000 N 
ATOM     16  C   UNL     1       2.735   4.657  19.637  0.00  0.00    +0.000 C 
ATOM     17  N   UNL     1       3.119   5.899  19.690  0.00  0.00    +0.000 NA
ATOM     18  H   UNL     1       2.904   2.838  18.723  0.00  0.00    +0.000 HD
BRANCH  16  19
ATOM     19  S   UNL     1       1.269   4.084  20.431  0.00  0.00    +0.000 S 
ATOM     20  H   UNL     1       1.370   2.812  20.029  0.00  0.00    +0.000 HD
ENDBRANCH  16  19
BRANCH  15  21
ATOM     21  C   UNL     1       4.682   3.857  18.336  0.00  0.00    +0.000 C 
BRANCH  21  23
ATOM     22  C   UNL     1       5.108   4.576  15.951  0.00  0.00    +0.000 C 
ATOM     23  C   UNL     1       4.376   3.931  16.869  0.00  0.00    +0.000 C 
ENDBRANCH  21  23
ENDBRANCH  15  21
ENDBRANCH   1  17
TORSDOF 7
ENDMDL
MODEL 4
REMARK VINA RESULT:      -6.0      0.900      1.365
REMARK  Name = 
REMARK  9 active torsions:
REMARK  status: ('A' for Active; 'I' for Inactive)
REMARK    1  A    between atoms: C_2  and  C_3
REMARK    2  A    between atoms: C_3  and  N_4
REMARK    3  A    between atoms: C_5  and  S_6
REMARK    4  A    between atoms: N_7  and  N_8
REMARK    5  A    between atoms: C_9  and  C_11
REMARK    6  A    between atoms: C_14  and  O_15
REMARK    7  A    between atoms: O_15  and  C_16
REMARK    8  A    between atoms: C_16  and  C_17
REMARK    9  A    between atoms: C_16  and  C_18
REMARK                            x       y       z     vdW  Elec       q    Type
REMARK                         _______ _______ _______ _____ _____    ______ ____
ROOT
ATOM      1  N   UNL     1       2.226   7.235  20.094  0.00  0.00    +0.000 N 
ATOM      2  C   UNL     1       2.241   5.854  19.992  0.00  0.00    +0.000 C 
ATOM      3  O   UNL     1       1.480   5.091  20.582  0.00  0.00    +0.000 OA
ATOM      4  H   UNL     1       2.779   7.825  19.479  0.00  0.00    +0.000 HD
ENDROOT
BRANCH   2   5
ATOM      5  C   UNL     1       3.259   5.291  19.057  0.00  0.00    +0.000 A 
ATOM      6  C   UNL     1       4.631   5.373  19.310  0.00  0.00    +0.000 A 
ATOM      7  C   UNL     1       5.548   4.848  18.388  0.00  0.00    +0.000 A 
ATOM      8  C   UNL     1       5.105   4.204  17.228  0.00  0.00    +0.000 A 
ATOM      9  C   UNL     1       3.736   4.088  16.996  0.00  0.00    +0.000 A 
ATOM     10  C   UNL     1       2.818   4.634  17.902  0.00  0.00    +0.000 A 
BRANCH   8  11
ATOM     11  O   UNL     1       6.097   3.787  16.381  0.00  0.00    +0.000 OA
BRANCH  11  12
ATOM     12  C   UNL     1       6.380   4.582  15.221  0.00  0.00    +0.000 C 
ATOM     13  C   UNL     1       5.972   3.852  13.943  0.00  0.00    +0.000 C 
ATOM     14  C   UNL     1       5.537   5.853  15.345  0.00  0.00    +0.000 C 
ENDBRANCH  11  12
ENDBRANCH   8  11
ENDBRANCH   2   5
BRANCH   1  17
ATOM     15  N   UNL     1      -0.003   9.728  21.369  0.00  0.00    +0.000 N 
ATOM     16  C   UNL     1       0.816   8.970  20.587  0.00  0.00    +0.000 C 
ATOM     17  N   UNL     1       1.386   7.865  20.971  0.00  0.00    +0.000 NA
ATOM     18  H   UNL     1      -0.647  10.358  20.911  0.00  0.00    +0.000 HD
BRANCH  16  19
ATOM     19  S   UNL     1       1.063   9.653  18.981  0.00  0.00    +0.000 S 
ATOM     20  H   UNL     1       2.375   9.401  18.912  0.00  0.00    +0.000 HD
ENDBRANCH  16  19
BRANCH  15  21
ATOM     21  C   UNL     1      -0.302   9.429  22.746  0.00  0.00    +0.000 C 
BRANCH  21  23
ATOM     22  C   UNL     1      -1.145  11.812  22.722  0.00  0.00    +0.000 C 
ATOM     23  C   UNL     1      -1.122  10.581  23.249  0.00  0.00    +0.000 C 
ENDBRANCH  21  23
ENDBRANCH  15  21
ENDBRANCH   1  17
TORSDOF 7
ENDMDL
MODEL 5
REMARK VINA RESULT:      -6.0      1.144      1.380
REMARK  Name = 
REMARK  9 active torsions:
REMARK  status: ('A' for Active; 'I' for Inactive)
REMARK    1  A    between atoms: C_2  and  C_3
REMARK    2  A    between atoms: C_3  and  N_4
REMARK    3  A    between atoms: C_5  and  S_6
REMARK    4  A    between atoms: N_7  and  N_8
REMARK    5  A    between atoms: C_9  and  C_11
REMARK    6  A    between atoms: C_14  and  O_15
REMARK    7  A    between atoms: O_15  and  C_16
REMARK    8  A    between atoms: C_16  and  C_17
REMARK    9  A    between atoms: C_16  and  C_18
REMARK                            x       y       z     vdW  Elec       q    Type
REMARK                         _______ _______ _______ _____ _____    ______ ____
ROOT
ATOM      1  N   UNL     1       2.890   6.821  18.684  0.00  0.00    +0.000 N 
ATOM      2  C   UNL     1       3.616   5.653  18.846  0.00  0.00    +0.000 C 
ATOM      3  O   UNL     1       3.686   4.999  19.884  0.00  0.00    +0.000 OA
ATOM      4  H   UNL     1       2.748   7.243  17.771  0.00  0.00    +0.000 HD
ENDROOT
BRANCH   2   5
ATOM      5  C   UNL     1       4.330   5.168  17.629  0.00  0.00    +0.000 A 
ATOM      6  C   UNL     1       4.531   3.808  17.373  0.00  0.00    +0.000 A 
ATOM      7  C   UNL     1       5.229   3.404  16.226  0.00  0.00    +0.000 A 
ATOM      8  C   UNL     1       5.697   4.347  15.306  0.00  0.00    +0.000 A 
ATOM      9  C   UNL     1       5.462   5.701  15.541  0.00  0.00    +0.000 A 
ATOM     10  C   UNL     1       4.788   6.109  16.699  0.00  0.00    +0.000 A 
BRANCH   8  11
ATOM     11  O   UNL     1       6.412   3.831  14.259  0.00  0.00    +0.000 OA
BRANCH  11  12
ATOM     12  C   UNL     1       6.113   4.295  12.935  0.00  0.00    +0.000 C 
ATOM     13  C   UNL     1       7.391   4.515  12.129  0.00  0.00    +0.000 C 
ATOM     14  C   UNL     1       5.297   3.190  12.260  0.00  0.00    +0.000 C 
ENDBRANCH  11  12
ENDBRANCH   8  11
ENDBRANCH   2   5
BRANCH   1  17
ATOM     15  N   UNL     1       1.028   9.262  20.524  0.00  0.00    +0.000 N 
ATOM     16  C   UNL     1       1.660   8.545  19.552  0.00  0.00    +0.000 C 
ATOM     17  N   UNL     1       2.250   7.402  19.745  0.00  0.00    +0.000 NA
ATOM     18  H   UNL     1       0.334   9.938  20.239  0.00  0.00    +0.000 HD
BRANCH  16  19
ATOM     19  S   UNL     1       1.630   9.343  17.979  0.00  0.00    +0.000 S 
ATOM     20  H   UNL     1       1.345   8.249  17.264  0.00  0.00    +0.000 HD
ENDBRANCH  16  19
BRANCH  15  21
ATOM     21  C   UNL     1       0.978   8.867  21.909  0.00  0.00    +0.000 C 
BRANCH  21  23
ATOM     22  C   UNL     1      -0.770  10.428  22.856  0.00  0.00    +0.000 C 
ATOM     23  C   UNL     1      -0.396   9.229  22.392  0.00  0.00    +0.000 C 
ENDBRANCH  21  23
ENDBRANCH  15  21
ENDBRANCH   1  17
TORSDOF 7
ENDMDL
MODEL 6
REMARK VINA RESULT:      -6.0      2.731      9.240
REMARK  Name = 
REMARK  9 active torsions:
REMARK  status: ('A' for Active; 'I' for Inactive)
REMARK    1  A    between atoms: C_2  and  C_3
REMARK    2  A    between atoms: C_3  and  N_4
REMARK    3  A    between atoms: C_5  and  S_6
REMARK    4  A    between atoms: N_7  and  N_8
REMARK    5  A    between atoms: C_9  and  C_11
REMARK    6  A    between atoms: C_14  and  O_15
REMARK    7  A    between atoms: O_15  and  C_16
REMARK    8  A    between atoms: C_16  and  C_17
REMARK    9  A    between atoms: C_16  and  C_18
REMARK                            x       y       z     vdW  Elec       q    Type
REMARK                         _______ _______ _______ _____ _____    ______ ____
ROOT
ATOM      1  N   UNL     1       2.182   6.958  20.375  0.00  0.00    +0.000 N 
ATOM      2  C   UNL     1       1.744   8.163  19.852  0.00  0.00    +0.000 C 
ATOM      3  O   UNL     1       1.951   8.556  18.706  0.00  0.00    +0.000 OA
ATOM      4  H   UNL     1       1.864   6.616  21.277  0.00  0.00    +0.000 HD
ENDROOT
BRANCH   2   5
ATOM      5  C   UNL     1       0.933   9.007  20.778  0.00  0.00    +0.000 A 
ATOM      6  C   UNL     1       0.057   9.993  20.314  0.00  0.00    +0.000 A 
ATOM      7  C   UNL     1      -0.665  10.776  21.227  0.00  0.00    +0.000 A 
ATOM      8  C   UNL     1      -0.551  10.557  22.603  0.00  0.00    +0.000 A 
ATOM      9  C   UNL     1       0.293   9.548  23.063  0.00  0.00    +0.000 A 
ATOM     10  C   UNL     1       1.036   8.781  22.156  0.00  0.00    +0.000 A 
BRANCH   8  11
ATOM     11  O   UNL     1      -1.261  11.423  23.390  0.00  0.00    +0.000 OA
BRANCH  11  12
ATOM     12  C   UNL     1      -1.857  12.572  22.771  0.00  0.00    +0.000 C 
ATOM     13  C   UNL     1      -3.337  12.684  23.133  0.00  0.00    +0.000 C 
ATOM     14  C   UNL     1      -1.127  13.796  23.329  0.00  0.00    +0.000 C 
ENDBRANCH  11  12
ENDBRANCH   8  11
ENDBRANCH   2   5
BRANCH   1  17
ATOM     15  N   UNL     1       3.466   3.911  19.005  0.00  0.00    +0.000 N 
ATOM     16  C   UNL     1       2.721   4.857  19.643  0.00  0.00    +0.000 C 
ATOM     17  N   UNL     1       2.992   6.129  19.647  0.00  0.00    +0.000 NA
ATOM     18  H   UNL     1       3.023   3.033  18.774  0.00  0.00    +0.000 HD
BRANCH  16  19
ATOM     19  S   UNL     1       1.342   4.179  20.508  0.00  0.00    +0.000 S 
ATOM     20  H   UNL     1       1.891   2.984  20.749  0.00  0.00    +0.000 HD
ENDBRANCH  16  19
BRANCH  15  21
ATOM     21  C   UNL     1       4.687   4.195  18.293  0.00  0.00    +0.000 C 
BRANCH  21  23
ATOM     22  C   UNL     1       5.197   4.291  15.819  0.00  0.00    +0.000 C 
ATOM     23  C   UNL     1       4.351   4.075  16.835  0.00  0.00    +0.000 C 
ENDBRANCH  21  23
ENDBRANCH  15  21
ENDBRANCH   1  17
TORSDOF 7
ENDMDL
MODEL 7
REMARK VINA RESULT:      -6.0      3.213      8.585
REMARK  Name = 
REMARK  9 active torsions:
REMARK  status: ('A' for Active; 'I' for Inactive)
REMARK    1  A    between atoms: C_2  and  C_3
REMARK    2  A    between atoms: C_3  and  N_4
REMARK    3  A    between atoms: C_5  and  S_6
REMARK    4  A    between atoms: N_7  and  N_8
REMARK    5  A    between atoms: C_9  and  C_11
REMARK    6  A    between atoms: C_14  and  O_15
REMARK    7  A    between atoms: O_15  and  C_16
REMARK    8  A    between atoms: C_16  and  C_17
REMARK    9  A    between atoms: C_16  and  C_18
REMARK                            x       y       z     vdW  Elec       q    Type
REMARK                         _______ _______ _______ _____ _____    ______ ____
ROOT
ATOM      1  N   UNL     1       4.619   7.078  16.851  0.00  0.00    +0.000 N 
ATOM      2  C   UNL     1       3.554   6.463  17.486  0.00  0.00    +0.000 C 
ATOM      3  O   UNL     1       3.274   5.269  17.408  0.00  0.00    +0.000 OA
ATOM      4  H   UNL     1       4.892   8.033  17.061  0.00  0.00    +0.000 HD
ENDROOT
BRANCH   2   5
ATOM      5  C   UNL     1       2.723   7.352  18.350  0.00  0.00    +0.000 A 
ATOM      6  C   UNL     1       2.423   7.033  19.678  0.00  0.00    +0.000 A 
ATOM      7  C   UNL     1       1.618   7.891  20.441  0.00  0.00    +0.000 A 
ATOM      8  C   UNL     1       1.139   9.090  19.902  0.00  0.00    +0.000 A 
ATOM      9  C   UNL     1       1.471   9.425  18.591  0.00  0.00    +0.000 A 
ATOM     10  C   UNL     1       2.254   8.558  17.817  0.00  0.00    +0.000 A 
BRANCH   8  11
ATOM     11  O   UNL     1       0.318   9.810  20.727  0.00  0.00    +0.000 OA
BRANCH  11  12
ATOM     12  C   UNL     1       0.015  11.166  20.372  0.00  0.00    +0.000 C 
ATOM     13  C   UNL     1      -1.297  11.250  19.594  0.00  0.00    +0.000 C 
ATOM     14  C   UNL     1      -0.148  11.935  21.684  0.00  0.00    +0.000 C 
ENDBRANCH  11  12
ENDBRANCH   8  11
ENDBRANCH   2   5
BRANCH   1  17
ATOM     15  N   UNL     1       7.400   5.151  15.681  0.00  0.00    +0.000 N 
ATOM     16  C   UNL     1       6.494   5.830  16.441  0.00  0.00    +0.000 C 
ATOM     17  N   UNL     1       5.412   6.383  15.978  0.00  0.00    +0.000 NA
ATOM     18  H   UNL     1       8.008   4.491  16.144  0.00  0.00    +0.000 HD
BRANCH  16  19
ATOM     19  S   UNL     1       6.949   5.917  18.142  0.00  0.00    +0.000 S 
ATOM     20  H   UNL     1       6.753   4.622  18.414  0.00  0.00    +0.000 HD
ENDBRANCH  16  19
BRANCH  15  21
ATOM     21  C   UNL     1       7.300   5.005  14.251  0.00  0.00    +0.000 C 
BRANCH  21  23
ATOM     22  C   UNL     1       5.857   3.495  12.828  0.00  0.00    +0.000 C 
ATOM     23  C   UNL     1       6.342   3.874  14.018  0.00  0.00    +0.000 C 
ENDBRANCH  21  23
ENDBRANCH  15  21
ENDBRANCH   1  17
TORSDOF 7
ENDMDL
MODEL 8
REMARK VINA RESULT:      -6.0      3.273      8.557
REMARK  Name = 
REMARK  9 active torsions:
REMARK  status: ('A' for Active; 'I' for Inactive)
REMARK    1  A    between atoms: C_2  and  C_3
REMARK    2  A    between atoms: C_3  and  N_4
REMARK    3  A    between atoms: C_5  and  S_6
REMARK    4  A    between atoms: N_7  and  N_8
REMARK    5  A    between atoms: C_9  and  C_11
REMARK    6  A    between atoms: C_14  and  O_15
REMARK    7  A    between atoms: O_15  and  C_16
REMARK    8  A    between atoms: C_16  and  C_17
REMARK    9  A    between atoms: C_16  and  C_18
REMARK                            x       y       z     vdW  Elec       q    Type
REMARK                         _______ _______ _______ _____ _____    ______ ____
ROOT
ATOM      1  N   UNL     1       4.203   6.747  17.170  0.00  0.00    +0.000 N 
ATOM      2  C   UNL     1       3.283   6.445  18.159  0.00  0.00    +0.000 C 
ATOM      3  O   UNL     1       3.121   5.336  18.664  0.00  0.00    +0.000 OA
ATOM      4  H   UNL     1       4.396   7.703  16.889  0.00  0.00    +0.000 HD
ENDROOT
BRANCH   2   5
ATOM      5  C   UNL     1       2.463   7.594  18.645  0.00  0.00    +0.000 A 
ATOM      6  C   UNL     1       1.954   7.650  19.946  0.00  0.00    +0.000 A 
ATOM      7  C   UNL     1       1.170   8.742  20.346  0.00  0.00    +0.000 A 
ATOM      8  C   UNL     1       0.920   9.802  19.469  0.00  0.00    +0.000 A 
ATOM      9  C   UNL     1       1.461   9.763  18.185  0.00  0.00    +0.000 A 
ATOM     10  C   UNL     1       2.223   8.663  17.773  0.00  0.00    +0.000 A 
BRANCH   8  11
ATOM     11  O   UNL     1       0.094  10.778  19.958  0.00  0.00    +0.000 OA
BRANCH  11  12
ATOM     12  C   UNL     1       0.455  12.148  19.739  0.00  0.00    +0.000 C 
ATOM     13  C   UNL     1      -0.608  12.871  18.913  0.00  0.00    +0.000 C 
ATOM     14  C   UNL     1       0.528  12.806  21.119  0.00  0.00    +0.000 C 
ENDBRANCH  11  12
ENDBRANCH   8  11
ENDBRANCH   2   5
BRANCH   1  17
ATOM     15  N   UNL     1       7.135   5.015  16.068  0.00  0.00    +0.000 N 
ATOM     16  C   UNL     1       6.257   5.887  16.639  0.00  0.00    +0.000 C 
ATOM     17  N   UNL     1       4.963   5.764  16.595  0.00  0.00    +0.000 NA
ATOM     18  H   UNL     1       8.082   4.995  16.421  0.00  0.00    +0.000 HD
BRANCH  16  19
ATOM     19  S   UNL     1       7.053   7.244  17.434  0.00  0.00    +0.000 S 
ATOM     20  H   UNL     1       8.136   6.568  17.833  0.00  0.00    +0.000 HD
ENDBRANCH  16  19
BRANCH  15  21
ATOM     21  C   UNL     1       6.738   3.867  15.293  0.00  0.00    +0.000 C 
BRANCH  21  23
ATOM     22  C   UNL     1       6.116   3.642  12.853  0.00  0.00    +0.000 C 
ATOM     23  C   UNL     1       6.613   4.348  13.877  0.00  0.00    +0.000 C 
ENDBRANCH  21  23
ENDBRANCH  15  21
ENDBRANCH   1  17
TORSDOF 7
ENDMDL
MODEL 9
REMARK VINA RESULT:      -5.9      1.487      2.189
REMARK  Name = 
REMARK  9 active torsions:
REMARK  status: ('A' for Active; 'I' for Inactive)
REMARK    1  A    between atoms: C_2  and  C_3
REMARK    2  A    between atoms: C_3  and  N_4
REMARK    3  A    between atoms: C_5  and  S_6
REMARK    4  A    between atoms: N_7  and  N_8
REMARK    5  A    between atoms: C_9  and  C_11
REMARK    6  A    between atoms: C_14  and  O_15
REMARK    7  A    between atoms: O_15  and  C_16
REMARK    8  A    between atoms: C_16  and  C_17
REMARK    9  A    between atoms: C_16  and  C_18
REMARK                            x       y       z     vdW  Elec       q    Type
REMARK                         _______ _______ _______ _____ _____    ______ ____
ROOT
ATOM      1  N   UNL     1       1.552   9.085  19.306  0.00  0.00    +0.000 N 
ATOM      2  C   UNL     1       1.841   7.829  19.813  0.00  0.00    +0.000 C 
ATOM      3  O   UNL     1       1.498   7.415  20.918  0.00  0.00    +0.000 OA
ATOM      4  H   UNL     1       1.732   9.328  18.336  0.00  0.00    +0.000 HD
ENDROOT
BRANCH   2   5
ATOM      5  C   UNL     1       2.604   6.929  18.900  0.00  0.00    +0.000 A 
ATOM      6  C   UNL     1       3.461   7.421  17.911  0.00  0.00    +0.000 A 
ATOM      7  C   UNL     1       4.137   6.533  17.063  0.00  0.00    +0.000 A 
ATOM      8  C   UNL     1       3.997   5.150  17.218  0.00  0.00    +0.000 A 
ATOM      9  C   UNL     1       3.173   4.660  18.229  0.00  0.00    +0.000 A 
ATOM     10  C   UNL     1       2.475   5.544  19.062  0.00  0.00    +0.000 A 
BRANCH   8  11
ATOM     11  O   UNL     1       4.663   4.392  16.293  0.00  0.00    +0.000 OA
BRANCH  11  12
ATOM     12  C   UNL     1       5.886   4.904  15.745  0.00  0.00    +0.000 C 
ATOM     13  C   UNL     1       7.081   4.515  16.614  0.00  0.00    +0.000 C 
ATOM     14  C   UNL     1       6.053   4.255  14.370  0.00  0.00    +0.000 C 
ENDBRANCH  11  12
ENDBRANCH   8  11
ENDBRANCH   2   5
BRANCH   1  17
ATOM     15  N   UNL     1      -0.881  11.538  20.243  0.00  0.00    +0.000 N 
ATOM     16  C   UNL     1      -0.173  10.559  19.612  0.00  0.00    +0.000 C 
ATOM     17  N   UNL     1       0.918  10.024  20.075  0.00  0.00    +0.000 NA
ATOM     18  H   UNL     1      -1.854  11.654  19.996  0.00  0.00    +0.000 HD
BRANCH  16  19
ATOM     19  S   UNL     1      -0.871  10.095  18.060  0.00  0.00    +0.000 S 
ATOM     20  H   UNL     1      -0.502  11.196  17.396  0.00  0.00    +0.000 HD
ENDBRANCH  16  19
BRANCH  15  21
ATOM     21  C   UNL     1      -0.479  12.146  21.486  0.00  0.00    +0.000 C 
BRANCH  21  23
ATOM     22  C   UNL     1      -0.919  10.333  23.191  0.00  0.00    +0.000 C 
ATOM     23  C   UNL     1      -1.273  11.459  22.557  0.00  0.00    +0.000 C 
ENDBRANCH  21  23
ENDBRANCH  15  21
ENDBRANCH   1  17
TORSDOF 7
ENDMDL
