MODEL 1
REMARK VINA RESULT:      -8.5      0.000      0.000
REMARK  Name = 
REMARK  5 active torsions:
REMARK  status: ('A' for Active; 'I' for Inactive)
REMARK    1  A    between atoms: C_1  and  C_2
REMARK    2  A    between atoms: C_6  and  N_7
REMARK    3  A    between atoms: C_16  and  C_17
REMARK    4  A    between atoms: C_18  and  C_19
REMARK    5  A    between atoms: C_23  and  C_24
REMARK                            x       y       z     vdW  Elec       q    Type
REMARK                         _______ _______ _______ _____ _____    ______ ____
ROOT
ATOM      1  N   UNL     1       5.088   4.727  17.790  0.00  0.00    +0.000 N 
ATOM      2  C   UNL     1       5.995   4.969  18.940  0.00  0.00    +0.000 C 
ATOM      3  C   UNL     1       7.327   5.542  18.452  0.00  0.00    +0.000 C 
ATOM      4  N   UNL     1       7.108   6.814  17.752  0.00  0.00    +0.000 N 
ATOM      5  C   UNL     1       7.918   7.886  18.114  0.00  0.00    +0.000 C 
ATOM      6  O   UNL     1       8.779   7.733  18.982  0.00  0.00    +0.000 OA
ATOM      7  N   UNL     1       7.666   9.080  17.490  0.00  0.00    +0.000 N 
ATOM      8  C   UNL     1       8.389  10.207  17.811  0.00  0.00    +0.000 A 
ATOM      9  N   UNL     1       8.031  11.448  17.556  0.00  0.00    +0.000 NA
ATOM     10  C   UNL     1       9.043  12.214  18.113  0.00  0.00    +0.000 A 
ATOM     11  C   UNL     1       9.014  13.690  18.114  0.00  0.00    +0.000 C 
ATOM     12  C   UNL     1      10.004  11.379  18.645  0.00  0.00    +0.000 A 
ATOM     13  C   UNL     1      11.284  11.572  19.350  0.00  0.00    +0.000 C 
ATOM     14  O   UNL     1       9.595  10.095  18.441  0.00  0.00    +0.000 OA
ATOM     15  C   UNL     1       6.175   6.689  16.619  0.00  0.00    +0.000 C 
ATOM     16  C   UNL     1       4.844   5.974  17.007  0.00  0.00    +0.000 C 
ATOM     17  H   UNL     1       6.785   9.265  17.058  0.00  0.00    +0.000 HD
ENDROOT
BRANCH   1  23
ATOM     18  C   UNL     1       0.805   4.144  20.390  0.00  0.00    +0.000 C 
ATOM     19  C   UNL     1       1.802   3.706  19.348  0.00  0.00    +0.000 A 
ATOM     20  C   UNL     1       1.569   2.496  18.685  0.00  0.00    +0.000 A 
ATOM     21  C   UNL     1       2.463   2.040  17.730  0.00  0.00    +0.000 A 
ATOM     22  C   UNL     1       3.617   2.774  17.453  0.00  0.00    +0.000 A 
ATOM     23  C   UNL     1       3.906   3.998  18.091  0.00  0.00    +0.000 A 
ATOM     24  C   UNL     1       2.947   4.488  19.018  0.00  0.00    +0.000 A 
ATOM     25  C   UNL     1       3.095   5.852  19.651  0.00  0.00    +0.000 C 
ENDBRANCH   1  23
TORSDOF 1
ENDMDL
MODEL 2
REMARK VINA RESULT:      -8.3      6.531      8.317
REMARK  Name = 
REMARK  5 active torsions:
REMARK  status: ('A' for Active; 'I' for Inactive)
REMARK    1  A    between atoms: C_1  and  C_2
REMARK    2  A    between atoms: C_6  and  N_7
REMARK    3  A    between atoms: C_16  and  C_17
REMARK    4  A    between atoms: C_18  and  C_19
REMARK    5  A    between atoms: C_23  and  C_24
REMARK                            x       y       z     vdW  Elec       q    Type
REMARK                         _______ _______ _______ _____ _____    ______ ____
ROOT
ATOM      1  N   UNL     1       2.525   7.138  18.767  0.00  0.00    +0.000 N 
ATOM      2  C   UNL     1       1.848   7.033  20.084  0.00  0.00    +0.000 C 
ATOM      3  C   UNL     1       1.766   8.409  20.748  0.00  0.00    +0.000 C 
ATOM      4  N   UNL     1       1.005   9.338  19.902  0.00  0.00    +0.000 N 
ATOM      5  C   UNL     1       0.004  10.083  20.518  0.00  0.00    +0.000 C 
ATOM      6  O   UNL     1      -0.199   9.950  21.725  0.00  0.00    +0.000 OA
ATOM      7  N   UNL     1      -0.733  10.906  19.705  0.00  0.00    +0.000 N 
ATOM      8  C   UNL     1      -1.770  11.653  20.216  0.00  0.00    +0.000 A 
ATOM      9  N   UNL     1      -2.746  12.193  19.516  0.00  0.00    +0.000 NA
ATOM     10  C   UNL     1      -3.559  12.785  20.470  0.00  0.00    +0.000 A 
ATOM     11  C   UNL     1      -4.825  13.462  20.125  0.00  0.00    +0.000 C 
ATOM     12  C   UNL     1      -2.997  12.611  21.718  0.00  0.00    +0.000 A 
ATOM     13  C   UNL     1      -3.363  12.995  23.092  0.00  0.00    +0.000 C 
ATOM     14  O   UNL     1      -1.846  11.898  21.557  0.00  0.00    +0.000 OA
ATOM     15  C   UNL     1       1.570   9.472  18.548  0.00  0.00    +0.000 C 
ATOM     16  C   UNL     1       1.825   8.095  17.860  0.00  0.00    +0.000 C 
ATOM     17  H   UNL     1      -0.779  10.756  18.719  0.00  0.00    +0.000 HD
ENDROOT
BRANCH   1  23
ATOM     18  C   UNL     1       5.619   4.265  16.008  0.00  0.00    +0.000 C 
ATOM     19  C   UNL     1       4.364   4.479  16.813  0.00  0.00    +0.000 A 
ATOM     20  C   UNL     1       3.457   3.417  16.912  0.00  0.00    +0.000 A 
ATOM     21  C   UNL     1       2.280   3.567  17.626  0.00  0.00    +0.000 A 
ATOM     22  C   UNL     1       1.981   4.794  18.221  0.00  0.00    +0.000 A 
ATOM     23  C   UNL     1       2.853   5.900  18.152  0.00  0.00    +0.000 A 
ATOM     24  C   UNL     1       4.088   5.711  17.475  0.00  0.00    +0.000 A 
ATOM     25  C   UNL     1       5.148   6.788  17.464  0.00  0.00    +0.000 C 
ENDBRANCH   1  23
TORSDOF 1
ENDMDL
MODEL 3
REMARK VINA RESULT:      -8.1      0.717      1.695
REMARK  Name = 
REMARK  5 active torsions:
REMARK  status: ('A' for Active; 'I' for Inactive)
REMARK    1  A    between atoms: C_1  and  C_2
REMARK    2  A    between atoms: C_6  and  N_7
REMARK    3  A    between atoms: C_16  and  C_17
REMARK    4  A    between atoms: C_18  and  C_19
REMARK    5  A    between atoms: C_23  and  C_24
REMARK                            x       y       z     vdW  Elec       q    Type
REMARK                         _______ _______ _______ _____ _____    ______ ____
ROOT
ATOM      1  N   UNL     1       4.702   5.466  18.416  0.00  0.00    +0.000 N 
ATOM      2  C   UNL     1       5.826   5.587  19.377  0.00  0.00    +0.000 C 
ATOM      3  C   UNL     1       7.103   6.007  18.646  0.00  0.00    +0.000 C 
ATOM      4  N   UNL     1       6.909   7.304  17.986  0.00  0.00    +0.000 N 
ATOM      5  C   UNL     1       7.892   8.270  18.182  0.00  0.00    +0.000 C 
ATOM      6  O   UNL     1       8.873   8.007  18.877  0.00  0.00    +0.000 OA
ATOM      7  N   UNL     1       7.670   9.493  17.604  0.00  0.00    +0.000 N 
ATOM      8  C   UNL     1       8.566  10.524  17.775  0.00  0.00    +0.000 A 
ATOM      9  N   UNL     1       8.314  11.802  17.578  0.00  0.00    +0.000 NA
ATOM     10  C   UNL     1       9.494  12.437  17.932  0.00  0.00    +0.000 A 
ATOM     11  C   UNL     1       9.638  13.906  17.924  0.00  0.00    +0.000 C 
ATOM     12  C   UNL     1      10.433  11.490  18.285  0.00  0.00    +0.000 A 
ATOM     13  C   UNL     1      11.834  11.524  18.740  0.00  0.00    +0.000 C 
ATOM     14  O   UNL     1       9.846  10.265  18.173  0.00  0.00    +0.000 OA
ATOM     15  C   UNL     1       5.775   7.303  17.046  0.00  0.00    +0.000 C 
ATOM     16  C   UNL     1       4.464   6.742  17.679  0.00  0.00    +0.000 C 
ATOM     17  H   UNL     1       6.752   9.784  17.340  0.00  0.00    +0.000 HD
ENDROOT
BRANCH   1  23
ATOM     18  C   UNL     1       1.266   1.773  18.468  0.00  0.00    +0.000 C 
ATOM     19  C   UNL     1       1.836   3.070  18.981  0.00  0.00    +0.000 A 
ATOM     20  C   UNL     1       1.132   3.746  19.985  0.00  0.00    +0.000 A 
ATOM     21  C   UNL     1       1.604   4.950  20.479  0.00  0.00    +0.000 A 
ATOM     22  C   UNL     1       2.769   5.509  19.951  0.00  0.00    +0.000 A 
ATOM     23  C   UNL     1       3.518   4.876  18.937  0.00  0.00    +0.000 A 
ATOM     24  C   UNL     1       3.060   3.608  18.487  0.00  0.00    +0.000 A 
ATOM     25  C   UNL     1       3.864   2.788  17.506  0.00  0.00    +0.000 C 
ENDBRANCH   1  23
TORSDOF 1
ENDMDL
MODEL 4
REMARK VINA RESULT:      -8.0      6.055      8.908
REMARK  Name = 
REMARK  5 active torsions:
REMARK  status: ('A' for Active; 'I' for Inactive)
REMARK    1  A    between atoms: C_1  and  C_2
REMARK    2  A    between atoms: C_6  and  N_7
REMARK    3  A    between atoms: C_16  and  C_17
REMARK    4  A    between atoms: C_18  and  C_19
REMARK    5  A    between atoms: C_23  and  C_24
REMARK                            x       y       z     vdW  Elec       q    Type
REMARK                         _______ _______ _______ _____ _____    ______ ____
ROOT
ATOM      1  N   UNL     1      -0.112  10.616  19.810  0.00  0.00    +0.000 N 
ATOM      2  C   UNL     1       0.387  10.416  18.426  0.00  0.00    +0.000 C 
ATOM      3  C   UNL     1       1.808   9.849  18.453  0.00  0.00    +0.000 C 
ATOM      4  N   UNL     1       1.828   8.558  19.151  0.00  0.00    +0.000 N 
ATOM      5  C   UNL     1       2.489   7.506  18.522  0.00  0.00    +0.000 C 
ATOM      6  O   UNL     1       3.030   7.692  17.432  0.00  0.00    +0.000 OA
ATOM      7  N   UNL     1       2.452   6.293  19.161  0.00  0.00    +0.000 N 
ATOM      8  C   UNL     1       3.043   5.185  18.597  0.00  0.00    +0.000 A 
ATOM      9  N   UNL     1       2.791   3.932  18.917  0.00  0.00    +0.000 NA
ATOM     10  C   UNL     1       3.579   3.195  18.049  0.00  0.00    +0.000 A 
ATOM     11  C   UNL     1       3.560   1.719  18.016  0.00  0.00    +0.000 C 
ATOM     12  C   UNL     1       4.319   4.056  17.264  0.00  0.00    +0.000 A 
ATOM     13  C   UNL     1       5.312   3.898  16.187  0.00  0.00    +0.000 C 
ATOM     14  O   UNL     1       3.988   5.329  17.622  0.00  0.00    +0.000 OA
ATOM     15  C   UNL     1       1.300   8.641  20.523  0.00  0.00    +0.000 C 
ATOM     16  C   UNL     1      -0.090   9.348  20.595  0.00  0.00    +0.000 C 
ATOM     17  H   UNL     1       1.754   6.086  19.843  0.00  0.00    +0.000 HD
ENDROOT
BRANCH   1  23
ATOM     18  C   UNL     1      -3.289  13.553  22.403  0.00  0.00    +0.000 C 
ATOM     19  C   UNL     1      -2.892  12.782  21.171  0.00  0.00    +0.000 A 
ATOM     20  C   UNL     1      -3.796  12.737  20.103  0.00  0.00    +0.000 A 
ATOM     21  C   UNL     1      -3.486  12.029  18.954  0.00  0.00    +0.000 A 
ATOM     22  C   UNL     1      -2.281  11.330  18.873  0.00  0.00    +0.000 A 
ATOM     23  C   UNL     1      -1.332  11.336  19.917  0.00  0.00    +0.000 A 
ATOM     24  C   UNL     1      -1.633  12.123  21.062  0.00  0.00    +0.000 A 
ATOM     25  C   UNL     1      -0.625  12.305  22.173  0.00  0.00    +0.000 C 
ENDBRANCH   1  23
TORSDOF 1
ENDMDL
MODEL 5
REMARK VINA RESULT:      -8.0      7.221     10.269
REMARK  Name = 
REMARK  5 active torsions:
REMARK  status: ('A' for Active; 'I' for Inactive)
REMARK    1  A    between atoms: C_1  and  C_2
REMARK    2  A    between atoms: C_6  and  N_7
REMARK    3  A    between atoms: C_16  and  C_17
REMARK    4  A    between atoms: C_18  and  C_19
REMARK    5  A    between atoms: C_23  and  C_24
REMARK                            x       y       z     vdW  Elec       q    Type
REMARK                         _______ _______ _______ _____ _____    ______ ____
ROOT
ATOM      1  N   UNL     1      -0.316  11.434  22.400  0.00  0.00    +0.000 N 
ATOM      2  C   UNL     1      -0.228  11.226  20.933  0.00  0.00    +0.000 C 
ATOM      3  C   UNL     1       1.078  10.512  20.579  0.00  0.00    +0.000 C 
ATOM      4  N   UNL     1       1.140   9.204  21.243  0.00  0.00    +0.000 N 
ATOM      5  C   UNL     1       1.491   8.110  20.458  0.00  0.00    +0.000 C 
ATOM      6  O   UNL     1       1.741   8.272  19.263  0.00  0.00    +0.000 OA
ATOM      7  N   UNL     1       1.492   6.887  21.079  0.00  0.00    +0.000 N 
ATOM      8  C   UNL     1       1.786   5.741  20.376  0.00  0.00    +0.000 A 
ATOM      9  N   UNL     1       1.492   4.513  20.749  0.00  0.00    +0.000 NA
ATOM     10  C   UNL     1       1.936   3.725  19.699  0.00  0.00    +0.000 A 
ATOM     11  C   UNL     1       1.746   2.261  19.669  0.00  0.00    +0.000 C 
ATOM     12  C   UNL     1       2.531   4.528  18.748  0.00  0.00    +0.000 A 
ATOM     13  C   UNL     1       3.179   4.301  17.444  0.00  0.00    +0.000 C 
ATOM     14  O   UNL     1       2.449   5.816  19.184  0.00  0.00    +0.000 OA
ATOM     15  C   UNL     1       1.008   9.299  22.706  0.00  0.00    +0.000 C 
ATOM     16  C   UNL     1      -0.227  10.146  23.148  0.00  0.00    +0.000 C 
ATOM     17  H   UNL     1       0.981   6.734  21.923  0.00  0.00    +0.000 HD
ENDROOT
BRANCH   1  23
ATOM     18  C   UNL     1      -2.174  16.000  23.470  0.00  0.00    +0.000 C 
ATOM     19  C   UNL     1      -2.303  14.504  23.348  0.00  0.00    +0.000 A 
ATOM     20  C   UNL     1      -3.516  13.917  23.728  0.00  0.00    +0.000 A 
ATOM     21  C   UNL     1      -3.681  12.544  23.651  0.00  0.00    +0.000 A 
ATOM     22  C   UNL     1      -2.623  11.740  23.225  0.00  0.00    +0.000 A 
ATOM     23  C   UNL     1      -1.378  12.275  22.832  0.00  0.00    +0.000 A 
ATOM     24  C   UNL     1      -1.245  13.690  22.850  0.00  0.00    +0.000 A 
ATOM     25  C   UNL     1      -0.003  14.366  22.320  0.00  0.00    +0.000 C 
ENDBRANCH   1  23
TORSDOF 1
ENDMDL
MODEL 6
REMARK VINA RESULT:      -7.9      6.268      8.823
REMARK  Name = 
REMARK  5 active torsions:
REMARK  status: ('A' for Active; 'I' for Inactive)
REMARK    1  A    between atoms: C_1  and  C_2
REMARK    2  A    between atoms: C_6  and  N_7
REMARK    3  A    between atoms: C_16  and  C_17
REMARK    4  A    between atoms: C_18  and  C_19
REMARK    5  A    between atoms: C_23  and  C_24
REMARK                            x       y       z     vdW  Elec       q    Type
REMARK                         _______ _______ _______ _____ _____    ______ ____
ROOT
ATOM      1  N   UNL     1      -0.609  10.677  19.312  0.00  0.00    +0.000 N 
ATOM      2  C   UNL     1      -0.039  10.211  18.023  0.00  0.00    +0.000 C 
ATOM      3  C   UNL     1       1.446   9.882  18.190  0.00  0.00    +0.000 C 
ATOM      4  N   UNL     1       1.624   8.824  19.192  0.00  0.00    +0.000 N 
ATOM      5  C   UNL     1       2.448   7.756  18.849  0.00  0.00    +0.000 C 
ATOM      6  O   UNL     1       2.995   7.739  17.746  0.00  0.00    +0.000 OA
ATOM      7  N   UNL     1       2.562   6.750  19.774  0.00  0.00    +0.000 N 
ATOM      8  C   UNL     1       3.322   5.634  19.508  0.00  0.00    +0.000 A 
ATOM      9  N   UNL     1       3.238   4.479  20.136  0.00  0.00    +0.000 NA
ATOM     10  C   UNL     1       4.153   3.670  19.480  0.00  0.00    +0.000 A 
ATOM     11  C   UNL     1       4.343   2.247  19.822  0.00  0.00    +0.000 C 
ATOM     12  C   UNL     1       4.790   4.405  18.502  0.00  0.00    +0.000 A 
ATOM     13  C   UNL     1       5.832   4.128  17.497  0.00  0.00    +0.000 C 
ATOM     14  O   UNL     1       4.270   5.665  18.526  0.00  0.00    +0.000 OA
ATOM     15  C   UNL     1       1.042   9.172  20.500  0.00  0.00    +0.000 C 
ATOM     16  C   UNL     1      -0.435   9.664  20.393  0.00  0.00    +0.000 C 
ATOM     17  H   UNL     1       1.876   6.622  20.488  0.00  0.00    +0.000 HD
ENDROOT
BRANCH   1  23
ATOM     18  C   UNL     1      -4.231  13.733  21.039  0.00  0.00    +0.000 C 
ATOM     19  C   UNL     1      -3.700  12.715  20.065  0.00  0.00    +0.000 A 
ATOM     20  C   UNL     1      -4.565  12.244  19.069  0.00  0.00    +0.000 A 
ATOM     21  C   UNL     1      -4.131  11.295  18.158  0.00  0.00    +0.000 A 
ATOM     22  C   UNL     1      -2.837  10.782  18.254  0.00  0.00    +0.000 A 
ATOM     23  C   UNL     1      -1.922  11.216  19.237  0.00  0.00    +0.000 A 
ATOM     24  C   UNL     1      -2.357  12.239  20.122  0.00  0.00    +0.000 A 
ATOM     25  C   UNL     1      -1.411  12.867  21.118  0.00  0.00    +0.000 C 
ENDBRANCH   1  23
TORSDOF 1
ENDMDL
MODEL 7
REMARK VINA RESULT:      -7.9      5.749      6.740
REMARK  Name = 
REMARK  5 active torsions:
REMARK  status: ('A' for Active; 'I' for Inactive)
REMARK    1  A    between atoms: C_1  and  C_2
REMARK    2  A    between atoms: C_6  and  N_7
REMARK    3  A    between atoms: C_16  and  C_17
REMARK    4  A    between atoms: C_18  and  C_19
REMARK    5  A    between atoms: C_23  and  C_24
REMARK                            x       y       z     vdW  Elec       q    Type
REMARK                         _______ _______ _______ _____ _____    ______ ____
ROOT
ATOM      1  N   UNL     1       2.292   6.995  18.875  0.00  0.00    +0.000 N 
ATOM      2  C   UNL     1       2.631   8.084  17.926  0.00  0.00    +0.000 C 
ATOM      3  C   UNL     1       1.507   9.121  17.886  0.00  0.00    +0.000 C 
ATOM      4  N   UNL     1       1.306   9.706  19.218  0.00  0.00    +0.000 N 
ATOM      5  C   UNL     1       1.233  11.093  19.297  0.00  0.00    +0.000 C 
ATOM      6  O   UNL     1       1.327  11.768  18.271  0.00  0.00    +0.000 OA
ATOM      7  N   UNL     1       1.099  11.627  20.553  0.00  0.00    +0.000 N 
ATOM      8  C   UNL     1       1.059  12.991  20.737  0.00  0.00    +0.000 A 
ATOM      9  N   UNL     1       1.280  13.620  21.872  0.00  0.00    +0.000 NA
ATOM     10  C   UNL     1       1.181  14.962  21.540  0.00  0.00    +0.000 A 
ATOM     11  C   UNL     1       1.425  16.042  22.516  0.00  0.00    +0.000 C 
ATOM     12  C   UNL     1       0.852  15.077  20.205  0.00  0.00    +0.000 A 
ATOM     13  C   UNL     1       0.610  16.198  19.280  0.00  0.00    +0.000 C 
ATOM     14  O   UNL     1       0.760  13.817  19.692  0.00  0.00    +0.000 OA
ATOM     15  C   UNL     1       1.013   8.695  20.248  0.00  0.00    +0.000 C 
ATOM     16  C   UNL     1       2.040   7.519  20.250  0.00  0.00    +0.000 C 
ATOM     17  H   UNL     1       1.355  11.109  21.367  0.00  0.00    +0.000 HD
ENDROOT
BRANCH   1  23
ATOM     18  C   UNL     1       3.148   2.121  17.900  0.00  0.00    +0.000 C 
ATOM     19  C   UNL     1       3.592   3.487  18.357  0.00  0.00    +0.000 A 
ATOM     20  C   UNL     1       4.906   3.631  18.816  0.00  0.00    +0.000 A 
ATOM     21  C   UNL     1       5.359   4.861  19.263  0.00  0.00    +0.000 A 
ATOM     22  C   UNL     1       4.491   5.953  19.288  0.00  0.00    +0.000 A 
ATOM     23  C   UNL     1       3.155   5.868  18.841  0.00  0.00    +0.000 A 
ATOM     24  C   UNL     1       2.724   4.617  18.320  0.00  0.00    +0.000 A 
ATOM     25  C   UNL     1       1.360   4.459  17.692  0.00  0.00    +0.000 C 
ENDBRANCH   1  23
TORSDOF 1
ENDMDL
MODEL 8
REMARK VINA RESULT:      -7.8      6.641      8.695
REMARK  Name = 
REMARK  5 active torsions:
REMARK  status: ('A' for Active; 'I' for Inactive)
REMARK    1  A    between atoms: C_1  and  C_2
REMARK    2  A    between atoms: C_6  and  N_7
REMARK    3  A    between atoms: C_16  and  C_17
REMARK    4  A    between atoms: C_18  and  C_19
REMARK    5  A    between atoms: C_23  and  C_24
REMARK                            x       y       z     vdW  Elec       q    Type
REMARK                         _______ _______ _______ _____ _____    ______ ____
ROOT
ATOM      1  N   UNL     1       2.687   7.413  19.009  0.00  0.00    +0.000 N 
ATOM      2  C   UNL     1       1.843   7.621  20.212  0.00  0.00    +0.000 C 
ATOM      3  C   UNL     1       1.436   9.091  20.325  0.00  0.00    +0.000 C 
ATOM      4  N   UNL     1       0.673   9.501  19.139  0.00  0.00    +0.000 N 
ATOM      5  C   UNL     1      -0.518  10.187  19.357  0.00  0.00    +0.000 C 
ATOM      6  O   UNL     1      -0.879  10.430  20.509  0.00  0.00    +0.000 OA
ATOM      7  N   UNL     1      -1.247  10.515  18.242  0.00  0.00    +0.000 N 
ATOM      8  C   UNL     1      -2.458  11.159  18.359  0.00  0.00    +0.000 A 
ATOM      9  N   UNL     1      -3.390  11.217  17.431  0.00  0.00    +0.000 NA
ATOM     10  C   UNL     1      -4.425  11.915  18.033  0.00  0.00    +0.000 A 
ATOM     11  C   UNL     1      -5.716  12.158  17.361  0.00  0.00    +0.000 C 
ATOM     12  C   UNL     1      -4.040  12.292  19.303  0.00  0.00    +0.000 A 
ATOM     13  C   UNL     1      -4.670  13.033  20.410  0.00  0.00    +0.000 C 
ATOM     14  O   UNL     1      -2.777  11.822  19.509  0.00  0.00    +0.000 OA
ATOM     15  C   UNL     1       1.409   9.284  17.882  0.00  0.00    +0.000 C 
ATOM     16  C   UNL     1       1.987   7.840  17.762  0.00  0.00    +0.000 C 
ATOM     17  H   UNL     1      -1.116  10.035  17.377  0.00  0.00    +0.000 HD
ENDROOT
BRANCH   1  23
ATOM     18  C   UNL     1       5.981   4.254  16.860  0.00  0.00    +0.000 C 
ATOM     19  C   UNL     1       4.919   4.583  17.877  0.00  0.00    +0.000 A 
ATOM     20  C   UNL     1       4.488   3.561  18.731  0.00  0.00    +0.000 A 
ATOM     21  C   UNL     1       3.503   3.806  19.673  0.00  0.00    +0.000 A 
ATOM     22  C   UNL     1       2.913   5.068  19.748  0.00  0.00    +0.000 A 
ATOM     23  C   UNL     1       3.303   6.136  18.912  0.00  0.00    +0.000 A 
ATOM     24  C   UNL     1       4.363   5.890  17.997  0.00  0.00    +0.000 A 
ATOM     25  C   UNL     1       4.945   7.001  17.157  0.00  0.00    +0.000 C 
ENDBRANCH   1  23
TORSDOF 1
ENDMDL
MODEL 9
REMARK VINA RESULT:      -7.7      5.999      9.897
REMARK  Name = 
REMARK  5 active torsions:
REMARK  status: ('A' for Active; 'I' for Inactive)
REMARK    1  A    between atoms: C_1  and  C_2
REMARK    2  A    between atoms: C_6  and  N_7
REMARK    3  A    between atoms: C_16  and  C_17
REMARK    4  A    between atoms: C_18  and  C_19
REMARK    5  A    between atoms: C_23  and  C_24
REMARK                            x       y       z     vdW  Elec       q    Type
REMARK                         _______ _______ _______ _____ _____    ______ ____
ROOT
ATOM      1  N   UNL     1       1.361  12.524  19.421  0.00  0.00    +0.000 N 
ATOM      2  C   UNL     1       1.291  11.843  20.738  0.00  0.00    +0.000 C 
ATOM      3  C   UNL     1       0.570  10.501  20.602  0.00  0.00    +0.000 C 
ATOM      4  N   UNL     1       1.287   9.631  19.662  0.00  0.00    +0.000 N 
ATOM      5  C   UNL     1       1.538   8.324  20.071  0.00  0.00    +0.000 C 
ATOM      6  O   UNL     1       1.150   7.947  21.177  0.00  0.00    +0.000 OA
ATOM      7  N   UNL     1       2.256   7.540  19.205  0.00  0.00    +0.000 N 
ATOM      8  C   UNL     1       2.588   6.246  19.538  0.00  0.00    +0.000 A 
ATOM      9  N   UNL     1       3.536   5.527  18.976  0.00  0.00    +0.000 NA
ATOM     10  C   UNL     1       3.521   4.334  19.682  0.00  0.00    +0.000 A 
ATOM     11  C   UNL     1       4.481   3.244  19.422  0.00  0.00    +0.000 C 
ATOM     12  C   UNL     1       2.513   4.377  20.623  0.00  0.00    +0.000 A 
ATOM     13  C   UNL     1       2.000   3.452  21.650  0.00  0.00    +0.000 C 
ATOM     14  O   UNL     1       1.906   5.593  20.524  0.00  0.00    +0.000 OA
ATOM     15  C   UNL     1       1.456  10.241  18.332  0.00  0.00    +0.000 C 
ATOM     16  C   UNL     1       2.051  11.682  18.400  0.00  0.00    +0.000 C 
ATOM     17  H   UNL     1       2.829   7.943  18.493  0.00  0.00    +0.000 HD
ENDROOT
BRANCH   1  23
ATOM     18  C   UNL     1       0.645  17.445  18.578  0.00  0.00    +0.000 C 
ATOM     19  C   UNL     1       1.473  16.283  19.059  0.00  0.00    +0.000 A 
ATOM     20  C   UNL     1       2.771  16.545  19.515  0.00  0.00    +0.000 A 
ATOM     21  C   UNL     1       3.580  15.509  19.953  0.00  0.00    +0.000 A 
ATOM     22  C   UNL     1       3.111  14.195  19.908  0.00  0.00    +0.000 A 
ATOM     23  C   UNL     1       1.815  13.870  19.456  0.00  0.00    +0.000 A 
ATOM     24  C   UNL     1       0.971  14.949  19.075  0.00  0.00    +0.000 A 
ATOM     25  C   UNL     1      -0.476  14.719  18.708  0.00  0.00    +0.000 C 
ENDBRANCH   1  23
TORSDOF 1
ENDMDL
