MODEL 1
REMARK VINA RESULT:      -7.0      0.000      0.000
REMARK  Name = 
REMARK  11 active torsions:
REMARK  status: ('A' for Active; 'I' for Inactive)
REMARK    1  A    between atoms: C_2  and  C_3
REMARK    2  A    between atoms: C_2  and  C_4
REMARK    3  A    between atoms: C_4  and  O_5
REMARK    4  A    between atoms: O_5  and  C_6
REMARK    5  A    between atoms: C_10  and  C_11
REMARK    6  A    between atoms: C_11  and  N_12
REMARK    7  A    between atoms: N_12  and  C_13
REMARK    8  A    between atoms: C_13  and  C_14
REMARK    9  A    between atoms: C_13  and  C_16
REMARK   10  A    between atoms: C_14  and  C_15
REMARK   11  A    between atoms: N_20  and  C_21
REMARK                            x       y       z     vdW  Elec       q    Type
REMARK                         _______ _______ _______ _____ _____    ______ ____
ROOT
ATOM      1  C   UNL     1       4.929   4.693  18.795  0.00  0.00    +0.000 C 
ENDROOT
BRANCH   1   6
ATOM      2  C   UNL     1       5.661   4.246  15.075  0.00  0.00    +0.000 A 
ATOM      3  C   UNL     1       7.022   4.548  15.027  0.00  0.00    +0.000 A 
ATOM      4  C   UNL     1       7.712   4.895  16.190  0.00  0.00    +0.000 A 
ATOM      5  C   UNL     1       7.045   4.931  17.415  0.00  0.00    +0.000 A 
ATOM      6  C   UNL     1       5.681   4.619  17.486  0.00  0.00    +0.000 A 
ATOM      7  C   UNL     1       5.001   4.266  16.306  0.00  0.00    +0.000 A 
BRANCH   2   8
ATOM      8  O   UNL     1       5.079   3.915  13.879  0.00  0.00    +0.000 OA
BRANCH   8   9
ATOM      9  C   UNL     1       5.992   3.674  12.804  0.00  0.00    +0.000 C 
BRANCH   9  11
ATOM     10  C   UNL     1       5.873   1.625  11.374  0.00  0.00    +0.000 C 
ATOM     11  C   UNL     1       5.326   2.782  11.786  0.00  0.00    +0.000 C 
ATOM     12  C   UNL     1       4.032   3.288  11.215  0.00  0.00    +0.000 C 
ENDBRANCH   9  11
ENDBRANCH   8   9
ENDBRANCH   2   8
ENDBRANCH   1   6
BRANCH   1  13
ATOM     13  N   UNL     1       3.973   5.803  18.793  0.00  0.00    +0.000 NA
ATOM     14  H   UNL     1       3.549   5.833  17.864  0.00  0.00    +0.000 HD
BRANCH  13  15
ATOM     15  C   UNL     1       2.894   5.637  19.772  0.00  0.00    +0.000 C 
BRANCH  15  16
ATOM     16  C   UNL     1       2.080   4.400  19.491  0.00  0.00    +0.000 A 
ATOM     17  C   UNL     1       1.511   4.012  18.288  0.00  0.00    +0.000 A 
ATOM     18  C   UNL     1       0.887   2.784  18.543  0.00  0.00    +0.000 A 
ATOM     19  N   UNL     1       1.034   2.399  19.808  0.00  0.00    +0.000 NA
ATOM     20  N   UNL     1       1.767   3.384  20.372  0.00  0.00    +0.000 N 
ATOM     21  C   UNL     1       2.104   3.249  21.771  0.00  0.00    +0.000 C 
ENDBRANCH  15  16
BRANCH  15  22
ATOM     22  C   UNL     1       1.979   6.868  19.969  0.00  0.00    +0.000 C 
ATOM     23  C   UNL     1       2.146   7.983  18.945  0.00  0.00    +0.000 C 
ENDBRANCH  15  22
ENDBRANCH  13  15
ENDBRANCH   1  13
TORSDOF 8
ENDMDL
MODEL 2
REMARK VINA RESULT:      -7.0      1.463      1.790
REMARK  Name = 
REMARK  11 active torsions:
REMARK  status: ('A' for Active; 'I' for Inactive)
REMARK    1  A    between atoms: C_2  and  C_3
REMARK    2  A    between atoms: C_2  and  C_4
REMARK    3  A    between atoms: C_4  and  O_5
REMARK    4  A    between atoms: O_5  and  C_6
REMARK    5  A    between atoms: C_10  and  C_11
REMARK    6  A    between atoms: C_11  and  N_12
REMARK    7  A    between atoms: N_12  and  C_13
REMARK    8  A    between atoms: C_13  and  C_14
REMARK    9  A    between atoms: C_13  and  C_16
REMARK   10  A    between atoms: C_14  and  C_15
REMARK   11  A    between atoms: N_20  and  C_21
REMARK                            x       y       z     vdW  Elec       q    Type
REMARK                         _______ _______ _______ _____ _____    ______ ____
ROOT
ATOM      1  C   UNL     1       3.903   5.994  18.394  0.00  0.00    +0.000 C 
ENDROOT
BRANCH   1   6
ATOM      2  C   UNL     1       6.485   4.841  15.830  0.00  0.00    +0.000 A 
ATOM      3  C   UNL     1       7.590   4.598  16.646  0.00  0.00    +0.000 A 
ATOM      4  C   UNL     1       7.511   4.802  18.025  0.00  0.00    +0.000 A 
ATOM      5  C   UNL     1       6.317   5.241  18.600  0.00  0.00    +0.000 A 
ATOM      6  C   UNL     1       5.192   5.477  17.798  0.00  0.00    +0.000 A 
ATOM      7  C   UNL     1       5.287   5.262  16.412  0.00  0.00    +0.000 A 
BRANCH   2   8
ATOM      8  O   UNL     1       6.667   4.606  14.492  0.00  0.00    +0.000 OA
BRANCH   8   9
ATOM      9  C   UNL     1       5.585   3.939  13.838  0.00  0.00    +0.000 C 
BRANCH   9  11
ATOM     10  C   UNL     1       5.405   2.552  11.763  0.00  0.00    +0.000 C 
ATOM     11  C   UNL     1       6.028   3.520  12.458  0.00  0.00    +0.000 C 
ATOM     12  C   UNL     1       7.245   4.216  11.919  0.00  0.00    +0.000 C 
ENDBRANCH   9  11
ENDBRANCH   8   9
ENDBRANCH   2   8
ENDBRANCH   1   6
BRANCH   1  13
ATOM     13  N   UNL     1       3.862   5.769  19.841  0.00  0.00    +0.000 NA
ATOM     14  H   UNL     1       3.669   6.672  20.279  0.00  0.00    +0.000 HD
BRANCH  13  15
ATOM     15  C   UNL     1       2.807   4.838  20.251  0.00  0.00    +0.000 C 
BRANCH  15  16
ATOM     16  C   UNL     1       2.734   3.646  19.330  0.00  0.00    +0.000 A 
ATOM     17  C   UNL     1       1.859   3.442  18.275  0.00  0.00    +0.000 A 
ATOM     18  C   UNL     1       2.215   2.205  17.721  0.00  0.00    +0.000 A 
ATOM     19  N   UNL     1       3.238   1.645  18.362  0.00  0.00    +0.000 NA
ATOM     20  N   UNL     1       3.549   2.533  19.332  0.00  0.00    +0.000 N 
ATOM     21  C   UNL     1       4.648   2.205  20.211  0.00  0.00    +0.000 C 
ENDBRANCH  15  16
BRANCH  15  22
ATOM     22  C   UNL     1       1.408   5.465  20.456  0.00  0.00    +0.000 C 
ATOM     23  C   UNL     1       1.395   6.949  20.795  0.00  0.00    +0.000 C 
ENDBRANCH  15  22
ENDBRANCH  13  15
ENDBRANCH   1  13
TORSDOF 8
ENDMDL
MODEL 3
REMARK VINA RESULT:      -6.9      1.350      1.607
REMARK  Name = 
REMARK  11 active torsions:
REMARK  status: ('A' for Active; 'I' for Inactive)
REMARK    1  A    between atoms: C_2  and  C_3
REMARK    2  A    between atoms: C_2  and  C_4
REMARK    3  A    between atoms: C_4  and  O_5
REMARK    4  A    between atoms: O_5  and  C_6
REMARK    5  A    between atoms: C_10  and  C_11
REMARK    6  A    between atoms: C_11  and  N_12
REMARK    7  A    between atoms: N_12  and  C_13
REMARK    8  A    between atoms: C_13  and  C_14
REMARK    9  A    between atoms: C_13  and  C_16
REMARK   10  A    between atoms: C_14  and  C_15
REMARK   11  A    between atoms: N_20  and  C_21
REMARK                            x       y       z     vdW  Elec       q    Type
REMARK                         _______ _______ _______ _____ _____    ______ ____
ROOT
ATOM      1  C   UNL     1       6.372   5.268  18.725  0.00  0.00    +0.000 C 
ENDROOT
BRANCH   1   6
ATOM      2  C   UNL     1       6.024   4.335  15.041  0.00  0.00    +0.000 A 
ATOM      3  C   UNL     1       5.467   5.501  14.515  0.00  0.00    +0.000 A 
ATOM      4  C   UNL     1       5.201   6.593  15.342  0.00  0.00    +0.000 A 
ATOM      5  C   UNL     1       5.503   6.531  16.703  0.00  0.00    +0.000 A 
ATOM      6  C   UNL     1       6.076   5.373  17.247  0.00  0.00    +0.000 A 
ATOM      7  C   UNL     1       6.342   4.283  16.399  0.00  0.00    +0.000 A 
BRANCH   2   8
ATOM      8  O   UNL     1       6.248   3.323  14.143  0.00  0.00    +0.000 OA
BRANCH   8   9
ATOM      9  C   UNL     1       6.454   3.742  12.792  0.00  0.00    +0.000 C 
BRANCH   9  11
ATOM     10  C   UNL     1       6.175   1.712  11.356  0.00  0.00    +0.000 C 
ATOM     11  C   UNL     1       5.664   2.843  11.873  0.00  0.00    +0.000 C 
ATOM     12  C   UNL     1       4.280   3.313  11.524  0.00  0.00    +0.000 C 
ENDBRANCH   9  11
ENDBRANCH   8   9
ENDBRANCH   2   8
ENDBRANCH   1   6
BRANCH   1  13
ATOM     13  N   UNL     1       5.689   4.117  19.321  0.00  0.00    +0.000 NA
ATOM     14  H   UNL     1       6.228   3.841  20.143  0.00  0.00    +0.000 HD
BRANCH  13  15
ATOM     15  C   UNL     1       4.324   4.420  19.761  0.00  0.00    +0.000 C 
BRANCH  15  16
ATOM     16  C   UNL     1       3.333   3.424  19.213  0.00  0.00    +0.000 A 
ATOM     17  C   UNL     1       3.157   3.041  17.892  0.00  0.00    +0.000 A 
ATOM     18  C   UNL     1       2.140   2.077  17.910  0.00  0.00    +0.000 A 
ATOM     19  N   UNL     1       1.687   1.849  19.140  0.00  0.00    +0.000 NA
ATOM     20  N   UNL     1       2.425   2.666  19.923  0.00  0.00    +0.000 N 
ATOM     21  C   UNL     1       2.166   2.643  21.345  0.00  0.00    +0.000 C 
ENDBRANCH  15  16
BRANCH  15  22
ATOM     22  C   UNL     1       3.849   5.869  19.506  0.00  0.00    +0.000 C 
ATOM     23  C   UNL     1       2.403   6.163  19.885  0.00  0.00    +0.000 C 
ENDBRANCH  15  22
ENDBRANCH  13  15
ENDBRANCH   1  13
TORSDOF 8
ENDMDL
MODEL 4
REMARK VINA RESULT:      -6.9      1.597      2.232
REMARK  Name = 
REMARK  11 active torsions:
REMARK  status: ('A' for Active; 'I' for Inactive)
REMARK    1  A    between atoms: C_2  and  C_3
REMARK    2  A    between atoms: C_2  and  C_4
REMARK    3  A    between atoms: C_4  and  O_5
REMARK    4  A    between atoms: O_5  and  C_6
REMARK    5  A    between atoms: C_10  and  C_11
REMARK    6  A    between atoms: C_11  and  N_12
REMARK    7  A    between atoms: N_12  and  C_13
REMARK    8  A    between atoms: C_13  and  C_14
REMARK    9  A    between atoms: C_13  and  C_16
REMARK   10  A    between atoms: C_14  and  C_15
REMARK   11  A    between atoms: N_20  and  C_21
REMARK                            x       y       z     vdW  Elec       q    Type
REMARK                         _______ _______ _______ _____ _____    ______ ____
ROOT
ATOM      1  C   UNL     1       5.677   4.836  19.259  0.00  0.00    +0.000 C 
ENDROOT
BRANCH   1   6
ATOM      2  C   UNL     1       5.862   4.411  15.470  0.00  0.00    +0.000 A 
ATOM      3  C   UNL     1       5.396   5.650  15.033  0.00  0.00    +0.000 A 
ATOM      4  C   UNL     1       5.020   6.630  15.954  0.00  0.00    +0.000 A 
ATOM      5  C   UNL     1       5.121   6.379  17.323  0.00  0.00    +0.000 A 
ATOM      6  C   UNL     1       5.600   5.145  17.781  0.00  0.00    +0.000 A 
ATOM      7  C   UNL     1       5.978   4.170  16.841  0.00  0.00    +0.000 A 
BRANCH   2   8
ATOM      8  O   UNL     1       6.206   3.521  14.486  0.00  0.00    +0.000 OA
BRANCH   8   9
ATOM      9  C   UNL     1       6.366   4.087  13.182  0.00  0.00    +0.000 C 
BRANCH   9  11
ATOM     10  C   UNL     1       6.518   2.101  11.668  0.00  0.00    +0.000 C 
ATOM     11  C   UNL     1       5.805   3.130  12.159  0.00  0.00    +0.000 C 
ATOM     12  C   UNL     1       4.412   3.423  11.678  0.00  0.00    +0.000 C 
ENDBRANCH   9  11
ENDBRANCH   8   9
ENDBRANCH   2   8
ENDBRANCH   1   6
BRANCH   1  13
ATOM     13  N   UNL     1       4.456   5.256  19.951  0.00  0.00    +0.000 NA
ATOM     14  H   UNL     1       4.008   5.965  19.367  0.00  0.00    +0.000 HD
BRANCH  13  15
ATOM     15  C   UNL     1       3.497   4.164  20.144  0.00  0.00    +0.000 C 
BRANCH  15  16
ATOM     16  C   UNL     1       2.720   3.882  18.883  0.00  0.00    +0.000 A 
ATOM     17  C   UNL     1       1.799   4.703  18.252  0.00  0.00    +0.000 A 
ATOM     18  C   UNL     1       1.384   4.001  17.113  0.00  0.00    +0.000 A 
ATOM     19  N   UNL     1       1.982   2.817  17.007  0.00  0.00    +0.000 NA
ATOM     20  N   UNL     1       2.798   2.759  18.084  0.00  0.00    +0.000 N 
ATOM     21  C   UNL     1       3.603   1.572  18.250  0.00  0.00    +0.000 C 
ENDBRANCH  15  16
BRANCH  15  22
ATOM     22  C   UNL     1       2.548   4.318  21.355  0.00  0.00    +0.000 C 
ATOM     23  C   UNL     1       1.675   3.110  21.664  0.00  0.00    +0.000 C 
ENDBRANCH  15  22
ENDBRANCH  13  15
ENDBRANCH   1  13
TORSDOF 8
ENDMDL
MODEL 5
REMARK VINA RESULT:      -6.9      1.519      2.062
REMARK  Name = 
REMARK  11 active torsions:
REMARK  status: ('A' for Active; 'I' for Inactive)
REMARK    1  A    between atoms: C_2  and  C_3
REMARK    2  A    between atoms: C_2  and  C_4
REMARK    3  A    between atoms: C_4  and  O_5
REMARK    4  A    between atoms: O_5  and  C_6
REMARK    5  A    between atoms: C_10  and  C_11
REMARK    6  A    between atoms: C_11  and  N_12
REMARK    7  A    between atoms: N_12  and  C_13
REMARK    8  A    between atoms: C_13  and  C_14
REMARK    9  A    between atoms: C_13  and  C_16
REMARK   10  A    between atoms: C_14  and  C_15
REMARK   11  A    between atoms: N_20  and  C_21
REMARK                            x       y       z     vdW  Elec       q    Type
REMARK                         _______ _______ _______ _____ _____    ______ ____
ROOT
ATOM      1  C   UNL     1       4.351   6.603  18.617  0.00  0.00    +0.000 C 
ENDROOT
BRANCH   1   6
ATOM      2  C   UNL     1       5.714   4.809  15.537  0.00  0.00    +0.000 A 
ATOM      3  C   UNL     1       6.930   4.324  16.018  0.00  0.00    +0.000 A 
ATOM      4  C   UNL     1       7.317   4.571  17.337  0.00  0.00    +0.000 A 
ATOM      5  C   UNL     1       6.482   5.296  18.188  0.00  0.00    +0.000 A 
ATOM      6  C   UNL     1       5.251   5.779  17.726  0.00  0.00    +0.000 A 
ATOM      7  C   UNL     1       4.873   5.518  16.397  0.00  0.00    +0.000 A 
BRANCH   2   8
ATOM      8  O   UNL     1       5.427   4.509  14.230  0.00  0.00    +0.000 OA
BRANCH   8   9
ATOM      9  C   UNL     1       6.436   3.767  13.540  0.00  0.00    +0.000 C 
BRANCH   9  11
ATOM     10  C   UNL     1       4.587   3.464  11.882  0.00  0.00    +0.000 C 
ATOM     11  C   UNL     1       5.864   3.246  12.245  0.00  0.00    +0.000 C 
ATOM     12  C   UNL     1       6.793   2.422  11.400  0.00  0.00    +0.000 C 
ENDBRANCH   9  11
ENDBRANCH   8   9
ENDBRANCH   2   8
ENDBRANCH   1   6
BRANCH   1  13
ATOM     13  N   UNL     1       3.018   6.003  18.724  0.00  0.00    +0.000 NA
ATOM     14  H   UNL     1       2.764   5.670  17.792  0.00  0.00    +0.000 HD
BRANCH  13  15
ATOM     15  C   UNL     1       2.973   4.857  19.636  0.00  0.00    +0.000 C 
BRANCH  15  16
ATOM     16  C   UNL     1       2.988   3.550  18.884  0.00  0.00    +0.000 A 
ATOM     17  C   UNL     1       2.276   3.221  17.741  0.00  0.00    +0.000 A 
ATOM     18  C   UNL     1       2.657   1.911  17.422  0.00  0.00    +0.000 A 
ATOM     19  N   UNL     1       3.545   1.422  18.285  0.00  0.00    +0.000 NA
ATOM     20  N   UNL     1       3.744   2.430  19.163  0.00  0.00    +0.000 N 
ATOM     21  C   UNL     1       4.680   2.203  20.240  0.00  0.00    +0.000 C 
ENDBRANCH  15  16
BRANCH  15  22
ATOM     22  C   UNL     1       1.830   4.881  20.678  0.00  0.00    +0.000 C 
ATOM     23  C   UNL     1       1.523   3.548  21.347  0.00  0.00    +0.000 C 
ENDBRANCH  15  22
ENDBRANCH  13  15
ENDBRANCH   1  13
TORSDOF 8
ENDMDL
MODEL 6
REMARK VINA RESULT:      -6.9      1.070      1.486
REMARK  Name = 
REMARK  11 active torsions:
REMARK  status: ('A' for Active; 'I' for Inactive)
REMARK    1  A    between atoms: C_2  and  C_3
REMARK    2  A    between atoms: C_2  and  C_4
REMARK    3  A    between atoms: C_4  and  O_5
REMARK    4  A    between atoms: O_5  and  C_6
REMARK    5  A    between atoms: C_10  and  C_11
REMARK    6  A    between atoms: C_11  and  N_12
REMARK    7  A    between atoms: N_12  and  C_13
REMARK    8  A    between atoms: C_13  and  C_14
REMARK    9  A    between atoms: C_13  and  C_16
REMARK   10  A    between atoms: C_14  and  C_15
REMARK   11  A    between atoms: N_20  and  C_21
REMARK                            x       y       z     vdW  Elec       q    Type
REMARK                         _______ _______ _______ _____ _____    ______ ____
ROOT
ATOM      1  C   UNL     1       5.003   4.279  19.164  0.00  0.00    +0.000 C 
ENDROOT
BRANCH   1   6
ATOM      2  C   UNL     1       6.747   5.260  15.914  0.00  0.00    +0.000 A 
ATOM      3  C   UNL     1       7.540   6.326  16.340  0.00  0.00    +0.000 A 
ATOM      4  C   UNL     1       7.519   6.733  17.675  0.00  0.00    +0.000 A 
ATOM      5  C   UNL     1       6.711   6.068  18.598  0.00  0.00    +0.000 A 
ATOM      6  C   UNL     1       5.918   4.987  18.191  0.00  0.00    +0.000 A 
ATOM      7  C   UNL     1       5.954   4.585  16.844  0.00  0.00    +0.000 A 
BRANCH   2   8
ATOM      8  O   UNL     1       6.844   4.938  14.585  0.00  0.00    +0.000 OA
BRANCH   8   9
ATOM      9  C   UNL     1       5.960   3.904  14.142  0.00  0.00    +0.000 C 
BRANCH   9  11
ATOM     10  C   UNL     1       5.446   2.789  11.963  0.00  0.00    +0.000 C 
ATOM     11  C   UNL     1       6.179   3.668  12.669  0.00  0.00    +0.000 C 
ATOM     12  C   UNL     1       7.304   4.439  12.039  0.00  0.00    +0.000 C 
ENDBRANCH   9  11
ENDBRANCH   8   9
ENDBRANCH   2   8
ENDBRANCH   1   6
BRANCH   1  13
ATOM     13  N   UNL     1       4.284   5.238  20.007  0.00  0.00    +0.000 NA
ATOM     14  H   UNL     1       4.819   6.108  19.995  0.00  0.00    +0.000 HD
BRANCH  13  15
ATOM     15  C   UNL     1       2.934   5.535  19.521  0.00  0.00    +0.000 C 
BRANCH  15  16
ATOM     16  C   UNL     1       2.119   4.277  19.352  0.00  0.00    +0.000 A 
ATOM     17  C   UNL     1       1.580   3.766  18.182  0.00  0.00    +0.000 A 
ATOM     18  C   UNL     1       0.941   2.574  18.548  0.00  0.00    +0.000 A 
ATOM     19  N   UNL     1       1.051   2.326  19.851  0.00  0.00    +0.000 NA
ATOM     20  N   UNL     1       1.775   3.363  20.327  0.00  0.00    +0.000 N 
ATOM     21  C   UNL     1       2.073   3.377  21.740  0.00  0.00    +0.000 C 
ENDBRANCH  15  16
BRANCH  15  22
ATOM     22  C   UNL     1       2.862   6.414  18.251  0.00  0.00    +0.000 C 
ATOM     23  C   UNL     1       2.286   7.809  18.448  0.00  0.00    +0.000 C 
ENDBRANCH  15  22
ENDBRANCH  13  15
ENDBRANCH   1  13
TORSDOF 8
ENDMDL
MODEL 7
REMARK VINA RESULT:      -6.8      1.224      1.575
REMARK  Name = 
REMARK  11 active torsions:
REMARK  status: ('A' for Active; 'I' for Inactive)
REMARK    1  A    between atoms: C_2  and  C_3
REMARK    2  A    between atoms: C_2  and  C_4
REMARK    3  A    between atoms: C_4  and  O_5
REMARK    4  A    between atoms: O_5  and  C_6
REMARK    5  A    between atoms: C_10  and  C_11
REMARK    6  A    between atoms: C_11  and  N_12
REMARK    7  A    between atoms: N_12  and  C_13
REMARK    8  A    between atoms: C_13  and  C_14
REMARK    9  A    between atoms: C_13  and  C_16
REMARK   10  A    between atoms: C_14  and  C_15
REMARK   11  A    between atoms: N_20  and  C_21
REMARK                            x       y       z     vdW  Elec       q    Type
REMARK                         _______ _______ _______ _____ _____    ______ ____
ROOT
ATOM      1  C   UNL     1       3.926   7.053  17.451  0.00  0.00    +0.000 C 
ENDROOT
BRANCH   1   6
ATOM      2  C   UNL     1       6.101   4.461  15.685  0.00  0.00    +0.000 A 
ATOM      3  C   UNL     1       7.247   4.479  16.480  0.00  0.00    +0.000 A 
ATOM      4  C   UNL     1       7.326   5.324  17.589  0.00  0.00    +0.000 A 
ATOM      5  C   UNL     1       6.251   6.150  17.917  0.00  0.00    +0.000 A 
ATOM      6  C   UNL     1       5.086   6.136  17.139  0.00  0.00    +0.000 A 
ATOM      7  C   UNL     1       5.020   5.276  16.028  0.00  0.00    +0.000 A 
BRANCH   2   8
ATOM      8  O   UNL     1       6.124   3.595  14.623  0.00  0.00    +0.000 OA
BRANCH   8   9
ATOM      9  C   UNL     1       6.516   4.173  13.374  0.00  0.00    +0.000 C 
BRANCH   9  11
ATOM     10  C   UNL     1       6.845   2.449  11.591  0.00  0.00    +0.000 C 
ATOM     11  C   UNL     1       6.029   3.290  12.251  0.00  0.00    +0.000 C 
ATOM     12  C   UNL     1       4.583   3.442  11.875  0.00  0.00    +0.000 C 
ENDBRANCH   9  11
ENDBRANCH   8   9
ENDBRANCH   2   8
ENDBRANCH   1   6
BRANCH   1  13
ATOM     13  N   UNL     1       2.800   6.308  18.020  0.00  0.00    +0.000 NA
ATOM     14  H   UNL     1       2.830   5.368  17.620  0.00  0.00    +0.000 HD
BRANCH  13  15
ATOM     15  C   UNL     1       2.873   6.176  19.478  0.00  0.00    +0.000 C 
BRANCH  15  16
ATOM     16  C   UNL     1       2.372   4.829  19.936  0.00  0.00    +0.000 A 
ATOM     17  C   UNL     1       1.129   4.521  20.465  0.00  0.00    +0.000 A 
ATOM     18  C   UNL     1       1.150   3.141  20.703  0.00  0.00    +0.000 A 
ATOM     19  N   UNL     1       2.311   2.590  20.360  0.00  0.00    +0.000 NA
ATOM     20  N   UNL     1       3.043   3.624  19.888  0.00  0.00    +0.000 N 
ATOM     21  C   UNL     1       4.380   3.339  19.422  0.00  0.00    +0.000 C 
ENDBRANCH  15  16
BRANCH  15  22
ATOM     22  C   UNL     1       2.208   7.316  20.284  0.00  0.00    +0.000 C 
ATOM     23  C   UNL     1       1.449   8.348  19.460  0.00  0.00    +0.000 C 
ENDBRANCH  15  22
ENDBRANCH  13  15
ENDBRANCH   1  13
TORSDOF 8
ENDMDL
MODEL 8
REMARK VINA RESULT:      -6.7      1.426      1.998
REMARK  Name = 
REMARK  11 active torsions:
REMARK  status: ('A' for Active; 'I' for Inactive)
REMARK    1  A    between atoms: C_2  and  C_3
REMARK    2  A    between atoms: C_2  and  C_4
REMARK    3  A    between atoms: C_4  and  O_5
REMARK    4  A    between atoms: O_5  and  C_6
REMARK    5  A    between atoms: C_10  and  C_11
REMARK    6  A    between atoms: C_11  and  N_12
REMARK    7  A    between atoms: N_12  and  C_13
REMARK    8  A    between atoms: C_13  and  C_14
REMARK    9  A    between atoms: C_13  and  C_16
REMARK   10  A    between atoms: C_14  and  C_15
REMARK   11  A    between atoms: N_20  and  C_21
REMARK                            x       y       z     vdW  Elec       q    Type
REMARK                         _______ _______ _______ _____ _____    ______ ____
ROOT
ATOM      1  C   UNL     1       3.997   6.959  17.696  0.00  0.00    +0.000 C 
ENDROOT
BRANCH   1   6
ATOM      2  C   UNL     1       6.339   4.792  15.602  0.00  0.00    +0.000 A 
ATOM      3  C   UNL     1       7.446   4.694  16.444  0.00  0.00    +0.000 A 
ATOM      4  C   UNL     1       7.446   5.323  17.690  0.00  0.00    +0.000 A 
ATOM      5  C   UNL     1       6.328   6.047  18.108  0.00  0.00    +0.000 A 
ATOM      6  C   UNL     1       5.201   6.145  17.282  0.00  0.00    +0.000 A 
ATOM      7  C   UNL     1       5.215   5.502  16.031  0.00  0.00    +0.000 A 
BRANCH   2   8
ATOM      8  O   UNL     1       6.440   4.135  14.403  0.00  0.00    +0.000 OA
BRANCH   8   9
ATOM      9  C   UNL     1       5.198   3.874  13.744  0.00  0.00    +0.000 C 
BRANCH   9  11
ATOM     10  C   UNL     1       4.494   3.156  11.454  0.00  0.00    +0.000 C 
ATOM     11  C   UNL     1       5.472   3.508  12.306  0.00  0.00    +0.000 C 
ATOM     12  C   UNL     1       6.915   3.511  11.891  0.00  0.00    +0.000 C 
ENDBRANCH   9  11
ENDBRANCH   8   9
ENDBRANCH   2   8
ENDBRANCH   1   6
BRANCH   1  13
ATOM     13  N   UNL     1       2.877   6.093  18.075  0.00  0.00    +0.000 NA
ATOM     14  H   UNL     1       2.834   5.341  17.385  0.00  0.00    +0.000 HD
BRANCH  13  15
ATOM     15  C   UNL     1       3.042   5.482  19.396  0.00  0.00    +0.000 C 
BRANCH  15  16
ATOM     16  C   UNL     1       3.277   3.996  19.292  0.00  0.00    +0.000 A 
ATOM     17  C   UNL     1       4.434   3.296  19.598  0.00  0.00    +0.000 A 
ATOM     18  C   UNL     1       4.135   1.948  19.360  0.00  0.00    +0.000 A 
ATOM     19  N   UNL     1       2.886   1.779  18.932  0.00  0.00    +0.000 NA
ATOM     20  N   UNL     1       2.373   3.029  18.902  0.00  0.00    +0.000 N 
ATOM     21  C   UNL     1       1.001   3.178  18.475  0.00  0.00    +0.000 C 
ENDBRANCH  15  16
BRANCH  15  22
ATOM     22  C   UNL     1       1.924   5.793  20.418  0.00  0.00    +0.000 C 
ATOM     23  C   UNL     1       1.658   7.271  20.672  0.00  0.00    +0.000 C 
ENDBRANCH  15  22
ENDBRANCH  13  15
ENDBRANCH   1  13
TORSDOF 8
ENDMDL
MODEL 9
REMARK VINA RESULT:      -6.7      0.983      1.136
REMARK  Name = 
REMARK  11 active torsions:
REMARK  status: ('A' for Active; 'I' for Inactive)
REMARK    1  A    between atoms: C_2  and  C_3
REMARK    2  A    between atoms: C_2  and  C_4
REMARK    3  A    between atoms: C_4  and  O_5
REMARK    4  A    between atoms: O_5  and  C_6
REMARK    5  A    between atoms: C_10  and  C_11
REMARK    6  A    between atoms: C_11  and  N_12
REMARK    7  A    between atoms: N_12  and  C_13
REMARK    8  A    between atoms: C_13  and  C_14
REMARK    9  A    between atoms: C_13  and  C_16
REMARK   10  A    between atoms: C_14  and  C_15
REMARK   11  A    between atoms: N_20  and  C_21
REMARK                            x       y       z     vdW  Elec       q    Type
REMARK                         _______ _______ _______ _____ _____    ______ ____
ROOT
ATOM      1  C   UNL     1       4.343   6.224  18.138  0.00  0.00    +0.000 C 
ENDROOT
BRANCH   1   6
ATOM      2  C   UNL     1       5.604   4.557  14.945  0.00  0.00    +0.000 A 
ATOM      3  C   UNL     1       6.896   4.189  15.321  0.00  0.00    +0.000 A 
ATOM      4  C   UNL     1       7.368   4.474  16.603  0.00  0.00    +0.000 A 
ATOM      5  C   UNL     1       6.543   5.121  17.525  0.00  0.00    +0.000 A 
ATOM      6  C   UNL     1       5.238   5.485  17.170  0.00  0.00    +0.000 A 
ATOM      7  C   UNL     1       4.775   5.187  15.876  0.00  0.00    +0.000 A 
BRANCH   2   8
ATOM      8  O   UNL     1       5.238   4.228  13.665  0.00  0.00    +0.000 OA
BRANCH   8   9
ATOM      9  C   UNL     1       6.237   3.547  12.902  0.00  0.00    +0.000 C 
BRANCH   9  11
ATOM     10  C   UNL     1       6.124   1.617  11.314  0.00  0.00    +0.000 C 
ATOM     11  C   UNL     1       5.562   2.722  11.834  0.00  0.00    +0.000 C 
ATOM     12  C   UNL     1       4.239   3.238  11.343  0.00  0.00    +0.000 C 
ENDBRANCH   9  11
ENDBRANCH   8   9
ENDBRANCH   2   8
ENDBRANCH   1   6
BRANCH   1  13
ATOM     13  N   UNL     1       4.355   5.590  19.459  0.00  0.00    +0.000 NA
ATOM     14  H   UNL     1       4.979   6.141  20.050  0.00  0.00    +0.000 HD
BRANCH  13  15
ATOM     15  C   UNL     1       3.037   5.566  20.099  0.00  0.00    +0.000 C 
BRANCH  15  16
ATOM     16  C   UNL     1       2.344   4.244  19.888  0.00  0.00    +0.000 A 
ATOM     17  C   UNL     1       0.983   4.008  19.765  0.00  0.00    +0.000 A 
ATOM     18  C   UNL     1       0.855   2.629  19.556  0.00  0.00    +0.000 A 
ATOM     19  N   UNL     1       2.034   2.011  19.545  0.00  0.00    +0.000 NA
ATOM     20  N   UNL     1       2.931   3.003  19.740  0.00  0.00    +0.000 N 
ATOM     21  C   UNL     1       4.329   2.643  19.773  0.00  0.00    +0.000 C 
ENDBRANCH  15  16
BRANCH  15  22
ATOM     22  C   UNL     1       2.100   6.743  19.740  0.00  0.00    +0.000 C 
ATOM     23  C   UNL     1       1.520   7.507  20.923  0.00  0.00    +0.000 C 
ENDBRANCH  15  22
ENDBRANCH  13  15
ENDBRANCH   1  13
TORSDOF 8
ENDMDL
