MODEL 1
REMARK VINA RESULT:      -9.5      0.000      0.000
REMARK  Name = 
REMARK  12 active torsions:
REMARK  status: ('A' for Active; 'I' for Inactive)
REMARK    1  A    between atoms: C_1  and  C_2
REMARK    2  A    between atoms: C_3  and  N_4
REMARK    3  A    between atoms: N_4  and  C_5
REMARK    4  A    between atoms: N_4  and  S_6
REMARK    5  A    between atoms: S_6  and  C_9
REMARK    6  A    between atoms: C_12  and  C_13
REMARK    7  A    between atoms: C_17  and  C_18
REMARK    8  A    between atoms: C_27  and  C_28
REMARK    9  A    between atoms: C_28  and  C_29
REMARK   10  A    between atoms: C_29  and  C_30
REMARK   11  A    between atoms: C_29  and  C_31
REMARK   12  A    between atoms: N_33  and  C_34
REMARK                            x       y       z     vdW  Elec       q    Type
REMARK                         _______ _______ _______ _____ _____    ______ ____
ROOT
ATOM      1  C   UNL     1       0.908  10.191  20.013  0.00  0.00    +0.000 A 
ATOM      2  C   UNL     1       1.102   8.999  20.705  0.00  0.00    +0.000 A 
ATOM      3  C   UNL     1       1.769   7.929  20.099  0.00  0.00    +0.000 A 
ATOM      4  C   UNL     1       2.179   7.992  18.757  0.00  0.00    +0.000 A 
ATOM      5  C   UNL     1       1.899   9.187  18.059  0.00  0.00    +0.000 A 
ATOM      6  C   UNL     1       1.297  10.289  18.679  0.00  0.00    +0.000 A 
ENDROOT
BRANCH   4   7
ATOM      7  C   UNL     1       2.886   6.860  18.108  0.00  0.00    +0.000 A 
ATOM      8  C   UNL     1       4.061   7.031  17.359  0.00  0.00    +0.000 A 
ATOM      9  C   UNL     1       4.700   5.947  16.756  0.00  0.00    +0.000 A 
ATOM     10  C   UNL     1       4.183   4.660  16.896  0.00  0.00    +0.000 A 
ATOM     11  C   UNL     1       3.005   4.434  17.614  0.00  0.00    +0.000 A 
ATOM     12  C   UNL     1       2.387   5.547  18.214  0.00  0.00    +0.000 A 
BRANCH  11  13
ATOM     13  C   UNL     1       2.391   3.054  17.838  0.00  0.00    +0.000 C 
ATOM     14  C   UNL     1       1.019   3.033  18.534  0.00  0.00    +0.000 C 
ATOM     15  C   UNL     1       1.130   3.314  20.034  0.00  0.00    +0.000 C 
ATOM     16  N   UNL     1       2.050   2.404  20.713  0.00  0.00    +0.000 NA
ATOM     17  C   UNL     1       3.377   2.403  20.094  0.00  0.00    +0.000 C 
ATOM     18  C   UNL     1       3.320   2.086  18.600  0.00  0.00    +0.000 C 
ATOM     19  H   UNL     1       1.668   1.460  20.681  0.00  0.00    +0.000 HD
ENDBRANCH  11  13
ENDBRANCH   4   7
BRANCH   1  20
ATOM     20  S   UNL     1       0.105  11.556  20.840  0.00  0.00    +0.000 S 
ATOM     21  O   UNL     1       1.161  12.386  21.370  0.00  0.00    +0.000 OA
ATOM     22  O   UNL     1      -0.907  10.999  21.708  0.00  0.00    +0.000 OA
BRANCH  20  23
ATOM     23  N   UNL     1      -0.684  12.353  19.555  0.00  0.00    +0.000 N 
ATOM     24  C   UNL     1       0.144  13.208  18.691  0.00  0.00    +0.000 C 
BRANCH  23  27
ATOM     25  C   UNL     1      -2.015  10.461  17.252  0.00  0.00    +0.000 C 
ATOM     26  C   UNL     1      -2.597  11.330  18.304  0.00  0.00    +0.000 A 
ATOM     27  C   UNL     1      -2.046  12.140  19.283  0.00  0.00    +0.000 A 
ATOM     28  C   UNL     1      -3.174  12.675  19.982  0.00  0.00    +0.000 A 
ATOM     29  N   UNL     1      -4.328  12.265  19.440  0.00  0.00    +0.000 NA
ATOM     30  N   UNL     1      -3.956  11.467  18.432  0.00  0.00    +0.000 N 
ATOM     31  C   UNL     1      -4.971  10.823  17.632  0.00  0.00    +0.000 C 
BRANCH  28  32
ATOM     32  C   UNL     1      -3.224  13.578  21.177  0.00  0.00    +0.000 C 
BRANCH  32  33
ATOM     33  C   UNL     1      -4.191  13.114  22.292  0.00  0.00    +0.000 C 
ATOM     34  C   UNL     1      -3.456  12.570  23.521  0.00  0.00    +0.000 C 
ATOM     35  C   UNL     1      -5.097  14.275  22.713  0.00  0.00    +0.000 C 
ENDBRANCH  32  33
ENDBRANCH  28  32
ENDBRANCH  23  27
ENDBRANCH  20  23
ENDBRANCH   1  20
TORSDOF 7
ENDMDL
MODEL 2
REMARK VINA RESULT:      -9.4      1.540      3.444
REMARK  Name = 
REMARK  12 active torsions:
REMARK  status: ('A' for Active; 'I' for Inactive)
REMARK    1  A    between atoms: C_1  and  C_2
REMARK    2  A    between atoms: C_3  and  N_4
REMARK    3  A    between atoms: N_4  and  C_5
REMARK    4  A    between atoms: N_4  and  S_6
REMARK    5  A    between atoms: S_6  and  C_9
REMARK    6  A    between atoms: C_12  and  C_13
REMARK    7  A    between atoms: C_17  and  C_18
REMARK    8  A    between atoms: C_27  and  C_28
REMARK    9  A    between atoms: C_28  and  C_29
REMARK   10  A    between atoms: C_29  and  C_30
REMARK   11  A    between atoms: C_29  and  C_31
REMARK   12  A    between atoms: N_33  and  C_34
REMARK                            x       y       z     vdW  Elec       q    Type
REMARK                         _______ _______ _______ _____ _____    ______ ____
ROOT
ATOM      1  C   UNL     1      -0.455  11.018  21.855  0.00  0.00    +0.000 A 
ATOM      2  C   UNL     1       0.525  11.320  20.913  0.00  0.00    +0.000 A 
ATOM      3  C   UNL     1       1.209  10.295  20.251  0.00  0.00    +0.000 A 
ATOM      4  C   UNL     1       0.994   8.946  20.576  0.00  0.00    +0.000 A 
ATOM      5  C   UNL     1       0.048   8.676  21.589  0.00  0.00    +0.000 A 
ATOM      6  C   UNL     1      -0.692   9.692  22.207  0.00  0.00    +0.000 A 
ENDROOT
BRANCH   4   7
ATOM      7  C   UNL     1       1.717   7.854  19.877  0.00  0.00    +0.000 A 
ATOM      8  C   UNL     1       2.352   8.039  18.638  0.00  0.00    +0.000 A 
ATOM      9  C   UNL     1       3.019   6.991  18.003  0.00  0.00    +0.000 A 
ATOM     10  C   UNL     1       3.077   5.731  18.598  0.00  0.00    +0.000 A 
ATOM     11  C   UNL     1       2.446   5.487  19.821  0.00  0.00    +0.000 A 
ATOM     12  C   UNL     1       1.784   6.565  20.438  0.00  0.00    +0.000 A 
BRANCH  11  13
ATOM     13  C   UNL     1       2.486   4.146  20.551  0.00  0.00    +0.000 C 
ATOM     14  C   UNL     1       3.516   3.128  20.033  0.00  0.00    +0.000 C 
ATOM     15  C   UNL     1       3.079   2.487  18.713  0.00  0.00    +0.000 C 
ATOM     16  N   UNL     1       1.759   1.864  18.798  0.00  0.00    +0.000 NA
ATOM     17  C   UNL     1       0.740   2.803  19.272  0.00  0.00    +0.000 C 
ATOM     18  C   UNL     1       1.115   3.439  20.610  0.00  0.00    +0.000 C 
ATOM     19  H   UNL     1       1.804   1.073  19.437  0.00  0.00    +0.000 HD
ENDBRANCH  11  13
ENDBRANCH   4   7
BRANCH   1  20
ATOM     20  S   UNL     1      -1.349  12.353  22.637  0.00  0.00    +0.000 S 
ATOM     21  O   UNL     1      -0.359  13.167  23.302  0.00  0.00    +0.000 OA
ATOM     22  O   UNL     1      -2.443  11.766  23.375  0.00  0.00    +0.000 OA
BRANCH  20  23
ATOM     23  N   UNL     1      -2.002  13.192  21.303  0.00  0.00    +0.000 N 
ATOM     24  C   UNL     1      -1.230  14.332  20.788  0.00  0.00    +0.000 C 
BRANCH  23  27
ATOM     25  C   UNL     1      -5.082  13.516  22.336  0.00  0.00    +0.000 C 
ATOM     26  C   UNL     1      -4.484  12.911  21.120  0.00  0.00    +0.000 A 
ATOM     27  C   UNL     1      -3.183  12.763  20.672  0.00  0.00    +0.000 A 
ATOM     28  C   UNL     1      -3.312  12.115  19.402  0.00  0.00    +0.000 A 
ATOM     29  N   UNL     1      -4.593  11.841  19.119  0.00  0.00    +0.000 NA
ATOM     30  N   UNL     1      -5.274  12.321  20.167  0.00  0.00    +0.000 N 
ATOM     31  C   UNL     1      -6.714  12.211  20.180  0.00  0.00    +0.000 C 
BRANCH  28  32
ATOM     32  C   UNL     1      -2.260  11.733  18.407  0.00  0.00    +0.000 C 
BRANCH  32  33
ATOM     33  C   UNL     1      -2.174  10.215  18.114  0.00  0.00    +0.000 C 
ATOM     34  C   UNL     1      -3.237   9.746  17.117  0.00  0.00    +0.000 C 
ATOM     35  C   UNL     1      -0.782   9.866  17.579  0.00  0.00    +0.000 C 
ENDBRANCH  32  33
ENDBRANCH  28  32
ENDBRANCH  23  27
ENDBRANCH  20  23
ENDBRANCH   1  20
TORSDOF 7
ENDMDL
MODEL 3
REMARK VINA RESULT:      -9.4      1.643      2.784
REMARK  Name = 
REMARK  12 active torsions:
REMARK  status: ('A' for Active; 'I' for Inactive)
REMARK    1  A    between atoms: C_1  and  C_2
REMARK    2  A    between atoms: C_3  and  N_4
REMARK    3  A    between atoms: N_4  and  C_5
REMARK    4  A    between atoms: N_4  and  S_6
REMARK    5  A    between atoms: S_6  and  C_9
REMARK    6  A    between atoms: C_12  and  C_13
REMARK    7  A    between atoms: C_17  and  C_18
REMARK    8  A    between atoms: C_27  and  C_28
REMARK    9  A    between atoms: C_28  and  C_29
REMARK   10  A    between atoms: C_29  and  C_30
REMARK   11  A    between atoms: C_29  and  C_31
REMARK   12  A    between atoms: N_33  and  C_34
REMARK                            x       y       z     vdW  Elec       q    Type
REMARK                         _______ _______ _______ _____ _____    ______ ____
ROOT
ATOM      1  C   UNL     1       0.740  10.286  20.219  0.00  0.00    +0.000 A 
ATOM      2  C   UNL     1       0.959   9.117  20.941  0.00  0.00    +0.000 A 
ATOM      3  C   UNL     1       1.590   8.022  20.341  0.00  0.00    +0.000 A 
ATOM      4  C   UNL     1       1.936   8.037  18.980  0.00  0.00    +0.000 A 
ATOM      5  C   UNL     1       1.631   9.210  18.255  0.00  0.00    +0.000 A 
ATOM      6  C   UNL     1       1.065  10.337  18.866  0.00  0.00    +0.000 A 
ENDROOT
BRANCH   4   7
ATOM      7  C   UNL     1       2.605   6.878  18.337  0.00  0.00    +0.000 A 
ATOM      8  C   UNL     1       2.058   5.586  18.350  0.00  0.00    +0.000 A 
ATOM      9  C   UNL     1       2.715   4.515  17.742  0.00  0.00    +0.000 A 
ATOM     10  C   UNL     1       3.932   4.714  17.093  0.00  0.00    +0.000 A 
ATOM     11  C   UNL     1       4.532   5.977  17.065  0.00  0.00    +0.000 A 
ATOM     12  C   UNL     1       3.844   7.037  17.685  0.00  0.00    +0.000 A 
BRANCH  11  13
ATOM     13  C   UNL     1       5.848   6.283  16.353  0.00  0.00    +0.000 C 
ATOM     14  C   UNL     1       6.287   5.269  15.284  0.00  0.00    +0.000 C 
ATOM     15  C   UNL     1       6.830   3.978  15.902  0.00  0.00    +0.000 C 
ATOM     16  N   UNL     1       7.924   4.219  16.842  0.00  0.00    +0.000 NA
ATOM     17  C   UNL     1       7.545   5.168  17.890  0.00  0.00    +0.000 C 
ATOM     18  C   UNL     1       7.033   6.491  17.320  0.00  0.00    +0.000 C 
ATOM     19  H   UNL     1       8.725   4.589  16.333  0.00  0.00    +0.000 HD
ENDBRANCH  11  13
ENDBRANCH   4   7
BRANCH   1  20
ATOM     20  S   UNL     1      -0.016  11.684  21.037  0.00  0.00    +0.000 S 
ATOM     21  O   UNL     1       1.069  12.489  21.547  0.00  0.00    +0.000 OA
ATOM     22  O   UNL     1      -1.035  11.168  21.920  0.00  0.00    +0.000 OA
BRANCH  20  23
ATOM     23  N   UNL     1      -0.792  12.490  19.749  0.00  0.00    +0.000 N 
ATOM     24  C   UNL     1       0.038  13.375  18.918  0.00  0.00    +0.000 C 
BRANCH  23  27
ATOM     25  C   UNL     1      -2.039  10.550  17.438  0.00  0.00    +0.000 C 
ATOM     26  C   UNL     1      -2.659  11.425  18.462  0.00  0.00    +0.000 A 
ATOM     27  C   UNL     1      -2.144  12.255  19.444  0.00  0.00    +0.000 A 
ATOM     28  C   UNL     1      -3.296  12.786  20.106  0.00  0.00    +0.000 A 
ATOM     29  N   UNL     1      -4.431  12.354  19.539  0.00  0.00    +0.000 NA
ATOM     30  N   UNL     1      -4.022  11.547  18.553  0.00  0.00    +0.000 N 
ATOM     31  C   UNL     1      -5.009  10.880  17.735  0.00  0.00    +0.000 C 
BRANCH  28  32
ATOM     32  C   UNL     1      -3.388  13.704  21.286  0.00  0.00    +0.000 C 
BRANCH  32  33
ATOM     33  C   UNL     1      -3.709  12.998  22.626  0.00  0.00    +0.000 C 
ATOM     34  C   UNL     1      -2.876  13.538  23.791  0.00  0.00    +0.000 C 
ATOM     35  C   UNL     1      -5.198  13.148  22.950  0.00  0.00    +0.000 C 
ENDBRANCH  32  33
ENDBRANCH  28  32
ENDBRANCH  23  27
ENDBRANCH  20  23
ENDBRANCH   1  20
TORSDOF 7
ENDMDL
MODEL 4
REMARK VINA RESULT:      -9.3      1.864      2.864
REMARK  Name = 
REMARK  12 active torsions:
REMARK  status: ('A' for Active; 'I' for Inactive)
REMARK    1  A    between atoms: C_1  and  C_2
REMARK    2  A    between atoms: C_3  and  N_4
REMARK    3  A    between atoms: N_4  and  C_5
REMARK    4  A    between atoms: N_4  and  S_6
REMARK    5  A    between atoms: S_6  and  C_9
REMARK    6  A    between atoms: C_12  and  C_13
REMARK    7  A    between atoms: C_17  and  C_18
REMARK    8  A    between atoms: C_27  and  C_28
REMARK    9  A    between atoms: C_28  and  C_29
REMARK   10  A    between atoms: C_29  and  C_30
REMARK   11  A    between atoms: C_29  and  C_31
REMARK   12  A    between atoms: N_33  and  C_34
REMARK                            x       y       z     vdW  Elec       q    Type
REMARK                         _______ _______ _______ _____ _____    ______ ____
ROOT
ATOM      1  C   UNL     1       1.085   9.660  20.159  0.00  0.00    +0.000 A 
ATOM      2  C   UNL     1       1.220   8.524  20.952  0.00  0.00    +0.000 A 
ATOM      3  C   UNL     1       1.784   7.357  20.427  0.00  0.00    +0.000 A 
ATOM      4  C   UNL     1       2.145   7.268  19.073  0.00  0.00    +0.000 A 
ATOM      5  C   UNL     1       1.925   8.412  18.275  0.00  0.00    +0.000 A 
ATOM      6  C   UNL     1       1.427   9.608  18.810  0.00  0.00    +0.000 A 
ENDROOT
BRANCH   4   7
ATOM      7  C   UNL     1       2.744   6.031  18.509  0.00  0.00    +0.000 A 
ATOM      8  C   UNL     1       1.971   5.012  17.930  0.00  0.00    +0.000 A 
ATOM      9  C   UNL     1       2.563   3.858  17.415  0.00  0.00    +0.000 A 
ATOM     10  C   UNL     1       3.948   3.701  17.455  0.00  0.00    +0.000 A 
ATOM     11  C   UNL     1       4.763   4.675  18.037  0.00  0.00    +0.000 A 
ATOM     12  C   UNL     1       4.137   5.829  18.546  0.00  0.00    +0.000 A 
BRANCH  11  13
ATOM     13  C   UNL     1       6.287   4.591  18.096  0.00  0.00    +0.000 C 
ATOM     14  C   UNL     1       7.009   5.834  18.643  0.00  0.00    +0.000 C 
ATOM     15  C   UNL     1       7.032   6.981  17.629  0.00  0.00    +0.000 C 
ATOM     16  N   UNL     1       7.613   6.588  16.345  0.00  0.00    +0.000 NA
ATOM     17  C   UNL     1       6.945   5.416  15.777  0.00  0.00    +0.000 C 
ATOM     18  C   UNL     1       6.934   4.230  16.741  0.00  0.00    +0.000 C 
ATOM     19  H   UNL     1       8.600   6.376  16.479  0.00  0.00    +0.000 HD
ENDBRANCH  11  13
ENDBRANCH   4   7
BRANCH   1  20
ATOM     20  S   UNL     1       0.414  11.150  20.881  0.00  0.00    +0.000 S 
ATOM     21  O   UNL     1       1.542  11.901  21.380  0.00  0.00    +0.000 OA
ATOM     22  O   UNL     1      -0.662  10.757  21.760  0.00  0.00    +0.000 OA
BRANCH  20  23
ATOM     23  N   UNL     1      -0.269  11.939  19.531  0.00  0.00    +0.000 N 
ATOM     24  C   UNL     1       0.656  12.644  18.631  0.00  0.00    +0.000 C 
BRANCH  23  27
ATOM     25  C   UNL     1      -1.760  10.050  17.325  0.00  0.00    +0.000 C 
ATOM     26  C   UNL     1      -2.262  11.041  18.309  0.00  0.00    +0.000 A 
ATOM     27  C   UNL     1      -1.643  11.851  19.246  0.00  0.00    +0.000 A 
ATOM     28  C   UNL     1      -2.717  12.545  19.888  0.00  0.00    +0.000 A 
ATOM     29  N   UNL     1      -3.901  12.222  19.349  0.00  0.00    +0.000 NA
ATOM     30  N   UNL     1      -3.600  11.326  18.401  0.00  0.00    +0.000 N 
ATOM     31  C   UNL     1      -4.667  10.741  17.623  0.00  0.00    +0.000 C 
BRANCH  28  32
ATOM     32  C   UNL     1      -2.688  13.523  21.021  0.00  0.00    +0.000 C 
BRANCH  32  33
ATOM     33  C   UNL     1      -3.800  13.315  22.078  0.00  0.00    +0.000 C 
ATOM     34  C   UNL     1      -3.354  12.416  23.234  0.00  0.00    +0.000 C 
ATOM     35  C   UNL     1      -4.254  14.669  22.630  0.00  0.00    +0.000 C 
ENDBRANCH  32  33
ENDBRANCH  28  32
ENDBRANCH  23  27
ENDBRANCH  20  23
ENDBRANCH   1  20
TORSDOF 7
ENDMDL
MODEL 5
REMARK VINA RESULT:      -9.1      0.913      1.140
REMARK  Name = 
REMARK  12 active torsions:
REMARK  status: ('A' for Active; 'I' for Inactive)
REMARK    1  A    between atoms: C_1  and  C_2
REMARK    2  A    between atoms: C_3  and  N_4
REMARK    3  A    between atoms: N_4  and  C_5
REMARK    4  A    between atoms: N_4  and  S_6
REMARK    5  A    between atoms: S_6  and  C_9
REMARK    6  A    between atoms: C_12  and  C_13
REMARK    7  A    between atoms: C_17  and  C_18
REMARK    8  A    between atoms: C_27  and  C_28
REMARK    9  A    between atoms: C_28  and  C_29
REMARK   10  A    between atoms: C_29  and  C_30
REMARK   11  A    between atoms: C_29  and  C_31
REMARK   12  A    between atoms: N_33  and  C_34
REMARK                            x       y       z     vdW  Elec       q    Type
REMARK                         _______ _______ _______ _____ _____    ______ ____
ROOT
ATOM      1  C   UNL     1       1.327  10.334  19.326  0.00  0.00    +0.000 A 
ATOM      2  C   UNL     1       1.286   9.207  20.142  0.00  0.00    +0.000 A 
ATOM      3  C   UNL     1       1.850   8.001  19.712  0.00  0.00    +0.000 A 
ATOM      4  C   UNL     1       2.388   7.868  18.422  0.00  0.00    +0.000 A 
ATOM      5  C   UNL     1       2.346   9.008  17.590  0.00  0.00    +0.000 A 
ATOM      6  C   UNL     1       1.848  10.239  18.038  0.00  0.00    +0.000 A 
ENDROOT
BRANCH   4   7
ATOM      7  C   UNL     1       2.987   6.590  17.959  0.00  0.00    +0.000 A 
ATOM      8  C   UNL     1       4.159   6.540  17.188  0.00  0.00    +0.000 A 
ATOM      9  C   UNL     1       4.695   5.323  16.763  0.00  0.00    +0.000 A 
ATOM     10  C   UNL     1       4.075   4.123  17.110  0.00  0.00    +0.000 A 
ATOM     11  C   UNL     1       2.895   4.116  17.859  0.00  0.00    +0.000 A 
ATOM     12  C   UNL     1       2.382   5.359  18.275  0.00  0.00    +0.000 A 
BRANCH  11  13
ATOM     13  C   UNL     1       2.171   2.847  18.303  0.00  0.00    +0.000 C 
ATOM     14  C   UNL     1       0.866   3.056  19.089  0.00  0.00    +0.000 C 
ATOM     15  C   UNL     1       1.126   3.506  20.529  0.00  0.00    +0.000 C 
ATOM     16  N   UNL     1       2.008   2.593  21.255  0.00  0.00    +0.000 NA
ATOM     17  C   UNL     1       3.272   2.377  20.551  0.00  0.00    +0.000 C 
ATOM     18  C   UNL     1       3.063   1.886  19.118  0.00  0.00    +0.000 C 
ATOM     19  H   UNL     1       1.535   1.698  21.373  0.00  0.00    +0.000 HD
ENDBRANCH  11  13
ENDBRANCH   4   7
BRANCH   1  20
ATOM     20  S   UNL     1       0.649  11.872  19.933  0.00  0.00    +0.000 S 
ATOM     21  O   UNL     1       0.517  12.737  18.785  0.00  0.00    +0.000 OA
ATOM     22  O   UNL     1       1.439  12.270  21.075  0.00  0.00    +0.000 OA
BRANCH  20  23
ATOM     23  N   UNL     1      -0.890  11.400  20.497  0.00  0.00    +0.000 N 
ATOM     24  C   UNL     1      -0.957  10.808  21.841  0.00  0.00    +0.000 C 
BRANCH  23  27
ATOM     25  C   UNL     1      -1.771  10.066  17.650  0.00  0.00    +0.000 C 
ATOM     26  C   UNL     1      -2.417  11.063  18.539  0.00  0.00    +0.000 A 
ATOM     27  C   UNL     1      -2.053  11.640  19.745  0.00  0.00    +0.000 A 
ATOM     28  C   UNL     1      -3.147  12.502  20.074  0.00  0.00    +0.000 A 
ATOM     29  N   UNL     1      -4.085  12.492  19.117  0.00  0.00    +0.000 NA
ATOM     30  N   UNL     1      -3.621  11.629  18.206  0.00  0.00    +0.000 N 
ATOM     31  C   UNL     1      -4.410  11.357  17.028  0.00  0.00    +0.000 C 
BRANCH  28  32
ATOM     32  C   UNL     1      -3.365  13.357  21.284  0.00  0.00    +0.000 C 
BRANCH  32  33
ATOM     33  C   UNL     1      -4.262  12.716  22.370  0.00  0.00    +0.000 C 
ATOM     34  C   UNL     1      -3.599  12.703  23.750  0.00  0.00    +0.000 C 
ATOM     35  C   UNL     1      -5.596  13.465  22.453  0.00  0.00    +0.000 C 
ENDBRANCH  32  33
ENDBRANCH  28  32
ENDBRANCH  23  27
ENDBRANCH  20  23
ENDBRANCH   1  20
TORSDOF 7
ENDMDL
MODEL 6
REMARK VINA RESULT:      -9.1      1.982      3.139
REMARK  Name = 
REMARK  12 active torsions:
REMARK  status: ('A' for Active; 'I' for Inactive)
REMARK    1  A    between atoms: C_1  and  C_2
REMARK    2  A    between atoms: C_3  and  N_4
REMARK    3  A    between atoms: N_4  and  C_5
REMARK    4  A    between atoms: N_4  and  S_6
REMARK    5  A    between atoms: S_6  and  C_9
REMARK    6  A    between atoms: C_12  and  C_13
REMARK    7  A    between atoms: C_17  and  C_18
REMARK    8  A    between atoms: C_27  and  C_28
REMARK    9  A    between atoms: C_28  and  C_29
REMARK   10  A    between atoms: C_29  and  C_30
REMARK   11  A    between atoms: C_29  and  C_31
REMARK   12  A    between atoms: N_33  and  C_34
REMARK                            x       y       z     vdW  Elec       q    Type
REMARK                         _______ _______ _______ _____ _____    ______ ____
ROOT
ATOM      1  C   UNL     1       1.347   9.961  19.478  0.00  0.00    +0.000 A 
ATOM      2  C   UNL     1       1.871   9.765  18.204  0.00  0.00    +0.000 A 
ATOM      3  C   UNL     1       2.325   8.501  17.812  0.00  0.00    +0.000 A 
ATOM      4  C   UNL     1       2.349   7.424  18.713  0.00  0.00    +0.000 A 
ATOM      5  C   UNL     1       1.882   7.675  20.022  0.00  0.00    +0.000 A 
ATOM      6  C   UNL     1       1.359   8.918  20.401  0.00  0.00    +0.000 A 
ENDROOT
BRANCH   4   7
ATOM      7  C   UNL     1       2.830   6.080  18.304  0.00  0.00    +0.000 A 
ATOM      8  C   UNL     1       1.957   5.040  17.949  0.00  0.00    +0.000 A 
ATOM      9  C   UNL     1       2.440   3.785  17.574  0.00  0.00    +0.000 A 
ATOM     10  C   UNL     1       3.813   3.544  17.534  0.00  0.00    +0.000 A 
ATOM     11  C   UNL     1       4.726   4.538  17.896  0.00  0.00    +0.000 A 
ATOM     12  C   UNL     1       4.208   5.793  18.266  0.00  0.00    +0.000 A 
BRANCH  11  13
ATOM     13  C   UNL     1       6.243   4.363  17.853  0.00  0.00    +0.000 C 
ATOM     14  C   UNL     1       7.069   5.487  18.500  0.00  0.00    +0.000 C 
ATOM     15  C   UNL     1       7.110   6.746  17.631  0.00  0.00    +0.000 C 
ATOM     16  N   UNL     1       7.596   6.483  16.277  0.00  0.00    +0.000 NA
ATOM     17  C   UNL     1       6.827   5.428  15.614  0.00  0.00    +0.000 C 
ATOM     18  C   UNL     1       6.792   4.135  16.428  0.00  0.00    +0.000 C 
ATOM     19  H   UNL     1       8.574   6.201  16.325  0.00  0.00    +0.000 HD
ENDBRANCH  11  13
ENDBRANCH   4   7
BRANCH   1  20
ATOM     20  S   UNL     1       0.723  11.575  19.922  0.00  0.00    +0.000 S 
ATOM     21  O   UNL     1       0.670  12.339  18.699  0.00  0.00    +0.000 OA
ATOM     22  O   UNL     1       1.492  12.039  21.053  0.00  0.00    +0.000 OA
BRANCH  20  23
ATOM     23  N   UNL     1      -0.855  11.223  20.467  0.00  0.00    +0.000 N 
ATOM     24  C   UNL     1      -0.987  10.684  21.828  0.00  0.00    +0.000 C 
BRANCH  23  27
ATOM     25  C   UNL     1      -1.724   9.907  17.608  0.00  0.00    +0.000 C 
ATOM     26  C   UNL     1      -2.344  10.943  18.472  0.00  0.00    +0.000 A 
ATOM     27  C   UNL     1      -1.985  11.513  19.682  0.00  0.00    +0.000 A 
ATOM     28  C   UNL     1      -3.044  12.429  19.975  0.00  0.00    +0.000 A 
ATOM     29  N   UNL     1      -3.956  12.456  18.993  0.00  0.00    +0.000 NA
ATOM     30  N   UNL     1      -3.509  11.563  18.102  0.00  0.00    +0.000 N 
ATOM     31  C   UNL     1      -4.280  11.318  16.904  0.00  0.00    +0.000 C 
BRANCH  28  32
ATOM     32  C   UNL     1      -3.253  13.305  21.171  0.00  0.00    +0.000 C 
BRANCH  32  33
ATOM     33  C   UNL     1      -4.179  12.702  22.255  0.00  0.00    +0.000 C 
ATOM     34  C   UNL     1      -3.538  12.705  23.646  0.00  0.00    +0.000 C 
ATOM     35  C   UNL     1      -5.500  13.475  22.301  0.00  0.00    +0.000 C 
ENDBRANCH  32  33
ENDBRANCH  28  32
ENDBRANCH  23  27
ENDBRANCH  20  23
ENDBRANCH   1  20
TORSDOF 7
ENDMDL
MODEL 7
REMARK VINA RESULT:      -9.1      1.728      2.946
REMARK  Name = 
REMARK  12 active torsions:
REMARK  status: ('A' for Active; 'I' for Inactive)
REMARK    1  A    between atoms: C_1  and  C_2
REMARK    2  A    between atoms: C_3  and  N_4
REMARK    3  A    between atoms: N_4  and  C_5
REMARK    4  A    between atoms: N_4  and  S_6
REMARK    5  A    between atoms: S_6  and  C_9
REMARK    6  A    between atoms: C_12  and  C_13
REMARK    7  A    between atoms: C_17  and  C_18
REMARK    8  A    between atoms: C_27  and  C_28
REMARK    9  A    between atoms: C_28  and  C_29
REMARK   10  A    between atoms: C_29  and  C_30
REMARK   11  A    between atoms: C_29  and  C_31
REMARK   12  A    between atoms: N_33  and  C_34
REMARK                            x       y       z     vdW  Elec       q    Type
REMARK                         _______ _______ _______ _____ _____    ______ ____
ROOT
ATOM      1  C   UNL     1       0.775  10.366  20.219  0.00  0.00    +0.000 A 
ATOM      2  C   UNL     1       0.928   9.179  20.931  0.00  0.00    +0.000 A 
ATOM      3  C   UNL     1       1.540   8.071  20.337  0.00  0.00    +0.000 A 
ATOM      4  C   UNL     1       1.935   8.092  18.989  0.00  0.00    +0.000 A 
ATOM      5  C   UNL     1       1.698   9.285  18.272  0.00  0.00    +0.000 A 
ATOM      6  C   UNL     1       1.150  10.423  18.879  0.00  0.00    +0.000 A 
ENDROOT
BRANCH   4   7
ATOM      7  C   UNL     1       2.585   6.919  18.352  0.00  0.00    +0.000 A 
ATOM      8  C   UNL     1       2.035   5.629  18.405  0.00  0.00    +0.000 A 
ATOM      9  C   UNL     1       2.674   4.544  17.802  0.00  0.00    +0.000 A 
ATOM     10  C   UNL     1       3.876   4.727  17.119  0.00  0.00    +0.000 A 
ATOM     11  C   UNL     1       4.477   5.987  17.052  0.00  0.00    +0.000 A 
ATOM     12  C   UNL     1       3.808   7.061  17.668  0.00  0.00    +0.000 A 
BRANCH  11  13
ATOM     13  C   UNL     1       5.776   6.276  16.302  0.00  0.00    +0.000 C 
ATOM     14  C   UNL     1       6.179   5.246  15.233  0.00  0.00    +0.000 C 
ATOM     15  C   UNL     1       6.730   3.959  15.852  0.00  0.00    +0.000 C 
ATOM     16  N   UNL     1       7.850   4.204  16.760  0.00  0.00    +0.000 NA
ATOM     17  C   UNL     1       7.506   5.168  17.807  0.00  0.00    +0.000 C 
ATOM     18  C   UNL     1       6.988   6.487  17.234  0.00  0.00    +0.000 C 
ATOM     19  H   UNL     1       8.640   4.561  16.226  0.00  0.00    +0.000 HD
ENDBRANCH  11  13
ENDBRANCH   4   7
BRANCH   1  20
ATOM     20  S   UNL     1       0.042  11.778  21.031  0.00  0.00    +0.000 S 
ATOM     21  O   UNL     1       1.139  12.591  21.500  0.00  0.00    +0.000 OA
ATOM     22  O   UNL     1      -0.956  11.279  21.948  0.00  0.00    +0.000 OA
BRANCH  20  23
ATOM     23  N   UNL     1      -0.766  12.562  19.749  0.00  0.00    +0.000 N 
ATOM     24  C   UNL     1       0.042  13.436  18.886  0.00  0.00    +0.000 C 
BRANCH  23  27
ATOM     25  C   UNL     1      -2.059  10.619  17.466  0.00  0.00    +0.000 C 
ATOM     26  C   UNL     1      -2.659  11.489  18.508  0.00  0.00    +0.000 A 
ATOM     27  C   UNL     1      -2.124  12.320  19.478  0.00  0.00    +0.000 A 
ATOM     28  C   UNL     1      -3.262  12.842  20.171  0.00  0.00    +0.000 A 
ATOM     29  N   UNL     1      -4.408  12.404  19.632  0.00  0.00    +0.000 NA
ATOM     30  N   UNL     1      -4.019  11.601  18.634  0.00  0.00    +0.000 N 
ATOM     31  C   UNL     1      -5.022  10.930  17.840  0.00  0.00    +0.000 C 
BRANCH  28  32
ATOM     32  C   UNL     1      -3.330  13.756  21.355  0.00  0.00    +0.000 C 
BRANCH  32  33
ATOM     33  C   UNL     1      -3.548  15.248  21.002  0.00  0.00    +0.000 C 
ATOM     34  C   UNL     1      -4.252  16.022  22.120  0.00  0.00    +0.000 C 
ATOM     35  C   UNL     1      -2.202  15.911  20.692  0.00  0.00    +0.000 C 
ENDBRANCH  32  33
ENDBRANCH  28  32
ENDBRANCH  23  27
ENDBRANCH  20  23
ENDBRANCH   1  20
TORSDOF 7
ENDMDL
MODEL 8
REMARK VINA RESULT:      -9.1      0.691      1.102
REMARK  Name = 
REMARK  12 active torsions:
REMARK  status: ('A' for Active; 'I' for Inactive)
REMARK    1  A    between atoms: C_1  and  C_2
REMARK    2  A    between atoms: C_3  and  N_4
REMARK    3  A    between atoms: N_4  and  C_5
REMARK    4  A    between atoms: N_4  and  S_6
REMARK    5  A    between atoms: S_6  and  C_9
REMARK    6  A    between atoms: C_12  and  C_13
REMARK    7  A    between atoms: C_17  and  C_18
REMARK    8  A    between atoms: C_27  and  C_28
REMARK    9  A    between atoms: C_28  and  C_29
REMARK   10  A    between atoms: C_29  and  C_30
REMARK   11  A    between atoms: C_29  and  C_31
REMARK   12  A    between atoms: N_33  and  C_34
REMARK                            x       y       z     vdW  Elec       q    Type
REMARK                         _______ _______ _______ _____ _____    ______ ____
ROOT
ATOM      1  C   UNL     1       0.893  10.126  20.054  0.00  0.00    +0.000 A 
ATOM      2  C   UNL     1       1.133   8.948  20.756  0.00  0.00    +0.000 A 
ATOM      3  C   UNL     1       1.805   7.885  20.145  0.00  0.00    +0.000 A 
ATOM      4  C   UNL     1       2.176   7.938  18.792  0.00  0.00    +0.000 A 
ATOM      5  C   UNL     1       1.851   9.117  18.086  0.00  0.00    +0.000 A 
ATOM      6  C   UNL     1       1.242  10.214  18.709  0.00  0.00    +0.000 A 
ENDROOT
BRANCH   4   7
ATOM      7  C   UNL     1       2.890   6.812  18.137  0.00  0.00    +0.000 A 
ATOM      8  C   UNL     1       4.059   6.995  17.382  0.00  0.00    +0.000 A 
ATOM      9  C   UNL     1       4.703   5.916  16.773  0.00  0.00    +0.000 A 
ATOM     10  C   UNL     1       4.199   4.625  16.916  0.00  0.00    +0.000 A 
ATOM     11  C   UNL     1       3.027   4.389  17.641  0.00  0.00    +0.000 A 
ATOM     12  C   UNL     1       2.402   5.496  18.245  0.00  0.00    +0.000 A 
BRANCH  11  13
ATOM     13  C   UNL     1       2.426   3.003  17.867  0.00  0.00    +0.000 C 
ATOM     14  C   UNL     1       1.020   2.973  18.490  0.00  0.00    +0.000 C 
ATOM     15  C   UNL     1       1.045   3.294  19.986  0.00  0.00    +0.000 C 
ATOM     16  N   UNL     1       1.944   2.418  20.737  0.00  0.00    +0.000 NA
ATOM     17  C   UNL     1       3.302   2.427  20.189  0.00  0.00    +0.000 C 
ATOM     18  C   UNL     1       3.330   2.072  18.702  0.00  0.00    +0.000 C 
ATOM     19  H   UNL     1       1.582   1.467  20.709  0.00  0.00    +0.000 HD
ENDBRANCH  11  13
ENDBRANCH   4   7
BRANCH   1  20
ATOM     20  S   UNL     1       0.084  11.485  20.886  0.00  0.00    +0.000 S 
ATOM     21  O   UNL     1       1.135  12.304  21.440  0.00  0.00    +0.000 OA
ATOM     22  O   UNL     1      -0.942  10.922  21.733  0.00  0.00    +0.000 OA
BRANCH  20  23
ATOM     23  N   UNL     1      -0.684  12.300  19.599  0.00  0.00    +0.000 N 
ATOM     24  C   UNL     1       0.168  13.120  18.725  0.00  0.00    +0.000 C 
BRANCH  23  27
ATOM     25  C   UNL     1      -2.092  10.438  17.317  0.00  0.00    +0.000 C 
ATOM     26  C   UNL     1      -2.638  11.334  18.366  0.00  0.00    +0.000 A 
ATOM     27  C   UNL     1      -2.055  12.132  19.336  0.00  0.00    +0.000 A 
ATOM     28  C   UNL     1      -3.159  12.711  20.038  0.00  0.00    +0.000 A 
ATOM     29  N   UNL     1      -4.330  12.337  19.504  0.00  0.00    +0.000 NA
ATOM     30  N   UNL     1      -3.991  11.519  18.501  0.00  0.00    +0.000 N 
ATOM     31  C   UNL     1      -5.033  10.905  17.711  0.00  0.00    +0.000 C 
BRANCH  28  32
ATOM     32  C   UNL     1      -3.171  13.624  21.225  0.00  0.00    +0.000 C 
BRANCH  32  33
ATOM     33  C   UNL     1      -2.661  15.057  20.938  0.00  0.00    +0.000 C 
ATOM     34  C   UNL     1      -3.801  16.067  20.778  0.00  0.00    +0.000 C 
ATOM     35  C   UNL     1      -1.730  15.514  22.065  0.00  0.00    +0.000 C 
ENDBRANCH  32  33
ENDBRANCH  28  32
ENDBRANCH  23  27
ENDBRANCH  20  23
ENDBRANCH   1  20
TORSDOF 7
ENDMDL
MODEL 9
REMARK VINA RESULT:      -9.0      1.655      2.779
REMARK  Name = 
REMARK  12 active torsions:
REMARK  status: ('A' for Active; 'I' for Inactive)
REMARK    1  A    between atoms: C_1  and  C_2
REMARK    2  A    between atoms: C_3  and  N_4
REMARK    3  A    between atoms: N_4  and  C_5
REMARK    4  A    between atoms: N_4  and  S_6
REMARK    5  A    between atoms: S_6  and  C_9
REMARK    6  A    between atoms: C_12  and  C_13
REMARK    7  A    between atoms: C_17  and  C_18
REMARK    8  A    between atoms: C_27  and  C_28
REMARK    9  A    between atoms: C_28  and  C_29
REMARK   10  A    between atoms: C_29  and  C_30
REMARK   11  A    between atoms: C_29  and  C_31
REMARK   12  A    between atoms: N_33  and  C_34
REMARK                            x       y       z     vdW  Elec       q    Type
REMARK                         _______ _______ _______ _____ _____    ______ ____
ROOT
ATOM      1  C   UNL     1       0.767   9.967  20.536  0.00  0.00    +0.000 A 
ATOM      2  C   UNL     1       0.741   8.854  21.372  0.00  0.00    +0.000 A 
ATOM      3  C   UNL     1       1.342   7.656  20.973  0.00  0.00    +0.000 A 
ATOM      4  C   UNL     1       1.906   7.513  19.695  0.00  0.00    +0.000 A 
ATOM      5  C   UNL     1       1.849   8.637  18.842  0.00  0.00    +0.000 A 
ATOM      6  C   UNL     1       1.312   9.862  19.259  0.00  0.00    +0.000 A 
ENDROOT
BRANCH   4   7
ATOM      7  C   UNL     1       2.545   6.243  19.266  0.00  0.00    +0.000 A 
ATOM      8  C   UNL     1       2.444   5.057  20.010  0.00  0.00    +0.000 A 
ATOM      9  C   UNL     1       3.062   3.880  19.583  0.00  0.00    +0.000 A 
ATOM     10  C   UNL     1       3.788   3.859  18.393  0.00  0.00    +0.000 A 
ATOM     11  C   UNL     1       3.938   5.017  17.624  0.00  0.00    +0.000 A 
ATOM     12  C   UNL     1       3.300   6.186  18.079  0.00  0.00    +0.000 A 
BRANCH  11  13
ATOM     13  C   UNL     1       4.692   5.070  16.297  0.00  0.00    +0.000 C 
ATOM     14  C   UNL     1       5.904   4.132  16.174  0.00  0.00    +0.000 C 
ATOM     15  C   UNL     1       7.109   4.637  16.970  0.00  0.00    +0.000 C 
ATOM     16  N   UNL     1       7.493   6.001  16.609  0.00  0.00    +0.000 NA
ATOM     17  C   UNL     1       6.372   6.935  16.728  0.00  0.00    +0.000 C 
ATOM     18  C   UNL     1       5.157   6.492  15.914  0.00  0.00    +0.000 C 
ATOM     19  H   UNL     1       7.830   6.008  15.648  0.00  0.00    +0.000 HD
ENDBRANCH  11  13
ENDBRANCH   4   7
BRANCH   1  20
ATOM     20  S   UNL     1       0.040  11.497  21.103  0.00  0.00    +0.000 S 
ATOM     21  O   UNL     1       1.130  12.306  21.593  0.00  0.00    +0.000 OA
ATOM     22  O   UNL     1      -1.073  11.155  21.959  0.00  0.00    +0.000 OA
BRANCH  20  23
ATOM     23  N   UNL     1      -0.588  12.163  19.663  0.00  0.00    +0.000 N 
ATOM     24  C   UNL     1       0.351  12.899  18.803  0.00  0.00    +0.000 C 
BRANCH  23  27
ATOM     25  C   UNL     1      -1.733  10.092  17.415  0.00  0.00    +0.000 C 
ATOM     26  C   UNL     1      -2.394  11.063  18.321  0.00  0.00    +0.000 A 
ATOM     27  C   UNL     1      -1.922  11.949  19.275  0.00  0.00    +0.000 A 
ATOM     28  C   UNL     1      -3.099  12.566  19.806  0.00  0.00    +0.000 A 
ATOM     29  N   UNL     1      -4.204  12.128  19.188  0.00  0.00    +0.000 NA
ATOM     30  N   UNL     1      -3.755  11.235  18.299  0.00  0.00    +0.000 N 
ATOM     31  C   UNL     1      -4.703  10.539  17.460  0.00  0.00    +0.000 C 
BRANCH  28  32
ATOM     32  C   UNL     1      -3.243  13.574  20.904  0.00  0.00    +0.000 C 
BRANCH  32  33
ATOM     33  C   UNL     1      -4.060  13.083  22.124  0.00  0.00    +0.000 C 
ATOM     34  C   UNL     1      -3.344  13.335  23.454  0.00  0.00    +0.000 C 
ATOM     35  C   UNL     1      -5.429  13.768  22.144  0.00  0.00    +0.000 C 
ENDBRANCH  32  33
ENDBRANCH  28  32
ENDBRANCH  23  27
ENDBRANCH  20  23
ENDBRANCH   1  20
TORSDOF 7
ENDMDL
