MODEL 1
REMARK VINA RESULT:      -7.8      0.000      0.000
REMARK  Name = 
REMARK  7 active torsions:
REMARK  status: ('A' for Active; 'I' for Inactive)
REMARK    1  A    between atoms: C_1  and  N_2
REMARK    2  A    between atoms: N_2  and  C_3
REMARK    3  A    between atoms: N_2  and  C_4
REMARK    4  A    between atoms: C_4  and  C_5
REMARK    5  A    between atoms: C_5  and  O_6
REMARK    6  A    between atoms: O_6  and  C_7
REMARK    7  A    between atoms: C_12  and  C_13
REMARK                            x       y       z     vdW  Elec       q    Type
REMARK                         _______ _______ _______ _____ _____    ______ ____
ROOT
ATOM      1  C   UNL     1       1.875   4.809  19.231  0.00  0.00    +0.000 A 
ATOM      2  C   UNL     1       1.761   4.806  20.702  0.00  0.00    +0.000 A 
ATOM      3  C   UNL     1       1.580   3.611  21.377  0.00  0.00    +0.000 A 
ATOM      4  C   UNL     1       1.385   2.431  20.691  0.00  0.00    +0.000 A 
ATOM      5  C   UNL     1       1.670   2.394  19.295  0.00  0.00    +0.000 A 
ATOM      6  C   UNL     1       2.089   3.535  18.528  0.00  0.00    +0.000 A 
ENDROOT
BRANCH   6   7
ATOM      7  C   UNL     1       2.912   3.426  17.144  0.00  0.00    +0.000 C 
ATOM      8  C   UNL     1       4.154   3.698  16.644  0.00  0.00    +0.000 C 
ATOM      9  C   UNL     1       4.455   4.825  17.532  0.00  0.00    +0.000 C 
ATOM     10  O   UNL     1       4.810   5.978  16.711  0.00  0.00    +0.000 OA
ATOM     11  C   UNL     1       6.108   6.285  16.952  0.00  0.00    +0.000 A 
ATOM     12  C   UNL     1       6.444   7.636  17.240  0.00  0.00    +0.000 A 
ATOM     13  C   UNL     1       7.650   8.022  17.843  0.00  0.00    +0.000 A 
ATOM     14  C   UNL     1       8.227   6.944  18.440  0.00  0.00    +0.000 A 
ATOM     15  C   UNL     1       7.793   5.525  18.168  0.00  0.00    +0.000 A 
ATOM     16  C   UNL     1       6.877   5.182  17.114  0.00  0.00    +0.000 A 
ATOM     17  C   UNL     1       5.920   3.938  16.322  0.00  0.00    +0.000 C 
ATOM     18  O   UNL     1       6.275   3.490  15.228  0.00  0.00    +0.000 OA
ENDBRANCH   6   7
BRANCH   1  19
ATOM     19  O   UNL     1       1.651   6.054  18.611  0.00  0.00    +0.000 OA
BRANCH  19  20
ATOM     20  C   UNL     1       2.426   7.276  19.120  0.00  0.00    +0.000 C 
BRANCH  20  21
ATOM     21  C   UNL     1       1.997   8.627  18.300  0.00  0.00    +0.000 C 
BRANCH  21  23
ATOM     22  C   UNL     1      -0.372  10.198  18.289  0.00  0.00    +0.000 C 
ATOM     23  N   UNL     1       0.986   9.777  18.847  0.00  0.00    +0.000 NA
ATOM     24  C   UNL     1       0.589   9.660  20.287  0.00  0.00    +0.000 C 
ENDBRANCH  21  23
ENDBRANCH  20  21
ENDBRANCH  19  20
ENDBRANCH   1  19
TORSDOF 5
ENDMDL
MODEL 2
REMARK VINA RESULT:      -7.6      2.347      4.307
REMARK  Name = 
REMARK  7 active torsions:
REMARK  status: ('A' for Active; 'I' for Inactive)
REMARK    1  A    between atoms: C_1  and  N_2
REMARK    2  A    between atoms: N_2  and  C_3
REMARK    3  A    between atoms: N_2  and  C_4
REMARK    4  A    between atoms: C_4  and  C_5
REMARK    5  A    between atoms: C_5  and  O_6
REMARK    6  A    between atoms: O_6  and  C_7
REMARK    7  A    between atoms: C_12  and  C_13
REMARK                            x       y       z     vdW  Elec       q    Type
REMARK                         _______ _______ _______ _____ _____    ______ ____
ROOT
ATOM      1  C   UNL     1       1.305   8.322  20.280  0.00  0.00    +0.000 A 
ATOM      2  C   UNL     1       0.516   9.417  19.684  0.00  0.00    +0.000 A 
ATOM      3  C   UNL     1       0.811   9.865  18.407  0.00  0.00    +0.000 A 
ATOM      4  C   UNL     1       1.908   9.386  17.724  0.00  0.00    +0.000 A 
ATOM      5  C   UNL     1       2.562   8.216  18.209  0.00  0.00    +0.000 A 
ATOM      6  C   UNL     1       2.191   7.528  19.416  0.00  0.00    +0.000 A 
ENDROOT
BRANCH   6   7
ATOM      7  C   UNL     1       2.522   5.974  19.694  0.00  0.00    +0.000 C 
ATOM      8  C   UNL     1       3.473   5.038  19.397  0.00  0.00    +0.000 C 
ATOM      9  C   UNL     1       3.868   5.600  18.102  0.00  0.00    +0.000 C 
ATOM     10  O   UNL     1       3.751   4.556  17.089  0.00  0.00    +0.000 OA
ATOM     11  C   UNL     1       4.991   4.284  16.617  0.00  0.00    +0.000 A 
ATOM     12  C   UNL     1       5.188   4.246  15.209  0.00  0.00    +0.000 A 
ATOM     13  C   UNL     1       6.450   4.331  14.602  0.00  0.00    +0.000 A 
ATOM     14  C   UNL     1       7.351   4.832  15.489  0.00  0.00    +0.000 A 
ATOM     15  C   UNL     1       7.078   4.928  16.970  0.00  0.00    +0.000 A 
ATOM     16  C   UNL     1       5.933   4.318  17.589  0.00  0.00    +0.000 A 
ATOM     17  C   UNL     1       4.976   4.090  19.047  0.00  0.00    +0.000 C 
ATOM     18  O   UNL     1       5.017   3.014  19.650  0.00  0.00    +0.000 OA
ENDBRANCH   6   7
BRANCH   1  19
ATOM     19  O   UNL     1       1.216   8.208  21.681  0.00  0.00    +0.000 OA
BRANCH  19  20
ATOM     20  C   UNL     1       1.264   9.488  22.526  0.00  0.00    +0.000 C 
BRANCH  20  21
ATOM     21  C   UNL     1      -0.244   9.979  22.933  0.00  0.00    +0.000 C 
BRANCH  21  23
ATOM     22  C   UNL     1      -0.468  12.684  22.089  0.00  0.00    +0.000 C 
ATOM     23  N   UNL     1      -0.729  11.526  23.050  0.00  0.00    +0.000 NA
ATOM     24  C   UNL     1      -2.203  11.733  23.225  0.00  0.00    +0.000 C 
ENDBRANCH  21  23
ENDBRANCH  20  21
ENDBRANCH  19  20
ENDBRANCH   1  19
TORSDOF 5
ENDMDL
MODEL 3
REMARK VINA RESULT:      -7.4      0.895      1.093
REMARK  Name = 
REMARK  7 active torsions:
REMARK  status: ('A' for Active; 'I' for Inactive)
REMARK    1  A    between atoms: C_1  and  N_2
REMARK    2  A    between atoms: N_2  and  C_3
REMARK    3  A    between atoms: N_2  and  C_4
REMARK    4  A    between atoms: C_4  and  C_5
REMARK    5  A    between atoms: C_5  and  O_6
REMARK    6  A    between atoms: O_6  and  C_7
REMARK    7  A    between atoms: C_12  and  C_13
REMARK                            x       y       z     vdW  Elec       q    Type
REMARK                         _______ _______ _______ _____ _____    ______ ____
ROOT
ATOM      1  C   UNL     1       1.890   5.148  18.867  0.00  0.00    +0.000 A 
ATOM      2  C   UNL     1       1.613   5.078  20.314  0.00  0.00    +0.000 A 
ATOM      3  C   UNL     1       1.201   3.884  20.881  0.00  0.00    +0.000 A 
ATOM      4  C   UNL     1       0.930   2.784  20.096  0.00  0.00    +0.000 A 
ATOM      5  C   UNL     1       1.362   2.786  18.738  0.00  0.00    +0.000 A 
ATOM      6  C   UNL     1       2.011   3.899  18.101  0.00  0.00    +0.000 A 
ENDROOT
BRANCH   6   7
ATOM      7  C   UNL     1       2.962   3.755  16.805  0.00  0.00    +0.000 C 
ATOM      8  C   UNL     1       4.264   3.952  16.438  0.00  0.00    +0.000 C 
ATOM      9  C   UNL     1       4.544   5.044  17.374  0.00  0.00    +0.000 C 
ATOM     10  O   UNL     1       5.054   6.182  16.617  0.00  0.00    +0.000 OA
ATOM     11  C   UNL     1       6.338   6.400  16.993  0.00  0.00    +0.000 A 
ATOM     12  C   UNL     1       6.728   7.722  17.341  0.00  0.00    +0.000 A 
ATOM     13  C   UNL     1       7.889   8.019  18.070  0.00  0.00    +0.000 A 
ATOM     14  C   UNL     1       8.332   6.898  18.700  0.00  0.00    +0.000 A 
ATOM     15  C   UNL     1       7.837   5.514  18.357  0.00  0.00    +0.000 A 
ATOM     16  C   UNL     1       7.014   5.247  17.210  0.00  0.00    +0.000 A 
ATOM     17  C   UNL     1       6.065   4.079  16.301  0.00  0.00    +0.000 C 
ATOM     18  O   UNL     1       6.500   3.624  15.239  0.00  0.00    +0.000 OA
ENDBRANCH   6   7
BRANCH   1  19
ATOM     19  O   UNL     1       1.904   6.445  18.318  0.00  0.00    +0.000 OA
BRANCH  19  20
ATOM     20  C   UNL     1       2.465   7.595  19.166  0.00  0.00    +0.000 C 
BRANCH  20  21
ATOM     21  C   UNL     1       1.322   8.736  19.436  0.00  0.00    +0.000 C 
BRANCH  21  23
ATOM     22  C   UNL     1      -0.531   8.555  21.584  0.00  0.00    +0.000 C 
ATOM     23  N   UNL     1       0.705   9.122  20.890  0.00  0.00    +0.000 NA
ATOM     24  C   UNL     1       1.654   9.019  22.045  0.00  0.00    +0.000 C 
ENDBRANCH  21  23
ENDBRANCH  20  21
ENDBRANCH  19  20
ENDBRANCH   1  19
TORSDOF 5
ENDMDL
MODEL 4
REMARK VINA RESULT:      -7.3      2.996      7.228
REMARK  Name = 
REMARK  7 active torsions:
REMARK  status: ('A' for Active; 'I' for Inactive)
REMARK    1  A    between atoms: C_1  and  N_2
REMARK    2  A    between atoms: N_2  and  C_3
REMARK    3  A    between atoms: N_2  and  C_4
REMARK    4  A    between atoms: C_4  and  C_5
REMARK    5  A    between atoms: C_5  and  O_6
REMARK    6  A    between atoms: O_6  and  C_7
REMARK    7  A    between atoms: C_12  and  C_13
REMARK                            x       y       z     vdW  Elec       q    Type
REMARK                         _______ _______ _______ _____ _____    ______ ____
ROOT
ATOM      1  C   UNL     1       6.735   5.454  16.359  0.00  0.00    +0.000 A 
ATOM      2  C   UNL     1       7.623   4.352  16.776  0.00  0.00    +0.000 A 
ATOM      3  C   UNL     1       8.307   4.434  17.978  0.00  0.00    +0.000 A 
ATOM      4  C   UNL     1       8.267   5.583  18.738  0.00  0.00    +0.000 A 
ATOM      5  C   UNL     1       7.283   6.570  18.440  0.00  0.00    +0.000 A 
ATOM      6  C   UNL     1       6.360   6.481  17.343  0.00  0.00    +0.000 A 
ENDROOT
BRANCH   6   7
ATOM      7  C   UNL     1       4.946   7.258  17.300  0.00  0.00    +0.000 C 
ATOM      8  C   UNL     1       3.730   7.249  17.924  0.00  0.00    +0.000 C 
ATOM      9  C   UNL     1       3.716   5.821  18.253  0.00  0.00    +0.000 C 
ATOM     10  O   UNL     1       2.488   5.236  17.722  0.00  0.00    +0.000 OA
ATOM     11  C   UNL     1       1.732   4.819  18.766  0.00  0.00    +0.000 A 
ATOM     12  C   UNL     1       1.199   3.502  18.735  0.00  0.00    +0.000 A 
ATOM     13  C   UNL     1       0.716   2.836  19.870  0.00  0.00    +0.000 A 
ATOM     14  C   UNL     1       1.184   3.447  20.992  0.00  0.00    +0.000 A 
ATOM     15  C   UNL     1       1.816   4.817  20.977  0.00  0.00    +0.000 A 
ATOM     16  C   UNL     1       1.794   5.669  19.819  0.00  0.00    +0.000 A 
ATOM     17  C   UNL     1       2.325   7.165  19.063  0.00  0.00    +0.000 C 
ATOM     18  O   UNL     1       1.530   8.098  18.917  0.00  0.00    +0.000 OA
ENDBRANCH   6   7
BRANCH   1  19
ATOM     19  O   UNL     1       6.410   5.480  14.989  0.00  0.00    +0.000 OA
BRANCH  19  20
ATOM     20  C   UNL     1       5.417   4.441  14.451  0.00  0.00    +0.000 C 
BRANCH  20  21
ATOM     21  C   UNL     1       5.999   3.717  13.102  0.00  0.00    +0.000 C 
BRANCH  21  23
ATOM     22  C   UNL     1       4.139   3.160  11.025  0.00  0.00    +0.000 C 
ATOM     23  N   UNL     1       5.141   2.760  12.106  0.00  0.00    +0.000 NA
ATOM     24  C   UNL     1       5.942   1.787  11.294  0.00  0.00    +0.000 C 
ENDBRANCH  21  23
ENDBRANCH  20  21
ENDBRANCH  19  20
ENDBRANCH   1  19
TORSDOF 5
ENDMDL
MODEL 5
REMARK VINA RESULT:      -7.3      2.632      6.716
REMARK  Name = 
REMARK  7 active torsions:
REMARK  status: ('A' for Active; 'I' for Inactive)
REMARK    1  A    between atoms: C_1  and  N_2
REMARK    2  A    between atoms: N_2  and  C_3
REMARK    3  A    between atoms: N_2  and  C_4
REMARK    4  A    between atoms: C_4  and  C_5
REMARK    5  A    between atoms: C_5  and  O_6
REMARK    6  A    between atoms: O_6  and  C_7
REMARK    7  A    between atoms: C_12  and  C_13
REMARK                            x       y       z     vdW  Elec       q    Type
REMARK                         _______ _______ _______ _____ _____    ______ ____
ROOT
ATOM      1  C   UNL     1       6.781   6.103  16.354  0.00  0.00    +0.000 A 
ATOM      2  C   UNL     1       7.662   5.633  15.268  0.00  0.00    +0.000 A 
ATOM      3  C   UNL     1       7.222   4.647  14.401  0.00  0.00    +0.000 A 
ATOM      4  C   UNL     1       6.017   4.011  14.604  0.00  0.00    +0.000 A 
ATOM      5  C   UNL     1       5.090   4.575  15.529  0.00  0.00    +0.000 A 
ATOM      6  C   UNL     1       5.356   5.741  16.325  0.00  0.00    +0.000 A 
ENDROOT
BRANCH   6   7
ATOM      7  C   UNL     1       4.200   6.685  16.939  0.00  0.00    +0.000 C 
ATOM      8  C   UNL     1       3.376   6.755  18.027  0.00  0.00    +0.000 C 
ATOM      9  C   UNL     1       3.275   5.312  18.259  0.00  0.00    +0.000 C 
ATOM     10  O   UNL     1       1.862   4.945  18.285  0.00  0.00    +0.000 OA
ATOM     11  C   UNL     1       1.561   4.510  19.533  0.00  0.00    +0.000 A 
ATOM     12  C   UNL     1       0.862   3.280  19.672  0.00  0.00    +0.000 A 
ATOM     13  C   UNL     1       0.804   2.554  20.870  0.00  0.00    +0.000 A 
ATOM     14  C   UNL     1       1.793   2.972  21.706  0.00  0.00    +0.000 A 
ATOM     15  C   UNL     1       2.568   4.248  21.485  0.00  0.00    +0.000 A 
ATOM     16  C   UNL     1       2.196   5.221  20.495  0.00  0.00    +0.000 A 
ATOM     17  C   UNL     1       2.589   6.716  19.657  0.00  0.00    +0.000 C 
ATOM     18  O   UNL     1       1.967   7.750  19.916  0.00  0.00    +0.000 OA
ENDBRANCH   6   7
BRANCH   1  19
ATOM     19  O   UNL     1       7.428   6.784  17.404  0.00  0.00    +0.000 OA
BRANCH  19  20
ATOM     20  C   UNL     1       7.372   8.317  17.429  0.00  0.00    +0.000 C 
BRANCH  20  21
ATOM     21  C   UNL     1       8.510   8.929  18.435  0.00  0.00    +0.000 C 
BRANCH  21  23
ATOM     22  C   UNL     1       8.610  11.713  17.871  0.00  0.00    +0.000 C 
ATOM     23  N   UNL     1       9.232  10.376  18.267  0.00  0.00    +0.000 NA
ATOM     24  C   UNL     1      10.009  10.855  19.456  0.00  0.00    +0.000 C 
ENDBRANCH  21  23
ENDBRANCH  20  21
ENDBRANCH  19  20
ENDBRANCH   1  19
TORSDOF 5
ENDMDL
MODEL 6
REMARK VINA RESULT:      -7.0      1.594      5.457
REMARK  Name = 
REMARK  7 active torsions:
REMARK  status: ('A' for Active; 'I' for Inactive)
REMARK    1  A    between atoms: C_1  and  N_2
REMARK    2  A    between atoms: N_2  and  C_3
REMARK    3  A    between atoms: N_2  and  C_4
REMARK    4  A    between atoms: C_4  and  C_5
REMARK    5  A    between atoms: C_5  and  O_6
REMARK    6  A    between atoms: O_6  and  C_7
REMARK    7  A    between atoms: C_12  and  C_13
REMARK                            x       y       z     vdW  Elec       q    Type
REMARK                         _______ _______ _______ _____ _____    ______ ____
ROOT
ATOM      1  C   UNL     1       5.861   7.076  17.163  0.00  0.00    +0.000 A 
ATOM      2  C   UNL     1       6.856   8.166  17.160  0.00  0.00    +0.000 A 
ATOM      3  C   UNL     1       8.038   8.023  17.867  0.00  0.00    +0.000 A 
ATOM      4  C   UNL     1       8.252   6.926  18.674  0.00  0.00    +0.000 A 
ATOM      5  C   UNL     1       7.389   5.799  18.544  0.00  0.00    +0.000 A 
ATOM      6  C   UNL     1       6.254   5.751  17.665  0.00  0.00    +0.000 A 
ENDROOT
BRANCH   6   7
ATOM      7  C   UNL     1       5.615   4.379  17.107  0.00  0.00    +0.000 C 
ATOM      8  C   UNL     1       4.516   3.588  17.290  0.00  0.00    +0.000 C 
ATOM      9  C   UNL     1       4.298   3.918  18.701  0.00  0.00    +0.000 C 
ATOM     10  O   UNL     1       4.258   2.676  19.466  0.00  0.00    +0.000 OA
ATOM     11  C   UNL     1       3.013   2.536  19.980  0.00  0.00    +0.000 A 
ATOM     12  C   UNL     1       2.879   2.231  21.362  0.00  0.00    +0.000 A 
ATOM     13  C   UNL     1       1.688   2.408  22.082  0.00  0.00    +0.000 A 
ATOM     14  C   UNL     1       0.860   3.243  21.398  0.00  0.00    +0.000 A 
ATOM     15  C   UNL     1       1.077   3.606  19.949  0.00  0.00    +0.000 A 
ATOM     16  C   UNL     1       2.051   2.949  19.121  0.00  0.00    +0.000 A 
ATOM     17  C   UNL     1       2.875   2.873  17.570  0.00  0.00    +0.000 C 
ATOM     18  O   UNL     1       2.597   1.978  16.766  0.00  0.00    +0.000 OA
ENDBRANCH   6   7
BRANCH   1  19
ATOM     19  O   UNL     1       4.559   7.448  16.775  0.00  0.00    +0.000 OA
BRANCH  19  20
ATOM     20  C   UNL     1       3.426   7.330  17.803  0.00  0.00    +0.000 C 
BRANCH  20  21
ATOM     21  C   UNL     1       2.589   8.732  17.918  0.00  0.00    +0.000 C 
BRANCH  21  23
ATOM     22  C   UNL     1       1.078   9.209  20.278  0.00  0.00    +0.000 C 
ATOM     23  N   UNL     1       1.228   8.946  18.781  0.00  0.00    +0.000 NA
ATOM     24  C   UNL     1       0.311  10.025  18.290  0.00  0.00    +0.000 C 
ENDBRANCH  21  23
ENDBRANCH  20  21
ENDBRANCH  19  20
ENDBRANCH   1  19
TORSDOF 5
ENDMDL
MODEL 7
REMARK VINA RESULT:      -7.0      2.992      6.208
REMARK  Name = 
REMARK  7 active torsions:
REMARK  status: ('A' for Active; 'I' for Inactive)
REMARK    1  A    between atoms: C_1  and  N_2
REMARK    2  A    between atoms: N_2  and  C_3
REMARK    3  A    between atoms: N_2  and  C_4
REMARK    4  A    between atoms: C_4  and  C_5
REMARK    5  A    between atoms: C_5  and  O_6
REMARK    6  A    between atoms: O_6  and  C_7
REMARK    7  A    between atoms: C_12  and  C_13
REMARK                            x       y       z     vdW  Elec       q    Type
REMARK                         _______ _______ _______ _____ _____    ______ ____
ROOT
ATOM      1  C   UNL     1       0.626  10.742  19.471  0.00  0.00    +0.000 A 
ATOM      2  C   UNL     1      -0.755  10.807  19.986  0.00  0.00    +0.000 A 
ATOM      3  C   UNL     1      -1.806  10.364  19.200  0.00  0.00    +0.000 A 
ATOM      4  C   UNL     1      -1.598   9.972  17.895  0.00  0.00    +0.000 A 
ATOM      5  C   UNL     1      -0.264   9.736  17.453  0.00  0.00    +0.000 A 
ATOM      6  C   UNL     1       0.902   9.946  18.265  0.00  0.00    +0.000 A 
ENDROOT
BRANCH   6   7
ATOM      7  C   UNL     1       2.313   9.206  18.009  0.00  0.00    +0.000 C 
ATOM      8  C   UNL     1       2.836   7.945  17.951  0.00  0.00    +0.000 C 
ATOM      9  C   UNL     1       1.902   7.328  18.896  0.00  0.00    +0.000 C 
ATOM     10  O   UNL     1       2.673   6.673  19.948  0.00  0.00    +0.000 OA
ATOM     11  C   UNL     1       2.455   5.339  19.866  0.00  0.00    +0.000 A 
ATOM     12  C   UNL     1       2.109   4.632  21.050  0.00  0.00    +0.000 A 
ATOM     13  C   UNL     1       1.523   3.358  21.048  0.00  0.00    +0.000 A 
ATOM     14  C   UNL     1       0.998   3.099  19.819  0.00  0.00    +0.000 A 
ATOM     15  C   UNL     1       1.329   3.919  18.596  0.00  0.00    +0.000 A 
ATOM     16  C   UNL     1       2.371   4.908  18.584  0.00  0.00    +0.000 A 
ATOM     17  C   UNL     1       3.197   6.188  17.704  0.00  0.00    +0.000 C 
ATOM     18  O   UNL     1       4.322   5.988  17.238  0.00  0.00    +0.000 OA
ENDBRANCH   6   7
BRANCH   1  19
ATOM     19  O   UNL     1       1.558  11.560  20.139  0.00  0.00    +0.000 OA
BRANCH  19  20
ATOM     20  C   UNL     1       1.469  13.080  19.948  0.00  0.00    +0.000 C 
BRANCH  20  21
ATOM     21  C   UNL     1       2.782  13.648  19.150  0.00  0.00    +0.000 C 
BRANCH  21  23
ATOM     22  C   UNL     1       2.187  16.317  18.374  0.00  0.00    +0.000 C 
ATOM     23  N   UNL     1       2.792  14.932  18.153  0.00  0.00    +0.000 NA
ATOM     24  C   UNL     1       4.143  15.372  17.675  0.00  0.00    +0.000 C 
ENDBRANCH  21  23
ENDBRANCH  20  21
ENDBRANCH  19  20
ENDBRANCH   1  19
TORSDOF 5
ENDMDL
MODEL 8
REMARK VINA RESULT:      -7.0      2.517      6.909
REMARK  Name = 
REMARK  7 active torsions:
REMARK  status: ('A' for Active; 'I' for Inactive)
REMARK    1  A    between atoms: C_1  and  N_2
REMARK    2  A    between atoms: N_2  and  C_3
REMARK    3  A    between atoms: N_2  and  C_4
REMARK    4  A    between atoms: C_4  and  C_5
REMARK    5  A    between atoms: C_5  and  O_6
REMARK    6  A    between atoms: O_6  and  C_7
REMARK    7  A    between atoms: C_12  and  C_13
REMARK                            x       y       z     vdW  Elec       q    Type
REMARK                         _______ _______ _______ _____ _____    ______ ____
ROOT
ATOM      1  C   UNL     1       2.381   5.041  18.232  0.00  0.00    +0.000 A 
ATOM      2  C   UNL     1       1.502   4.045  18.873  0.00  0.00    +0.000 A 
ATOM      3  C   UNL     1       1.013   4.275  20.148  0.00  0.00    +0.000 A 
ATOM      4  C   UNL     1       1.429   5.366  20.880  0.00  0.00    +0.000 A 
ATOM      5  C   UNL     1       2.126   6.415  20.213  0.00  0.00    +0.000 A 
ATOM      6  C   UNL     1       2.490   6.384  18.824  0.00  0.00    +0.000 A 
ENDROOT
BRANCH   6   7
ATOM      7  C   UNL     1       2.770   7.707  17.944  0.00  0.00    +0.000 C 
ATOM      8  C   UNL     1       2.479   9.043  17.945  0.00  0.00    +0.000 C 
ATOM      9  C   UNL     1       1.189   8.938  18.631  0.00  0.00    +0.000 C 
ATOM     10  O   UNL     1       0.174   9.591  17.810  0.00  0.00    +0.000 OA
ATOM     11  C   UNL     1      -0.289  10.669  18.487  0.00  0.00    +0.000 A 
ATOM     12  C   UNL     1      -1.695  10.843  18.607  0.00  0.00    +0.000 A 
ATOM     13  C   UNL     1      -2.292  11.687  19.555  0.00  0.00    +0.000 A 
ATOM     14  C   UNL     1      -1.397  11.975  20.539  0.00  0.00    +0.000 A 
ATOM     15  C   UNL     1       0.082  11.705  20.407  0.00  0.00    +0.000 A 
ATOM     16  C   UNL     1       0.691  11.312  19.166  0.00  0.00    +0.000 A 
ATOM     17  C   UNL     1       2.140  10.781  18.323  0.00  0.00    +0.000 C 
ATOM     18  O   UNL     1       2.743  11.561  17.581  0.00  0.00    +0.000 OA
ENDBRANCH   6   7
BRANCH   1  19
ATOM     19  O   UNL     1       3.140   4.566  17.145  0.00  0.00    +0.000 OA
BRANCH  19  20
ATOM     20  C   UNL     1       4.263   3.556  17.421  0.00  0.00    +0.000 C 
BRANCH  20  21
ATOM     21  C   UNL     1       5.288   4.117  18.568  0.00  0.00    +0.000 C 
BRANCH  21  23
ATOM     22  C   UNL     1       7.543   5.683  19.304  0.00  0.00    +0.000 C 
ATOM     23  N   UNL     1       6.549   5.107  18.298  0.00  0.00    +0.000 NA
ATOM     24  C   UNL     1       7.541   4.630  17.280  0.00  0.00    +0.000 C 
ENDBRANCH  21  23
ENDBRANCH  20  21
ENDBRANCH  19  20
ENDBRANCH   1  19
TORSDOF 5
ENDMDL
MODEL 9
REMARK VINA RESULT:      -7.0      1.216      1.453
REMARK  Name = 
REMARK  7 active torsions:
REMARK  status: ('A' for Active; 'I' for Inactive)
REMARK    1  A    between atoms: C_1  and  N_2
REMARK    2  A    between atoms: N_2  and  C_3
REMARK    3  A    between atoms: N_2  and  C_4
REMARK    4  A    between atoms: C_4  and  C_5
REMARK    5  A    between atoms: C_5  and  O_6
REMARK    6  A    between atoms: O_6  and  C_7
REMARK    7  A    between atoms: C_12  and  C_13
REMARK                            x       y       z     vdW  Elec       q    Type
REMARK                         _______ _______ _______ _____ _____    ______ ____
ROOT
ATOM      1  C   UNL     1       2.223   5.794  18.618  0.00  0.00    +0.000 A 
ATOM      2  C   UNL     1       1.809   5.993  20.020  0.00  0.00    +0.000 A 
ATOM      3  C   UNL     1       1.563   4.897  20.829  0.00  0.00    +0.000 A 
ATOM      4  C   UNL     1       1.583   3.618  20.315  0.00  0.00    +0.000 A 
ATOM      5  C   UNL     1       2.150   3.405  19.025  0.00  0.00    +0.000 A 
ATOM      6  C   UNL     1       2.651   4.456  18.183  0.00  0.00    +0.000 A 
ENDROOT
BRANCH   6   7
ATOM      7  C   UNL     1       3.746   4.222  17.020  0.00  0.00    +0.000 C 
ATOM      8  C   UNL     1       5.059   4.489  16.753  0.00  0.00    +0.000 C 
ATOM      9  C   UNL     1       5.146   5.725  17.536  0.00  0.00    +0.000 C 
ATOM     10  O   UNL     1       5.642   6.788  16.669  0.00  0.00    +0.000 OA
ATOM     11  C   UNL     1       6.855   7.180  17.129  0.00  0.00    +0.000 A 
ATOM     12  C   UNL     1       7.097   8.569  17.309  0.00  0.00    +0.000 A 
ATOM     13  C   UNL     1       8.143   9.077  18.093  0.00  0.00    +0.000 A 
ATOM     14  C   UNL     1       8.605   8.104  18.924  0.00  0.00    +0.000 A 
ATOM     15  C   UNL     1       8.264   6.645  18.748  0.00  0.00    +0.000 A 
ATOM     16  C   UNL     1       7.595   6.139  17.581  0.00  0.00    +0.000 A 
ATOM     17  C   UNL     1       6.848   4.768  16.771  0.00  0.00    +0.000 C 
ATOM     18  O   UNL     1       7.432   4.212  15.837  0.00  0.00    +0.000 OA
ENDBRANCH   6   7
BRANCH   1  19
ATOM     19  O   UNL     1       2.060   6.911  17.776  0.00  0.00    +0.000 OA
BRANCH  19  20
ATOM     20  C   UNL     1       2.535   8.282  18.276  0.00  0.00    +0.000 C 
BRANCH  20  21
ATOM     21  C   UNL     1       1.273   9.306  18.471  0.00  0.00    +0.000 C 
BRANCH  21  23
ATOM     22  C   UNL     1       2.299  11.943  18.197  0.00  0.00    +0.000 C 
ATOM     23  N   UNL     1       1.393  10.888  18.828  0.00  0.00    +0.000 NA
ATOM     24  C   UNL     1       0.111  11.662  18.779  0.00  0.00    +0.000 C 
ENDBRANCH  21  23
ENDBRANCH  20  21
ENDBRANCH  19  20
ENDBRANCH   1  19
TORSDOF 5
ENDMDL
