MODEL 1
REMARK VINA RESULT:      -8.9      0.000      0.000
REMARK  Name = 
REMARK  5 active torsions:
REMARK  status: ('A' for Active; 'I' for Inactive)
REMARK    1  A    between atoms: N_1  and  C_2
REMARK    2  A    between atoms: N_10  and  C_11
REMARK    3  A    between atoms: C_14  and  N_15
REMARK    4  A    between atoms: N_18  and  C_19
REMARK    5  A    between atoms: C_24  and  C_25
REMARK                            x       y       z     vdW  Elec       q    Type
REMARK                         _______ _______ _______ _____ _____    ______ ____
ROOT
ATOM      1  C   UNL     1       2.757   6.756  19.027  0.00  0.00    +0.000 A 
ATOM      2  C   UNL     1       2.765   7.579  17.901  0.00  0.00    +0.000 A 
ATOM      3  C   UNL     1       2.127   8.820  17.926  0.00  0.00    +0.000 A 
ATOM      4  C   UNL     1       1.475   9.278  19.075  0.00  0.00    +0.000 A 
ATOM      5  C   UNL     1       1.532   8.495  20.229  0.00  0.00    +0.000 A 
ATOM      6  C   UNL     1       2.165   7.239  20.205  0.00  0.00    +0.000 A 
ENDROOT
BRANCH   1  15
ATOM      7  C   UNL     1       3.359   1.867  18.653  0.00  0.00    +0.000 A 
ATOM      8  N   UNL     1       2.057   1.519  18.649  0.00  0.00    +0.000 NA
ATOM      9  C   UNL     1       1.118   2.475  18.784  0.00  0.00    +0.000 A 
ATOM     10  C   UNL     1       1.377   3.829  18.919  0.00  0.00    +0.000 A 
ATOM     11  C   UNL     1       2.725   4.212  18.889  0.00  0.00    +0.000 A 
ATOM     12  C   UNL     1       3.723   3.226  18.797  0.00  0.00    +0.000 A 
ATOM     13  C   UNL     1       4.972   3.892  18.896  0.00  0.00    +0.000 A 
ATOM     14  C   UNL     1       4.725   5.237  19.035  0.00  0.00    +0.000 A 
ATOM     15  N   UNL     1       3.361   5.458  18.985  0.00  0.00    +0.000 N 
BRANCH   7  16
ATOM     16  N   UNL     1       4.279   0.835  18.533  0.00  0.00    +0.000 N 
ATOM     17  H   UNL     1       3.880  -0.025  18.893  0.00  0.00    +0.000 HD
ATOM     18  H   UNL     1       5.218   1.059  18.826  0.00  0.00    +0.000 HD
ENDBRANCH   7  16
ENDBRANCH   1  15
BRANCH   4  19
ATOM     19  N   UNL     1       0.784  10.513  19.107  0.00  0.00    +0.000 N 
ATOM     20  C   UNL     1      -0.542  10.631  19.472  0.00  0.00    +0.000 C 
ATOM     21  O   UNL     1      -1.214   9.726  19.965  0.00  0.00    +0.000 OA
ATOM     22  N   UNL     1      -1.061  11.890  19.184  0.00  0.00    +0.000 N 
ATOM     23  H   UNL     1       1.337  11.356  19.177  0.00  0.00    +0.000 HD
ATOM     24  H   UNL     1      -0.671  12.301  18.347  0.00  0.00    +0.000 HD
BRANCH  22  25
ATOM     25  C   UNL     1      -2.430  12.150  19.436  0.00  0.00    +0.000 A 
ATOM     26  C   UNL     1      -2.794  12.846  20.584  0.00  0.00    +0.000 A 
ATOM     27  C   UNL     1      -4.115  13.276  20.735  0.00  0.00    +0.000 A 
ATOM     28  C   UNL     1      -5.094  12.959  19.779  0.00  0.00    +0.000 A 
ATOM     29 CL   UNL     1      -6.666  13.614  20.044  0.00  0.00    +0.000 Cl
ATOM     30  C   UNL     1      -4.768  12.171  18.673  0.00  0.00    +0.000 A 
ATOM     31  C   UNL     1      -3.420  11.784  18.514  0.00  0.00    +0.000 A 
BRANCH  30  32
ATOM     32  C   UNL     1      -5.744  11.703  17.625  0.00  0.00    +0.000 C 
ATOM     33  F   UNL     1      -5.248  10.888  16.657  0.00  0.00    +0.000 F 
ATOM     34  F   UNL     1      -6.799  11.027  18.163  0.00  0.00    +0.000 F 
ATOM     35  F   UNL     1      -6.295  12.757  16.954  0.00  0.00    +0.000 F 
ENDBRANCH  30  32
ENDBRANCH  22  25
ENDBRANCH   4  19
TORSDOF 5
ENDMDL
MODEL 2
REMARK VINA RESULT:      -8.8      1.646      2.103
REMARK  Name = 
REMARK  5 active torsions:
REMARK  status: ('A' for Active; 'I' for Inactive)
REMARK    1  A    between atoms: N_1  and  C_2
REMARK    2  A    between atoms: N_10  and  C_11
REMARK    3  A    between atoms: C_14  and  N_15
REMARK    4  A    between atoms: N_18  and  C_19
REMARK    5  A    between atoms: C_24  and  C_25
REMARK                            x       y       z     vdW  Elec       q    Type
REMARK                         _______ _______ _______ _____ _____    ______ ____
ROOT
ATOM      1  C   UNL     1       2.675   6.768  19.004  0.00  0.00    +0.000 A 
ATOM      2  C   UNL     1       2.703   7.560  17.856  0.00  0.00    +0.000 A 
ATOM      3  C   UNL     1       2.046   8.792  17.830  0.00  0.00    +0.000 A 
ATOM      4  C   UNL     1       1.356   9.271  18.948  0.00  0.00    +0.000 A 
ATOM      5  C   UNL     1       1.392   8.520  20.124  0.00  0.00    +0.000 A 
ATOM      6  C   UNL     1       2.043   7.274  20.152  0.00  0.00    +0.000 A 
ENDROOT
BRANCH   1  15
ATOM      7  C   UNL     1       3.368   1.885  18.727  0.00  0.00    +0.000 A 
ATOM      8  N   UNL     1       2.073   1.518  18.650  0.00  0.00    +0.000 NA
ATOM      9  C   UNL     1       1.114   2.461  18.717  0.00  0.00    +0.000 A 
ATOM     10  C   UNL     1       1.345   3.820  18.850  0.00  0.00    +0.000 A 
ATOM     11  C   UNL     1       2.687   4.223  18.896  0.00  0.00    +0.000 A 
ATOM     12  C   UNL     1       3.702   3.251  18.876  0.00  0.00    +0.000 A 
ATOM     13  C   UNL     1       4.934   3.937  19.042  0.00  0.00    +0.000 A 
ATOM     14  C   UNL     1       4.661   5.279  19.149  0.00  0.00    +0.000 A 
ATOM     15  N   UNL     1       3.298   5.479  19.014  0.00  0.00    +0.000 N 
BRANCH   7  16
ATOM     16  N   UNL     1       4.307   0.865  18.675  0.00  0.00    +0.000 N 
ATOM     17  H   UNL     1       5.023   1.020  19.376  0.00  0.00    +0.000 HD
ATOM     18  H   UNL     1       4.621   0.617  17.750  0.00  0.00    +0.000 HD
ENDBRANCH   7  16
ENDBRANCH   1  15
BRANCH   4  19
ATOM     19  N   UNL     1       0.646  10.496  18.927  0.00  0.00    +0.000 N 
ATOM     20  C   UNL     1      -0.716  10.587  19.128  0.00  0.00    +0.000 C 
ATOM     21  O   UNL     1      -1.429   9.660  19.511  0.00  0.00    +0.000 OA
ATOM     22  N   UNL     1      -1.216  11.846  18.812  0.00  0.00    +0.000 N 
ATOM     23  H   UNL     1       1.173  11.343  19.086  0.00  0.00    +0.000 HD
ATOM     24  H   UNL     1      -0.733  12.286  18.040  0.00  0.00    +0.000 HD
BRANCH  22  25
ATOM     25  C   UNL     1      -2.610  12.082  18.900  0.00  0.00    +0.000 A 
ATOM     26  C   UNL     1      -3.435  11.705  17.847  0.00  0.00    +0.000 A 
ATOM     27  C   UNL     1      -4.822  11.751  18.011  0.00  0.00    +0.000 A 
ATOM     28  C   UNL     1      -5.394  12.237  19.199  0.00  0.00    +0.000 A 
ATOM     29 CL   UNL     1      -7.114  12.170  19.304  0.00  0.00    +0.000 Cl
ATOM     30  C   UNL     1      -4.581  12.718  20.226  0.00  0.00    +0.000 A 
ATOM     31  C   UNL     1      -3.183  12.621  20.060  0.00  0.00    +0.000 A 
BRANCH  30  32
ATOM     32  C   UNL     1      -5.078  13.332  21.509  0.00  0.00    +0.000 C 
ATOM     33  F   UNL     1      -5.860  12.544  22.293  0.00  0.00    +0.000 F 
ATOM     34  F   UNL     1      -4.060  13.750  22.314  0.00  0.00    +0.000 F 
ATOM     35  F   UNL     1      -5.829  14.447  21.266  0.00  0.00    +0.000 F 
ENDBRANCH  30  32
ENDBRANCH  22  25
ENDBRANCH   4  19
TORSDOF 5
ENDMDL
MODEL 3
REMARK VINA RESULT:      -8.6      2.438      2.904
REMARK  Name = 
REMARK  5 active torsions:
REMARK  status: ('A' for Active; 'I' for Inactive)
REMARK    1  A    between atoms: N_1  and  C_2
REMARK    2  A    between atoms: N_10  and  C_11
REMARK    3  A    between atoms: C_14  and  N_15
REMARK    4  A    between atoms: N_18  and  C_19
REMARK    5  A    between atoms: C_24  and  C_25
REMARK                            x       y       z     vdW  Elec       q    Type
REMARK                         _______ _______ _______ _____ _____    ______ ____
ROOT
ATOM      1  C   UNL     1       2.615   6.948  18.858  0.00  0.00    +0.000 A 
ATOM      2  C   UNL     1       2.579   7.810  17.763  0.00  0.00    +0.000 A 
ATOM      3  C   UNL     1       1.950   9.053  17.861  0.00  0.00    +0.000 A 
ATOM      4  C   UNL     1       1.350   9.471  19.052  0.00  0.00    +0.000 A 
ATOM      5  C   UNL     1       1.453   8.647  20.174  0.00  0.00    +0.000 A 
ATOM      6  C   UNL     1       2.077   7.391  20.078  0.00  0.00    +0.000 A 
ENDROOT
BRANCH   1  15
ATOM      7  C   UNL     1       3.181   2.046  18.638  0.00  0.00    +0.000 A 
ATOM      8  N   UNL     1       1.925   1.698  18.981  0.00  0.00    +0.000 NA
ATOM      9  C   UNL     1       1.035   2.659  19.290  0.00  0.00    +0.000 A 
ATOM     10  C   UNL     1       1.298   4.019  19.275  0.00  0.00    +0.000 A 
ATOM     11  C   UNL     1       2.590   4.400  18.885  0.00  0.00    +0.000 A 
ATOM     12  C   UNL     1       3.548   3.411  18.605  0.00  0.00    +0.000 A 
ATOM     13  C   UNL     1       4.772   4.082  18.348  0.00  0.00    +0.000 A 
ATOM     14  C   UNL     1       4.547   5.432  18.464  0.00  0.00    +0.000 A 
ATOM     15  N   UNL     1       3.210   5.650  18.744  0.00  0.00    +0.000 N 
BRANCH   7  16
ATOM     16  N   UNL     1       4.057   1.008  18.353  0.00  0.00    +0.000 N 
ATOM     17  H   UNL     1       5.014   1.320  18.479  0.00  0.00    +0.000 HD
ATOM     18  H   UNL     1       3.854   0.492  17.511  0.00  0.00    +0.000 HD
ENDBRANCH   7  16
ENDBRANCH   1  15
BRANCH   4  19
ATOM     19  N   UNL     1       0.668  10.708  19.158  0.00  0.00    +0.000 N 
ATOM     20  C   UNL     1      -0.518  10.863  19.846  0.00  0.00    +0.000 C 
ATOM     21  O   UNL     1      -1.020  10.007  20.575  0.00  0.00    +0.000 OA
ATOM     22  N   UNL     1      -1.119  12.093  19.598  0.00  0.00    +0.000 N 
ATOM     23  H   UNL     1       1.204  11.551  19.008  0.00  0.00    +0.000 HD
ATOM     24  H   UNL     1      -0.969  12.428  18.656  0.00  0.00    +0.000 HD
BRANCH  22  25
ATOM     25  C   UNL     1      -2.379  12.380  20.178  0.00  0.00    +0.000 A 
ATOM     26  C   UNL     1      -3.528  12.269  19.403  0.00  0.00    +0.000 A 
ATOM     27  C   UNL     1      -4.780  12.356  20.017  0.00  0.00    +0.000 A 
ATOM     28  C   UNL     1      -4.895  12.619  21.392  0.00  0.00    +0.000 A 
ATOM     29 CL   UNL     1      -6.493  12.624  22.041  0.00  0.00    +0.000 Cl
ATOM     30  C   UNL     1      -3.752  12.836  22.165  0.00  0.00    +0.000 A 
ATOM     31  C   UNL     1      -2.496  12.701  21.536  0.00  0.00    +0.000 A 
BRANCH  30  32
ATOM     32  C   UNL     1      -3.752  13.202  23.627  0.00  0.00    +0.000 C 
ATOM     33  F   UNL     1      -2.553  13.549  24.163  0.00  0.00    +0.000 F 
ATOM     34  F   UNL     1      -4.589  14.242  23.902  0.00  0.00    +0.000 F 
ATOM     35  F   UNL     1      -4.199  12.165  24.397  0.00  0.00    +0.000 F 
ENDBRANCH  30  32
ENDBRANCH  22  25
ENDBRANCH   4  19
TORSDOF 5
ENDMDL
MODEL 4
REMARK VINA RESULT:      -8.6      5.255     10.889
REMARK  Name = 
REMARK  5 active torsions:
REMARK  status: ('A' for Active; 'I' for Inactive)
REMARK    1  A    between atoms: N_1  and  C_2
REMARK    2  A    between atoms: N_10  and  C_11
REMARK    3  A    between atoms: C_14  and  N_15
REMARK    4  A    between atoms: N_18  and  C_19
REMARK    5  A    between atoms: C_24  and  C_25
REMARK                            x       y       z     vdW  Elec       q    Type
REMARK                         _______ _______ _______ _____ _____    ______ ____
ROOT
ATOM      1  C   UNL     1      -1.799  12.447  22.746  0.00  0.00    +0.000 A 
ATOM      2  C   UNL     1      -0.840  12.706  21.768  0.00  0.00    +0.000 A 
ATOM      3  C   UNL     1       0.139  11.757  21.467  0.00  0.00    +0.000 A 
ATOM      4  C   UNL     1       0.179  10.523  22.123  0.00  0.00    +0.000 A 
ATOM      5  C   UNL     1      -0.825  10.226  23.045  0.00  0.00    +0.000 A 
ATOM      6  C   UNL     1      -1.807  11.183  23.359  0.00  0.00    +0.000 A 
ENDROOT
BRANCH   1  15
ATOM      7  C   UNL     1      -6.049  14.938  23.116  0.00  0.00    +0.000 A 
ATOM      8  N   UNL     1      -6.764  14.218  22.228  0.00  0.00    +0.000 NA
ATOM      9  C   UNL     1      -6.168  13.211  21.562  0.00  0.00    +0.000 A 
ATOM     10  C   UNL     1      -4.847  12.827  21.720  0.00  0.00    +0.000 A 
ATOM     11  C   UNL     1      -4.099  13.542  22.666  0.00  0.00    +0.000 A 
ATOM     12  C   UNL     1      -4.687  14.628  23.337  0.00  0.00    +0.000 A 
ATOM     13  C   UNL     1      -3.674  15.216  24.139  0.00  0.00    +0.000 A 
ATOM     14  C   UNL     1      -2.518  14.497  23.956  0.00  0.00    +0.000 A 
ATOM     15  N   UNL     1      -2.768  13.441  23.098  0.00  0.00    +0.000 N 
BRANCH   7  16
ATOM     16  N   UNL     1      -6.713  15.977  23.752  0.00  0.00    +0.000 N 
ATOM     17  H   UNL     1      -6.268  16.860  23.527  0.00  0.00    +0.000 HD
ATOM     18  H   UNL     1      -6.937  15.814  24.722  0.00  0.00    +0.000 HD
ENDBRANCH   7  16
ENDBRANCH   1  15
BRANCH   4  19
ATOM     19  N   UNL     1       1.190   9.565  21.864  0.00  0.00    +0.000 N 
ATOM     20  C   UNL     1       1.132   8.665  20.820  0.00  0.00    +0.000 C 
ATOM     21  O   UNL     1       0.301   8.701  19.912  0.00  0.00    +0.000 OA
ATOM     22  N   UNL     1       2.102   7.672  20.920  0.00  0.00    +0.000 N 
ATOM     23  H   UNL     1       2.110   9.744  22.242  0.00  0.00    +0.000 HD
ATOM     24  H   UNL     1       2.308   7.411  21.875  0.00  0.00    +0.000 HD
BRANCH  22  25
ATOM     25  C   UNL     1       2.131   6.631  19.961  0.00  0.00    +0.000 A 
ATOM     26  C   UNL     1       2.715   6.862  18.720  0.00  0.00    +0.000 A 
ATOM     27  C   UNL     1       2.924   5.788  17.851  0.00  0.00    +0.000 A 
ATOM     28  C   UNL     1       2.494   4.493  18.183  0.00  0.00    +0.000 A 
ATOM     29 CL   UNL     1       2.881   3.244  17.059  0.00  0.00    +0.000 Cl
ATOM     30  C   UNL     1       1.812   4.263  19.380  0.00  0.00    +0.000 A 
ATOM     31  C   UNL     1       1.649   5.351  20.264  0.00  0.00    +0.000 A 
BRANCH  30  32
ATOM     32  C   UNL     1       1.236   2.939  19.808  0.00  0.00    +0.000 C 
ATOM     33  F   UNL     1       0.245   2.431  19.031  0.00  0.00    +0.000 F 
ATOM     34  F   UNL     1       2.182   1.959  19.878  0.00  0.00    +0.000 F 
ATOM     35  F   UNL     1       0.701   3.014  21.063  0.00  0.00    +0.000 F 
ENDBRANCH  30  32
ENDBRANCH  22  25
ENDBRANCH   4  19
TORSDOF 5
ENDMDL
MODEL 5
REMARK VINA RESULT:      -8.6      2.959      3.488
REMARK  Name = 
REMARK  5 active torsions:
REMARK  status: ('A' for Active; 'I' for Inactive)
REMARK    1  A    between atoms: N_1  and  C_2
REMARK    2  A    between atoms: N_10  and  C_11
REMARK    3  A    between atoms: C_14  and  N_15
REMARK    4  A    between atoms: N_18  and  C_19
REMARK    5  A    between atoms: C_24  and  C_25
REMARK                            x       y       z     vdW  Elec       q    Type
REMARK                         _______ _______ _______ _____ _____    ______ ____
ROOT
ATOM      1  C   UNL     1       2.410   7.140  19.050  0.00  0.00    +0.000 A 
ATOM      2  C   UNL     1       2.350   8.070  18.012  0.00  0.00    +0.000 A 
ATOM      3  C   UNL     1       1.684   9.285  18.188  0.00  0.00    +0.000 A 
ATOM      4  C   UNL     1       1.074   9.609  19.402  0.00  0.00    +0.000 A 
ATOM      5  C   UNL     1       1.200   8.718  20.469  0.00  0.00    +0.000 A 
ATOM      6  C   UNL     1       1.860   7.489  20.294  0.00  0.00    +0.000 A 
ENDROOT
BRANCH   1  15
ATOM      7  C   UNL     1       3.144   2.269  18.678  0.00  0.00    +0.000 A 
ATOM      8  N   UNL     1       1.941   1.865  19.131  0.00  0.00    +0.000 NA
ATOM      9  C   UNL     1       1.047   2.784  19.543  0.00  0.00    +0.000 A 
ATOM     10  C   UNL     1       1.254   4.154  19.530  0.00  0.00    +0.000 A 
ATOM     11  C   UNL     1       2.487   4.593  19.027  0.00  0.00    +0.000 A 
ATOM     12  C   UNL     1       3.452   3.649  18.638  0.00  0.00    +0.000 A 
ATOM     13  C   UNL     1       4.619   4.374  18.280  0.00  0.00    +0.000 A 
ATOM     14  C   UNL     1       4.353   5.712  18.444  0.00  0.00    +0.000 A 
ATOM     15  N   UNL     1       3.041   5.870  18.854  0.00  0.00    +0.000 N 
BRANCH   7  16
ATOM     16  N   UNL     1       4.029   1.273  18.291  0.00  0.00    +0.000 N 
ATOM     17  H   UNL     1       4.885   1.689  17.942  0.00  0.00    +0.000 HD
ATOM     18  H   UNL     1       3.626   0.530  17.740  0.00  0.00    +0.000 HD
ENDBRANCH   7  16
ENDBRANCH   1  15
BRANCH   4  19
ATOM     19  N   UNL     1       0.357  10.816  19.586  0.00  0.00    +0.000 N 
ATOM     20  C   UNL     1       0.043  11.330  20.827  0.00  0.00    +0.000 C 
ATOM     21  O   UNL     1       0.488  10.904  21.893  0.00  0.00    +0.000 OA
ATOM     22  N   UNL     1      -0.872  12.376  20.753  0.00  0.00    +0.000 N 
ATOM     23  H   UNL     1       0.349  11.476  18.820  0.00  0.00    +0.000 HD
ATOM     24  H   UNL     1      -1.545  12.265  20.006  0.00  0.00    +0.000 HD
BRANCH  22  25
ATOM     25  C   UNL     1      -1.349  12.968  21.949  0.00  0.00    +0.000 A 
ATOM     26  C   UNL     1      -0.545  13.875  22.629  0.00  0.00    +0.000 A 
ATOM     27  C   UNL     1      -1.085  14.607  23.690  0.00  0.00    +0.000 A 
ATOM     28  C   UNL     1      -2.403  14.391  24.122  0.00  0.00    +0.000 A 
ATOM     29 CL   UNL     1      -2.972  15.412  25.391  0.00  0.00    +0.000 Cl
ATOM     30  C   UNL     1      -3.190  13.409  23.518  0.00  0.00    +0.000 A 
ATOM     31  C   UNL     1      -2.643  12.711  22.419  0.00  0.00    +0.000 A 
BRANCH  30  32
ATOM     32  C   UNL     1      -4.586  13.033  23.943  0.00  0.00    +0.000 C 
ATOM     33  F   UNL     1      -4.693  12.281  25.069  0.00  0.00    +0.000 F 
ATOM     34  F   UNL     1      -5.375  14.124  24.157  0.00  0.00    +0.000 F 
ATOM     35  F   UNL     1      -5.222  12.312  22.972  0.00  0.00    +0.000 F 
ENDBRANCH  30  32
ENDBRANCH  22  25
ENDBRANCH   4  19
TORSDOF 5
ENDMDL
MODEL 6
REMARK VINA RESULT:      -8.6      1.945      2.345
REMARK  Name = 
REMARK  5 active torsions:
REMARK  status: ('A' for Active; 'I' for Inactive)
REMARK    1  A    between atoms: N_1  and  C_2
REMARK    2  A    between atoms: N_10  and  C_11
REMARK    3  A    between atoms: C_14  and  N_15
REMARK    4  A    between atoms: N_18  and  C_19
REMARK    5  A    between atoms: C_24  and  C_25
REMARK                            x       y       z     vdW  Elec       q    Type
REMARK                         _______ _______ _______ _____ _____    ______ ____
ROOT
ATOM      1  C   UNL     1       2.690   7.242  18.998  0.00  0.00    +0.000 A 
ATOM      2  C   UNL     1       2.655   7.981  17.816  0.00  0.00    +0.000 A 
ATOM      3  C   UNL     1       1.885   9.142  17.731  0.00  0.00    +0.000 A 
ATOM      4  C   UNL     1       1.140   9.602  18.821  0.00  0.00    +0.000 A 
ATOM      5  C   UNL     1       1.235   8.910  20.030  0.00  0.00    +0.000 A 
ATOM      6  C   UNL     1       2.001   7.735  20.118  0.00  0.00    +0.000 A 
ENDROOT
BRANCH   1  15
ATOM      7  C   UNL     1       4.052   2.635  20.151  0.00  0.00    +0.000 A 
ATOM      8  N   UNL     1       3.105   2.388  21.079  0.00  0.00    +0.000 NA
ATOM      9  C   UNL     1       2.230   3.358  21.403  0.00  0.00    +0.000 A 
ATOM     10  C   UNL     1       2.205   4.625  20.843  0.00  0.00    +0.000 A 
ATOM     11  C   UNL     1       3.160   4.887  19.851  0.00  0.00    +0.000 A 
ATOM     12  C   UNL     1       4.114   3.904  19.532  0.00  0.00    +0.000 A 
ATOM     13  C   UNL     1       5.002   4.482  18.587  0.00  0.00    +0.000 A 
ATOM     14  C   UNL     1       4.585   5.768  18.345  0.00  0.00    +0.000 A 
ATOM     15  N   UNL     1       3.434   6.020  19.070  0.00  0.00    +0.000 N 
BRANCH   7  16
ATOM     16  N   UNL     1       4.938   1.602  19.878  0.00  0.00    +0.000 N 
ATOM     17  H   UNL     1       5.055   1.505  18.875  0.00  0.00    +0.000 HD
ATOM     18  H   UNL     1       4.785   0.755  20.403  0.00  0.00    +0.000 HD
ENDBRANCH   7  16
ENDBRANCH   1  15
BRANCH   4  19
ATOM     19  N   UNL     1       0.318  10.751  18.740  0.00  0.00    +0.000 N 
ATOM     20  C   UNL     1      -1.037  10.735  19.003  0.00  0.00    +0.000 C 
ATOM     21  O   UNL     1      -1.642   9.781  19.493  0.00  0.00    +0.000 OA
ATOM     22  N   UNL     1      -1.667  11.913  18.615  0.00  0.00    +0.000 N 
ATOM     23  H   UNL     1       0.769  11.653  18.806  0.00  0.00    +0.000 HD
ATOM     24  H   UNL     1      -1.262  12.329  17.787  0.00  0.00    +0.000 HD
BRANCH  22  25
ATOM     25  C   UNL     1      -3.072  12.027  18.755  0.00  0.00    +0.000 A 
ATOM     26  C   UNL     1      -3.902  11.518  17.763  0.00  0.00    +0.000 A 
ATOM     27  C   UNL     1      -5.279  11.450  17.989  0.00  0.00    +0.000 A 
ATOM     28  C   UNL     1      -5.844  11.949  19.175  0.00  0.00    +0.000 A 
ATOM     29 CL   UNL     1      -7.544  11.735  19.363  0.00  0.00    +0.000 Cl
ATOM     30  C   UNL     1      -5.036  12.559  20.136  0.00  0.00    +0.000 A 
ATOM     31  C   UNL     1      -3.643  12.579  19.910  0.00  0.00    +0.000 A 
BRANCH  30  32
ATOM     32  C   UNL     1      -5.534  13.198  21.407  0.00  0.00    +0.000 C 
ATOM     33  F   UNL     1      -6.256  12.405  22.240  0.00  0.00    +0.000 F 
ATOM     34  F   UNL     1      -4.520  13.698  22.169  0.00  0.00    +0.000 F 
ATOM     35  F   UNL     1      -6.345  14.265  21.139  0.00  0.00    +0.000 F 
ENDBRANCH  30  32
ENDBRANCH  22  25
ENDBRANCH   4  19
TORSDOF 5
ENDMDL
MODEL 7
REMARK VINA RESULT:      -8.5      5.439     11.226
REMARK  Name = 
REMARK  5 active torsions:
REMARK  status: ('A' for Active; 'I' for Inactive)
REMARK    1  A    between atoms: N_1  and  C_2
REMARK    2  A    between atoms: N_10  and  C_11
REMARK    3  A    between atoms: C_14  and  N_15
REMARK    4  A    between atoms: N_18  and  C_19
REMARK    5  A    between atoms: C_24  and  C_25
REMARK                            x       y       z     vdW  Elec       q    Type
REMARK                         _______ _______ _______ _____ _____    ______ ____
ROOT
ATOM      1  C   UNL     1      -2.030  12.427  22.613  0.00  0.00    +0.000 A 
ATOM      2  C   UNL     1      -1.920  11.264  23.373  0.00  0.00    +0.000 A 
ATOM      3  C   UNL     1      -0.879  10.362  23.141  0.00  0.00    +0.000 A 
ATOM      4  C   UNL     1       0.082  10.602  22.155  0.00  0.00    +0.000 A 
ATOM      5  C   UNL     1       0.023  11.802  21.445  0.00  0.00    +0.000 A 
ATOM      6  C   UNL     1      -1.029  12.708  21.669  0.00  0.00    +0.000 A 
ENDROOT
BRANCH   1  15
ATOM      7  C   UNL     1      -4.763  16.230  24.186  0.00  0.00    +0.000 A 
ATOM      8  N   UNL     1      -3.899  16.715  25.099  0.00  0.00    +0.000 NA
ATOM      9  C   UNL     1      -2.735  16.072  25.314  0.00  0.00    +0.000 A 
ATOM     10  C   UNL     1      -2.328  14.926  24.651  0.00  0.00    +0.000 A 
ATOM     11  C   UNL     1      -3.199  14.429  23.671  0.00  0.00    +0.000 A 
ATOM     12  C   UNL     1      -4.439  15.057  23.466  0.00  0.00    +0.000 A 
ATOM     13  C   UNL     1      -5.141  14.282  22.505  0.00  0.00    +0.000 A 
ATOM     14  C   UNL     1      -4.338  13.227  22.145  0.00  0.00    +0.000 A 
ATOM     15  N   UNL     1      -3.129  13.325  22.810  0.00  0.00    +0.000 N 
BRANCH   7  16
ATOM     16  N   UNL     1      -5.954  16.925  24.027  0.00  0.00    +0.000 N 
ATOM     17  H   UNL     1      -6.653  16.320  23.609  0.00  0.00    +0.000 HD
ATOM     18  H   UNL     1      -5.863  17.851  23.639  0.00  0.00    +0.000 HD
ENDBRANCH   7  16
ENDBRANCH   1  15
BRANCH   4  19
ATOM     19  N   UNL     1       1.118   9.679  21.873  0.00  0.00    +0.000 N 
ATOM     20  C   UNL     1       1.047   8.744  20.862  0.00  0.00    +0.000 C 
ATOM     21  O   UNL     1       0.172   8.715  19.997  0.00  0.00    +0.000 OA
ATOM     22  N   UNL     1       2.062   7.795  20.942  0.00  0.00    +0.000 N 
ATOM     23  H   UNL     1       2.048   9.908  22.198  0.00  0.00    +0.000 HD
ATOM     24  H   UNL     1       2.327   7.574  21.893  0.00  0.00    +0.000 HD
BRANCH  22  25
ATOM     25  C   UNL     1       2.089   6.726  20.014  0.00  0.00    +0.000 A 
ATOM     26  C   UNL     1       2.632   6.930  18.751  0.00  0.00    +0.000 A 
ATOM     27  C   UNL     1       2.841   5.835  17.909  0.00  0.00    +0.000 A 
ATOM     28  C   UNL     1       2.450   4.542  18.293  0.00  0.00    +0.000 A 
ATOM     29 CL   UNL     1       2.834   3.267  17.196  0.00  0.00    +0.000 Cl
ATOM     30  C   UNL     1       1.808   4.335  19.515  0.00  0.00    +0.000 A 
ATOM     31  C   UNL     1       1.645   5.445  20.370  0.00  0.00    +0.000 A 
BRANCH  30  32
ATOM     32  C   UNL     1       1.275   3.011  20.000  0.00  0.00    +0.000 C 
ATOM     33  F   UNL     1       0.773   2.988  21.262  0.00  0.00    +0.000 F 
ATOM     34  F   UNL     1       0.279   2.529  19.204  0.00  0.00    +0.000 F 
ATOM     35  F   UNL     1       2.246   2.051  19.986  0.00  0.00    +0.000 F 
ENDBRANCH  30  32
ENDBRANCH  22  25
ENDBRANCH   4  19
TORSDOF 5
ENDMDL
MODEL 8
REMARK VINA RESULT:      -8.5      3.272      3.772
REMARK  Name = 
REMARK  5 active torsions:
REMARK  status: ('A' for Active; 'I' for Inactive)
REMARK    1  A    between atoms: N_1  and  C_2
REMARK    2  A    between atoms: N_10  and  C_11
REMARK    3  A    between atoms: C_14  and  N_15
REMARK    4  A    between atoms: N_18  and  C_19
REMARK    5  A    between atoms: C_24  and  C_25
REMARK                            x       y       z     vdW  Elec       q    Type
REMARK                         _______ _______ _______ _____ _____    ______ ____
ROOT
ATOM      1  C   UNL     1       2.448   6.886  19.280  0.00  0.00    +0.000 A 
ATOM      2  C   UNL     1       1.835   7.267  20.474  0.00  0.00    +0.000 A 
ATOM      3  C   UNL     1       1.235   8.522  20.592  0.00  0.00    +0.000 A 
ATOM      4  C   UNL     1       1.220   9.423  19.524  0.00  0.00    +0.000 A 
ATOM      5  C   UNL     1       1.761   9.017  18.303  0.00  0.00    +0.000 A 
ATOM      6  C   UNL     1       2.376   7.758  18.182  0.00  0.00    +0.000 A 
ENDROOT
BRANCH   1  15
ATOM      7  C   UNL     1       3.280   2.044  18.765  0.00  0.00    +0.000 A 
ATOM      8  N   UNL     1       1.999   1.627  18.829  0.00  0.00    +0.000 NA
ATOM      9  C   UNL     1       1.021   2.529  19.040  0.00  0.00    +0.000 A 
ATOM     10  C   UNL     1       1.217   3.892  19.189  0.00  0.00    +0.000 A 
ATOM     11  C   UNL     1       2.540   4.347  19.089  0.00  0.00    +0.000 A 
ATOM     12  C   UNL     1       3.580   3.417  18.917  0.00  0.00    +0.000 A 
ATOM     13  C   UNL     1       4.797   4.147  18.958  0.00  0.00    +0.000 A 
ATOM     14  C   UNL     1       4.490   5.473  19.140  0.00  0.00    +0.000 A 
ATOM     15  N   UNL     1       3.115   5.623  19.175  0.00  0.00    +0.000 N 
BRANCH   7  16
ATOM     16  N   UNL     1       4.242   1.064  18.569  0.00  0.00    +0.000 N 
ATOM     17  H   UNL     1       5.121   1.493  18.301  0.00  0.00    +0.000 HD
ATOM     18  H   UNL     1       3.941   0.268  18.027  0.00  0.00    +0.000 HD
ENDBRANCH   7  16
ENDBRANCH   1  15
BRANCH   4  19
ATOM     19  N   UNL     1       0.656  10.717  19.638  0.00  0.00    +0.000 N 
ATOM     20  C   UNL     1       0.386  11.322  20.848  0.00  0.00    +0.000 C 
ATOM     21  O   UNL     1       0.753  10.893  21.942  0.00  0.00    +0.000 OA
ATOM     22  N   UNL     1      -0.390  12.469  20.707  0.00  0.00    +0.000 N 
ATOM     23  H   UNL     1       0.746  11.337  18.845  0.00  0.00    +0.000 HD
ATOM     24  H   UNL     1      -1.056  12.409  19.949  0.00  0.00    +0.000 HD
BRANCH  22  25
ATOM     25  C   UNL     1      -0.811  13.169  21.864  0.00  0.00    +0.000 A 
ATOM     26  C   UNL     1      -0.068  14.254  22.314  0.00  0.00    +0.000 A 
ATOM     27  C   UNL     1      -0.583  15.065  23.328  0.00  0.00    +0.000 A 
ATOM     28  C   UNL     1      -1.808  14.762  23.945  0.00  0.00    +0.000 A 
ATOM     29 CL   UNL     1      -2.370  15.884  25.128  0.00  0.00    +0.000 Cl
ATOM     30  C   UNL     1      -2.517  13.617  23.577  0.00  0.00    +0.000 A 
ATOM     31  C   UNL     1      -2.002  12.835  22.521  0.00  0.00    +0.000 A 
BRANCH  30  32
ATOM     32  C   UNL     1      -3.797  13.147  24.217  0.00  0.00    +0.000 C 
ATOM     33  F   UNL     1      -4.268  11.938  23.812  0.00  0.00    +0.000 F 
ATOM     34  F   UNL     1      -3.699  13.063  25.574  0.00  0.00    +0.000 F 
ATOM     35  F   UNL     1      -4.819  14.023  23.982  0.00  0.00    +0.000 F 
ENDBRANCH  30  32
ENDBRANCH  22  25
ENDBRANCH   4  19
TORSDOF 5
ENDMDL
MODEL 9
REMARK VINA RESULT:      -8.4      2.758      3.342
REMARK  Name = 
REMARK  5 active torsions:
REMARK  status: ('A' for Active; 'I' for Inactive)
REMARK    1  A    between atoms: N_1  and  C_2
REMARK    2  A    between atoms: N_10  and  C_11
REMARK    3  A    between atoms: C_14  and  N_15
REMARK    4  A    between atoms: N_18  and  C_19
REMARK    5  A    between atoms: C_24  and  C_25
REMARK                            x       y       z     vdW  Elec       q    Type
REMARK                         _______ _______ _______ _____ _____    ______ ____
ROOT
ATOM      1  C   UNL     1       2.438   7.009  18.995  0.00  0.00    +0.000 A 
ATOM      2  C   UNL     1       1.980   7.361  20.265  0.00  0.00    +0.000 A 
ATOM      3  C   UNL     1       1.394   8.609  20.485  0.00  0.00    +0.000 A 
ATOM      4  C   UNL     1       1.239   9.531  19.446  0.00  0.00    +0.000 A 
ATOM      5  C   UNL     1       1.623   9.154  18.158  0.00  0.00    +0.000 A 
ATOM      6  C   UNL     1       2.223   7.903  17.934  0.00  0.00    +0.000 A 
ENDROOT
BRANCH   1  15
ATOM      7  C   UNL     1       3.253   2.160  18.521  0.00  0.00    +0.000 A 
ATOM      8  N   UNL     1       2.049   1.726  18.946  0.00  0.00    +0.000 NA
ATOM      9  C   UNL     1       1.135   2.622  19.365  0.00  0.00    +0.000 A 
ATOM     10  C   UNL     1       1.321   3.995  19.388  0.00  0.00    +0.000 A 
ATOM     11  C   UNL     1       2.555   4.464  18.914  0.00  0.00    +0.000 A 
ATOM     12  C   UNL     1       3.540   3.544  18.519  0.00  0.00    +0.000 A 
ATOM     13  C   UNL     1       4.701   4.295  18.196  0.00  0.00    +0.000 A 
ATOM     14  C   UNL     1       4.412   5.624  18.386  0.00  0.00    +0.000 A 
ATOM     15  N   UNL     1       3.092   5.753  18.779  0.00  0.00    +0.000 N 
BRANCH   7  16
ATOM     16  N   UNL     1       4.158   1.186  18.125  0.00  0.00    +0.000 N 
ATOM     17  H   UNL     1       4.242   1.184  17.114  0.00  0.00    +0.000 HD
ATOM     18  H   UNL     1       4.050   0.290  18.575  0.00  0.00    +0.000 HD
ENDBRANCH   7  16
ENDBRANCH   1  15
BRANCH   4  19
ATOM     19  N   UNL     1       0.689  10.819  19.658  0.00  0.00    +0.000 N 
ATOM     20  C   UNL     1      -0.499  11.035  20.327  0.00  0.00    +0.000 C 
ATOM     21  O   UNL     1      -1.116  10.172  20.951  0.00  0.00    +0.000 OA
ATOM     22  N   UNL     1      -0.956  12.342  20.188  0.00  0.00    +0.000 N 
ATOM     23  H   UNL     1       1.317  11.609  19.608  0.00  0.00    +0.000 HD
ATOM     24  H   UNL     1      -0.737  12.748  19.289  0.00  0.00    +0.000 HD
BRANCH  22  25
ATOM     25  C   UNL     1      -2.199  12.707  20.760  0.00  0.00    +0.000 A 
ATOM     26  C   UNL     1      -3.360  12.589  20.004  0.00  0.00    +0.000 A 
ATOM     27  C   UNL     1      -4.601  12.756  20.622  0.00  0.00    +0.000 A 
ATOM     28  C   UNL     1      -4.692  13.107  21.979  0.00  0.00    +0.000 A 
ATOM     29 CL   UNL     1      -6.282  13.207  22.641  0.00  0.00    +0.000 Cl
ATOM     30  C   UNL     1      -3.535  13.332  22.727  0.00  0.00    +0.000 A 
ATOM     31  C   UNL     1      -2.291  13.115  22.097  0.00  0.00    +0.000 A 
BRANCH  30  32
ATOM     32  C   UNL     1      -3.507  13.786  24.164  0.00  0.00    +0.000 C 
ATOM     33  F   UNL     1      -4.237  14.892  24.462  0.00  0.00    +0.000 F 
ATOM     34  F   UNL     1      -3.941  12.821  25.023  0.00  0.00    +0.000 F 
ATOM     35  F   UNL     1      -2.234  14.081  24.565  0.00  0.00    +0.000 F 
ENDBRANCH  30  32
ENDBRANCH  22  25
ENDBRANCH   4  19
TORSDOF 5
ENDMDL
