MODEL 1
REMARK VINA RESULT:      -6.6      0.000      0.000
REMARK  Name = 
REMARK  7 active torsions:
REMARK  status: ('A' for Active; 'I' for Inactive)
REMARK    1  A    between atoms: C_1  and  C_2
REMARK    2  A    between atoms: C_7  and  C_8
REMARK    3  A    between atoms: C_9  and  C_10
REMARK    4  A    between atoms: N_12  and  C_13
REMARK    5  A    between atoms: C_13  and  C_14
REMARK    6  A    between atoms: C_14  and  C_15
REMARK    7  A    between atoms: C_14  and  O_16
REMARK                            x       y       z     vdW  Elec       q    Type
REMARK                         _______ _______ _______ _____ _____    ______ ____
ROOT
ATOM      1  C   UNL     1       4.116   4.473  17.059  0.00  0.00    +0.000 C 
ATOM      2  C   UNL     1       5.453   4.392  17.188  0.00  0.00    +0.000 C 
ENDROOT
BRANCH   1   9
ATOM      3  C   UNL     1       2.368   2.128  17.798  0.00  0.00    +0.000 C 
ATOM      4  C   UNL     1       2.367   3.424  18.564  0.00  0.00    +0.000 A 
ATOM      5  C   UNL     1       1.504   3.537  19.674  0.00  0.00    +0.000 A 
ATOM      6  C   UNL     1       1.439   4.711  20.422  0.00  0.00    +0.000 A 
ATOM      7  C   UNL     1       2.223   5.797  20.065  0.00  0.00    +0.000 A 
ATOM      8  C   UNL     1       3.078   5.704  18.967  0.00  0.00    +0.000 A 
ATOM      9  C   UNL     1       3.190   4.517  18.215  0.00  0.00    +0.000 A 
ENDBRANCH   1   9
BRANCH   2  10
ATOM     10  C   UNL     1       6.364   4.421  16.016  0.00  0.00    +0.000 C 
ATOM     11  O   UNL     1       7.552   4.692  16.093  0.00  0.00    +0.000 OA
ATOM     12  N   UNL     1       5.715   4.089  14.849  0.00  0.00    +0.000 N 
ATOM     13  H   UNL     1       4.706   4.031  14.842  0.00  0.00    +0.000 HD
BRANCH  12  14
ATOM     14  C   UNL     1       6.373   4.110  13.552  0.00  0.00    +0.000 C 
BRANCH  14  15
ATOM     15  C   UNL     1       5.864   2.993  12.629  0.00  0.00    +0.000 C 
ATOM     16  C   UNL     1       4.703   3.473  11.766  0.00  0.00    +0.000 C 
BRANCH  15  17
ATOM     17  O   UNL     1       6.925   2.554  11.769  0.00  0.00    +0.000 OA
ATOM     18  H   UNL     1       7.484   1.937  12.271  0.00  0.00    +0.000 HD
ENDBRANCH  15  17
ENDBRANCH  14  15
ENDBRANCH  12  14
ENDBRANCH   2  10
TORSDOF 5
ENDMDL
MODEL 2
REMARK VINA RESULT:      -6.6      1.892      2.332
REMARK  Name = 
REMARK  7 active torsions:
REMARK  status: ('A' for Active; 'I' for Inactive)
REMARK    1  A    between atoms: C_1  and  C_2
REMARK    2  A    between atoms: C_7  and  C_8
REMARK    3  A    between atoms: C_9  and  C_10
REMARK    4  A    between atoms: N_12  and  C_13
REMARK    5  A    between atoms: C_13  and  C_14
REMARK    6  A    between atoms: C_14  and  C_15
REMARK    7  A    between atoms: C_14  and  O_16
REMARK                            x       y       z     vdW  Elec       q    Type
REMARK                         _______ _______ _______ _____ _____    ______ ____
ROOT
ATOM      1  C   UNL     1       4.553   3.500  18.650  0.00  0.00    +0.000 C 
ATOM      2  C   UNL     1       5.477   4.458  18.855  0.00  0.00    +0.000 C 
ENDROOT
BRANCH   1   9
ATOM      3  C   UNL     1       1.878   4.565  17.753  0.00  0.00    +0.000 C 
ATOM      4  C   UNL     1       2.079   3.857  19.066  0.00  0.00    +0.000 A 
ATOM      5  C   UNL     1       0.959   3.692  19.908  0.00  0.00    +0.000 A 
ATOM      6  C   UNL     1       1.072   3.058  21.144  0.00  0.00    +0.000 A 
ATOM      7  C   UNL     1       2.308   2.593  21.567  0.00  0.00    +0.000 A 
ATOM      8  C   UNL     1       3.426   2.753  20.748  0.00  0.00    +0.000 A 
ATOM      9  C   UNL     1       3.333   3.357  19.479  0.00  0.00    +0.000 A 
ENDBRANCH   1   9
BRANCH   2  10
ATOM     10  C   UNL     1       6.654   4.625  17.967  0.00  0.00    +0.000 C 
ATOM     11  O   UNL     1       7.795   4.760  18.380  0.00  0.00    +0.000 OA
ATOM     12  N   UNL     1       6.306   4.591  16.636  0.00  0.00    +0.000 N 
ATOM     13  H   UNL     1       5.330   4.634  16.378  0.00  0.00    +0.000 HD
BRANCH  12  14
ATOM     14  C   UNL     1       7.270   4.800  15.568  0.00  0.00    +0.000 C 
BRANCH  14  15
ATOM     15  C   UNL     1       6.628   4.666  14.178  0.00  0.00    +0.000 C 
ATOM     16  C   UNL     1       7.586   5.110  13.080  0.00  0.00    +0.000 C 
BRANCH  15  17
ATOM     17  O   UNL     1       6.264   3.298  13.944  0.00  0.00    +0.000 OA
ATOM     18  H   UNL     1       5.478   3.289  13.372  0.00  0.00    +0.000 HD
ENDBRANCH  15  17
ENDBRANCH  14  15
ENDBRANCH  12  14
ENDBRANCH   2  10
TORSDOF 5
ENDMDL
MODEL 3
REMARK VINA RESULT:      -6.5      0.968      1.043
REMARK  Name = 
REMARK  7 active torsions:
REMARK  status: ('A' for Active; 'I' for Inactive)
REMARK    1  A    between atoms: C_1  and  C_2
REMARK    2  A    between atoms: C_7  and  C_8
REMARK    3  A    between atoms: C_9  and  C_10
REMARK    4  A    between atoms: N_12  and  C_13
REMARK    5  A    between atoms: C_13  and  C_14
REMARK    6  A    between atoms: C_14  and  C_15
REMARK    7  A    between atoms: C_14  and  O_16
REMARK                            x       y       z     vdW  Elec       q    Type
REMARK                         _______ _______ _______ _____ _____    ______ ____
ROOT
ATOM      1  C   UNL     1       4.622   4.528  16.457  0.00  0.00    +0.000 C 
ATOM      2  C   UNL     1       5.882   4.958  16.262  0.00  0.00    +0.000 C 
ENDROOT
BRANCH   1   9
ATOM      3  C   UNL     1       3.380   2.242  17.984  0.00  0.00    +0.000 C 
ATOM      4  C   UNL     1       3.292   3.675  18.438  0.00  0.00    +0.000 A 
ATOM      5  C   UNL     1       2.592   3.948  19.632  0.00  0.00    +0.000 A 
ATOM      6  C   UNL     1       2.458   5.251  20.108  0.00  0.00    +0.000 A 
ATOM      7  C   UNL     1       3.005   6.304  19.391  0.00  0.00    +0.000 A 
ATOM      8  C   UNL     1       3.696   6.051  18.206  0.00  0.00    +0.000 A 
ATOM      9  C   UNL     1       3.878   4.740  17.721  0.00  0.00    +0.000 A 
ENDBRANCH   1   9
BRANCH   2  10
ATOM     10  C   UNL     1       6.581   4.797  14.962  0.00  0.00    +0.000 C 
ATOM     11  O   UNL     1       7.625   5.365  14.684  0.00  0.00    +0.000 OA
ATOM     12  N   UNL     1       5.923   3.923  14.127  0.00  0.00    +0.000 N 
ATOM     13  H   UNL     1       4.989   3.618  14.365  0.00  0.00    +0.000 HD
BRANCH  12  14
ATOM     14  C   UNL     1       6.370   3.649  12.770  0.00  0.00    +0.000 C 
BRANCH  14  15
ATOM     15  C   UNL     1       5.523   2.558  12.096  0.00  0.00    +0.000 C 
ATOM     16  C   UNL     1       4.437   3.164  11.216  0.00  0.00    +0.000 C 
BRANCH  15  17
ATOM     17  O   UNL     1       6.364   1.728  11.281  0.00  0.00    +0.000 OA
ATOM     18  H   UNL     1       6.067   1.812  10.359  0.00  0.00    +0.000 HD
ENDBRANCH  15  17
ENDBRANCH  14  15
ENDBRANCH  12  14
ENDBRANCH   2  10
TORSDOF 5
ENDMDL
MODEL 4
REMARK VINA RESULT:      -6.4      1.068      2.050
REMARK  Name = 
REMARK  7 active torsions:
REMARK  status: ('A' for Active; 'I' for Inactive)
REMARK    1  A    between atoms: C_1  and  C_2
REMARK    2  A    between atoms: C_7  and  C_8
REMARK    3  A    between atoms: C_9  and  C_10
REMARK    4  A    between atoms: N_12  and  C_13
REMARK    5  A    between atoms: C_13  and  C_14
REMARK    6  A    between atoms: C_14  and  C_15
REMARK    7  A    between atoms: C_14  and  O_16
REMARK                            x       y       z     vdW  Elec       q    Type
REMARK                         _______ _______ _______ _____ _____    ______ ____
ROOT
ATOM      1  C   UNL     1       3.348   4.960  17.333  0.00  0.00    +0.000 C 
ATOM      2  C   UNL     1       4.508   4.410  16.927  0.00  0.00    +0.000 C 
ENDROOT
BRANCH   1   9
ATOM      3  C   UNL     1       2.528   6.484  19.803  0.00  0.00    +0.000 C 
ATOM      4  C   UNL     1       2.101   5.066  19.536  0.00  0.00    +0.000 A 
ATOM      5  C   UNL     1       1.282   4.430  20.492  0.00  0.00    +0.000 A 
ATOM      6  C   UNL     1       0.858   3.114  20.319  0.00  0.00    +0.000 A 
ATOM      7  C   UNL     1       1.258   2.405  19.197  0.00  0.00    +0.000 A 
ATOM      8  C   UNL     1       2.072   3.018  18.244  0.00  0.00    +0.000 A 
ATOM      9  C   UNL     1       2.485   4.359  18.376  0.00  0.00    +0.000 A 
ENDBRANCH   1   9
BRANCH   2  10
ATOM     10  C   UNL     1       5.391   5.069  15.932  0.00  0.00    +0.000 C 
ATOM     11  O   UNL     1       5.687   6.252  15.973  0.00  0.00    +0.000 OA
ATOM     12  N   UNL     1       5.844   4.185  14.979  0.00  0.00    +0.000 N 
ATOM     13  H   UNL     1       5.432   3.264  14.922  0.00  0.00    +0.000 HD
BRANCH  12  14
ATOM     14  C   UNL     1       6.670   4.598  13.856  0.00  0.00    +0.000 C 
BRANCH  14  15
ATOM     15  C   UNL     1       6.546   3.634  12.665  0.00  0.00    +0.000 C 
ATOM     16  C   UNL     1       5.090   3.446  12.255  0.00  0.00    +0.000 C 
BRANCH  15  17
ATOM     17  O   UNL     1       7.275   4.154  11.544  0.00  0.00    +0.000 OA
ATOM     18  H   UNL     1       7.421   3.427  10.916  0.00  0.00    +0.000 HD
ENDBRANCH  15  17
ENDBRANCH  14  15
ENDBRANCH  12  14
ENDBRANCH   2  10
TORSDOF 5
ENDMDL
MODEL 5
REMARK VINA RESULT:      -6.4      1.543      1.714
REMARK  Name = 
REMARK  7 active torsions:
REMARK  status: ('A' for Active; 'I' for Inactive)
REMARK    1  A    between atoms: C_1  and  C_2
REMARK    2  A    between atoms: C_7  and  C_8
REMARK    3  A    between atoms: C_9  and  C_10
REMARK    4  A    between atoms: N_12  and  C_13
REMARK    5  A    between atoms: C_13  and  C_14
REMARK    6  A    between atoms: C_14  and  C_15
REMARK    7  A    between atoms: C_14  and  O_16
REMARK                            x       y       z     vdW  Elec       q    Type
REMARK                         _______ _______ _______ _____ _____    ______ ____
ROOT
ATOM      1  C   UNL     1       3.983   4.337  17.545  0.00  0.00    +0.000 C 
ATOM      2  C   UNL     1       4.285   5.595  17.175  0.00  0.00    +0.000 C 
ENDROOT
BRANCH   1   9
ATOM      3  C   UNL     1       3.406   1.498  18.384  0.00  0.00    +0.000 C 
ATOM      4  C   UNL     1       2.732   2.690  19.010  0.00  0.00    +0.000 A 
ATOM      5  C   UNL     1       1.789   2.456  20.032  0.00  0.00    +0.000 A 
ATOM      6  C   UNL     1       1.116   3.509  20.648  0.00  0.00    +0.000 A 
ATOM      7  C   UNL     1       1.362   4.812  20.243  0.00  0.00    +0.000 A 
ATOM      8  C   UNL     1       2.289   5.060  19.230  0.00  0.00    +0.000 A 
ATOM      9  C   UNL     1       3.009   4.017  18.615  0.00  0.00    +0.000 A 
ENDBRANCH   1   9
BRANCH   2  10
ATOM     10  C   UNL     1       5.210   5.890  16.052  0.00  0.00    +0.000 C 
ATOM     11  O   UNL     1       5.167   6.919  15.397  0.00  0.00    +0.000 OA
ATOM     12  N   UNL     1       6.123   4.879  15.856  0.00  0.00    +0.000 N 
ATOM     13  H   UNL     1       5.995   3.997  16.332  0.00  0.00    +0.000 HD
BRANCH  12  14
ATOM     14  C   UNL     1       7.093   4.898  14.773  0.00  0.00    +0.000 C 
BRANCH  14  15
ATOM     15  C   UNL     1       6.484   4.419  13.446  0.00  0.00    +0.000 C 
ATOM     16  C   UNL     1       7.414   4.706  12.274  0.00  0.00    +0.000 C 
BRANCH  15  17
ATOM     17  O   UNL     1       6.245   3.005  13.506  0.00  0.00    +0.000 OA
ATOM     18  H   UNL     1       6.929   2.607  14.070  0.00  0.00    +0.000 HD
ENDBRANCH  15  17
ENDBRANCH  14  15
ENDBRANCH  12  14
ENDBRANCH   2  10
TORSDOF 5
ENDMDL
MODEL 6
REMARK VINA RESULT:      -6.4      0.962      1.793
REMARK  Name = 
REMARK  7 active torsions:
REMARK  status: ('A' for Active; 'I' for Inactive)
REMARK    1  A    between atoms: C_1  and  C_2
REMARK    2  A    between atoms: C_7  and  C_8
REMARK    3  A    between atoms: C_9  and  C_10
REMARK    4  A    between atoms: N_12  and  C_13
REMARK    5  A    between atoms: C_13  and  C_14
REMARK    6  A    between atoms: C_14  and  C_15
REMARK    7  A    between atoms: C_14  and  O_16
REMARK                            x       y       z     vdW  Elec       q    Type
REMARK                         _______ _______ _______ _____ _____    ______ ____
ROOT
ATOM      1  C   UNL     1       4.525   4.264  16.914  0.00  0.00    +0.000 C 
ATOM      2  C   UNL     1       5.833   4.561  16.805  0.00  0.00    +0.000 C 
ENDROOT
BRANCH   1   9
ATOM      3  C   UNL     1       3.094   6.672  18.031  0.00  0.00    +0.000 C 
ATOM      4  C   UNL     1       3.138   5.344  18.739  0.00  0.00    +0.000 A 
ATOM      5  C   UNL     1       2.479   5.234  19.981  0.00  0.00    +0.000 A 
ATOM      6  C   UNL     1       2.489   4.040  20.700  0.00  0.00    +0.000 A 
ATOM      7  C   UNL     1       3.170   2.942  20.199  0.00  0.00    +0.000 A 
ATOM      8  C   UNL     1       3.831   3.036  18.973  0.00  0.00    +0.000 A 
ATOM      9  C   UNL     1       3.807   4.219  18.209  0.00  0.00    +0.000 A 
ENDBRANCH   1   9
BRANCH   2  10
ATOM     10  C   UNL     1       6.514   4.669  15.490  0.00  0.00    +0.000 C 
ATOM     11  O   UNL     1       7.492   5.374  15.294  0.00  0.00    +0.000 OA
ATOM     12  N   UNL     1       5.925   3.872  14.536  0.00  0.00    +0.000 N 
ATOM     13  H   UNL     1       5.031   3.442  14.732  0.00  0.00    +0.000 HD
BRANCH  12  14
ATOM     14  C   UNL     1       6.364   3.852  13.150  0.00  0.00    +0.000 C 
BRANCH  14  15
ATOM     15  C   UNL     1       5.675   2.741  12.344  0.00  0.00    +0.000 C 
ATOM     16  C   UNL     1       4.564   3.302  11.464  0.00  0.00    +0.000 C 
BRANCH  15  17
ATOM     17  O   UNL     1       6.637   2.084  11.505  0.00  0.00    +0.000 OA
ATOM     18  H   UNL     1       6.347   2.181  10.582  0.00  0.00    +0.000 HD
ENDBRANCH  15  17
ENDBRANCH  14  15
ENDBRANCH  12  14
ENDBRANCH   2  10
TORSDOF 5
ENDMDL
MODEL 7
REMARK VINA RESULT:      -6.3      6.596      8.427
REMARK  Name = 
REMARK  7 active torsions:
REMARK  status: ('A' for Active; 'I' for Inactive)
REMARK    1  A    between atoms: C_1  and  C_2
REMARK    2  A    between atoms: C_7  and  C_8
REMARK    3  A    between atoms: C_9  and  C_10
REMARK    4  A    between atoms: N_12  and  C_13
REMARK    5  A    between atoms: C_13  and  C_14
REMARK    6  A    between atoms: C_14  and  C_15
REMARK    7  A    between atoms: C_14  and  O_16
REMARK                            x       y       z     vdW  Elec       q    Type
REMARK                         _______ _______ _______ _____ _____    ______ ____
ROOT
ATOM      1  C   UNL     1       8.559   9.939  18.376  0.00  0.00    +0.000 C 
ATOM      2  C   UNL     1       8.707   8.622  18.144  0.00  0.00    +0.000 C 
ENDROOT
BRANCH   1   9
ATOM      3  C   UNL     1       8.986  10.911  21.199  0.00  0.00    +0.000 C 
ATOM      4  C   UNL     1       9.888  11.293  20.056  0.00  0.00    +0.000 A 
ATOM      5  C   UNL     1      10.977  12.146  20.329  0.00  0.00    +0.000 A 
ATOM      6  C   UNL     1      11.847  12.552  19.318  0.00  0.00    +0.000 A 
ATOM      7  C   UNL     1      11.634  12.127  18.016  0.00  0.00    +0.000 A 
ATOM      8  C   UNL     1      10.558  11.287  17.729  0.00  0.00    +0.000 A 
ATOM      9  C   UNL     1       9.685  10.832  18.737  0.00  0.00    +0.000 A 
ENDBRANCH   1   9
BRANCH   2  10
ATOM     10  C   UNL     1       7.576   7.761  17.713  0.00  0.00    +0.000 C 
ATOM     11  O   UNL     1       6.794   8.070  16.828  0.00  0.00    +0.000 OA
ATOM     12  N   UNL     1       7.530   6.579  18.416  0.00  0.00    +0.000 N 
ATOM     13  H   UNL     1       8.112   6.466  19.235  0.00  0.00    +0.000 HD
BRANCH  12  14
ATOM     14  C   UNL     1       6.476   5.595  18.228  0.00  0.00    +0.000 C 
BRANCH  14  15
ATOM     15  C   UNL     1       6.949   4.397  17.390  0.00  0.00    +0.000 C 
ATOM     16  C   UNL     1       6.872   4.699  15.898  0.00  0.00    +0.000 C 
BRANCH  15  17
ATOM     17  O   UNL     1       8.308   4.080  17.725  0.00  0.00    +0.000 OA
ATOM     18  H   UNL     1       8.853   4.866  17.548  0.00  0.00    +0.000 HD
ENDBRANCH  15  17
ENDBRANCH  14  15
ENDBRANCH  12  14
ENDBRANCH   2  10
TORSDOF 5
ENDMDL
MODEL 8
REMARK VINA RESULT:      -6.3      6.642      8.245
REMARK  Name = 
REMARK  7 active torsions:
REMARK  status: ('A' for Active; 'I' for Inactive)
REMARK    1  A    between atoms: C_1  and  C_2
REMARK    2  A    between atoms: C_7  and  C_8
REMARK    3  A    between atoms: C_9  and  C_10
REMARK    4  A    between atoms: N_12  and  C_13
REMARK    5  A    between atoms: C_13  and  C_14
REMARK    6  A    between atoms: C_14  and  C_15
REMARK    7  A    between atoms: C_14  and  O_16
REMARK                            x       y       z     vdW  Elec       q    Type
REMARK                         _______ _______ _______ _____ _____    ______ ____
ROOT
ATOM      1  C   UNL     1       9.029   9.521  18.983  0.00  0.00    +0.000 C 
ATOM      2  C   UNL     1       8.409   8.975  17.921  0.00  0.00    +0.000 C 
ENDROOT
BRANCH   1   9
ATOM      3  C   UNL     1       9.043  11.277  21.435  0.00  0.00    +0.000 C 
ATOM      4  C   UNL     1       9.620  11.710  20.114  0.00  0.00    +0.000 A 
ATOM      5  C   UNL     1      10.188  12.999  20.031  0.00  0.00    +0.000 A 
ATOM      6  C   UNL     1      10.729  13.473  18.837  0.00  0.00    +0.000 A 
ATOM      7  C   UNL     1      10.698  12.676  17.704  0.00  0.00    +0.000 A 
ATOM      8  C   UNL     1      10.135  11.401  17.768  0.00  0.00    +0.000 A 
ATOM      9  C   UNL     1       9.614  10.883  18.970  0.00  0.00    +0.000 A 
ENDBRANCH   1   9
BRANCH   2  10
ATOM     10  C   UNL     1       7.768   7.637  17.980  0.00  0.00    +0.000 C 
ATOM     11  O   UNL     1       8.053   6.790  18.811  0.00  0.00    +0.000 OA
ATOM     12  N   UNL     1       6.810   7.480  17.005  0.00  0.00    +0.000 N 
ATOM     13  H   UNL     1       6.742   8.162  16.262  0.00  0.00    +0.000 HD
BRANCH  12  14
ATOM     14  C   UNL     1       6.086   6.234  16.809  0.00  0.00    +0.000 C 
BRANCH  14  15
ATOM     15  C   UNL     1       6.960   5.159  16.144  0.00  0.00    +0.000 C 
ATOM     16  C   UNL     1       6.134   3.943  15.742  0.00  0.00    +0.000 C 
BRANCH  15  17
ATOM     17  O   UNL     1       7.581   5.701  14.969  0.00  0.00    +0.000 OA
ATOM     18  H   UNL     1       7.628   4.996  14.301  0.00  0.00    +0.000 HD
ENDBRANCH  15  17
ENDBRANCH  14  15
ENDBRANCH  12  14
ENDBRANCH   2  10
TORSDOF 5
ENDMDL
MODEL 9
REMARK VINA RESULT:      -6.2      1.075      1.153
REMARK  Name = 
REMARK  7 active torsions:
REMARK  status: ('A' for Active; 'I' for Inactive)
REMARK    1  A    between atoms: C_1  and  C_2
REMARK    2  A    between atoms: C_7  and  C_8
REMARK    3  A    between atoms: C_9  and  C_10
REMARK    4  A    between atoms: N_12  and  C_13
REMARK    5  A    between atoms: C_13  and  C_14
REMARK    6  A    between atoms: C_14  and  C_15
REMARK    7  A    between atoms: C_14  and  O_16
REMARK                            x       y       z     vdW  Elec       q    Type
REMARK                         _______ _______ _______ _____ _____    ______ ____
ROOT
ATOM      1  C   UNL     1       3.389   5.020  17.439  0.00  0.00    +0.000 C 
ATOM      2  C   UNL     1       4.670   4.711  17.165  0.00  0.00    +0.000 C 
ENDROOT
BRANCH   1   9
ATOM      3  C   UNL     1       2.496   2.145  17.635  0.00  0.00    +0.000 C 
ATOM      4  C   UNL     1       2.240   3.158  18.719  0.00  0.00    +0.000 A 
ATOM      5  C   UNL     1       1.549   2.733  19.872  0.00  0.00    +0.000 A 
ATOM      6  C   UNL     1       1.265   3.618  20.911  0.00  0.00    +0.000 A 
ATOM      7  C   UNL     1       1.651   4.945  20.808  0.00  0.00    +0.000 A 
ATOM      8  C   UNL     1       2.332   5.383  19.671  0.00  0.00    +0.000 A 
ATOM      9  C   UNL     1       2.664   4.502  18.623  0.00  0.00    +0.000 A 
ENDBRANCH   1   9
BRANCH   2  10
ATOM     10  C   UNL     1       5.397   5.299  16.012  0.00  0.00    +0.000 C 
ATOM     11  O   UNL     1       5.444   6.498  15.786  0.00  0.00    +0.000 OA
ATOM     12  N   UNL     1       6.020   4.338  15.250  0.00  0.00    +0.000 N 
ATOM     13  H   UNL     1       5.806   3.363  15.409  0.00  0.00    +0.000 HD
BRANCH  12  14
ATOM     14  C   UNL     1       6.741   4.652  14.027  0.00  0.00    +0.000 C 
BRANCH  14  15
ATOM     15  C   UNL     1       6.443   3.643  12.907  0.00  0.00    +0.000 C 
ATOM     16  C   UNL     1       4.965   3.650  12.533  0.00  0.00    +0.000 C 
BRANCH  15  17
ATOM     17  O   UNL     1       7.212   3.972  11.742  0.00  0.00    +0.000 OA
ATOM     18  H   UNL     1       7.683   3.171  11.455  0.00  0.00    +0.000 HD
ENDBRANCH  15  17
ENDBRANCH  14  15
ENDBRANCH  12  14
ENDBRANCH   2  10
TORSDOF 5
ENDMDL
