MODEL 1
REMARK VINA RESULT:      -7.4      0.000      0.000
REMARK  Name = 
REMARK  8 active torsions:
REMARK  status: ('A' for Active; 'I' for Inactive)
REMARK    1  A    between atoms: C_1  and  O_2
REMARK    2  A    between atoms: O_2  and  C_3
REMARK    3  A    between atoms: C_8  and  O_9
REMARK    4  A    between atoms: O_9  and  C_10
REMARK    5  A    between atoms: C_10  and  C_11
REMARK    6  A    between atoms: C_14  and  C_15
REMARK    7  A    between atoms: N_17  and  C_18
REMARK    8  A    between atoms: C_18  and  C_19
REMARK                            x       y       z     vdW  Elec       q    Type
REMARK                         _______ _______ _______ _____ _____    ______ ____
ROOT
ATOM      1  C   UNL     1       7.963   8.645  17.981  0.00  0.00    +0.000 A 
ATOM      2  C   UNL     1       8.419   7.578  18.726  0.00  0.00    +0.000 A 
ATOM      3  C   UNL     1       7.693   6.443  18.287  0.00  0.00    +0.000 A 
ATOM      4  C   UNL     1       6.800   6.886  17.331  0.00  0.00    +0.000 A 
ATOM      5  O   UNL     1       6.954   8.238  17.155  0.00  0.00    +0.000 OA
ENDROOT
BRANCH   4   6
ATOM      6  C   UNL     1       5.825   6.173  16.530  0.00  0.00    +0.000 C 
ATOM      7  O   UNL     1       5.275   6.649  15.542  0.00  0.00    +0.000 OA
ATOM      8  N   UNL     1       5.564   4.900  16.983  0.00  0.00    +0.000 N 
ATOM      9  H   UNL     1       5.975   4.633  17.871  0.00  0.00    +0.000 HD
BRANCH   8  10
ATOM     10  C   UNL     1       4.618   4.021  16.340  0.00  0.00    +0.000 C 
BRANCH  10  11
ATOM     11  C   UNL     1       3.525   3.587  17.275  0.00  0.00    +0.000 A 
ATOM     12  C   UNL     1       2.460   4.423  17.636  0.00  0.00    +0.000 A 
ATOM     13  C   UNL     1       1.494   3.976  18.533  0.00  0.00    +0.000 A 
ATOM     14  C   UNL     1       1.633   2.706  19.063  0.00  0.00    +0.000 A 
ATOM     15  N   UNL     1       2.655   1.876  18.761  0.00  0.00    +0.000 NA
ATOM     16  C   UNL     1       3.578   2.337  17.885  0.00  0.00    +0.000 A 
ENDBRANCH  10  11
ENDBRANCH   8  10
ENDBRANCH   4   6
BRANCH   1  17
ATOM     17  C   UNL     1       8.479  10.029  17.775  0.00  0.00    +0.000 C 
BRANCH  17  18
ATOM     18  O   UNL     1       9.666  10.234  18.538  0.00  0.00    +0.000 OA
BRANCH  18  24
ATOM     19  C   UNL     1       9.992  12.686  18.972  0.00  0.00    +0.000 A 
ATOM     20  C   UNL     1       9.895  13.715  19.922  0.00  0.00    +0.000 A 
ATOM     21  C   UNL     1       9.588  13.437  21.244  0.00  0.00    +0.000 A 
ATOM     22  C   UNL     1       9.335  12.125  21.630  0.00  0.00    +0.000 A 
ATOM     23  C   UNL     1       9.366  11.098  20.679  0.00  0.00    +0.000 A 
ATOM     24  C   UNL     1       9.683  11.360  19.337  0.00  0.00    +0.000 A 
BRANCH  19  26
ATOM     25  C   UNL     1      11.713  12.890  17.366  0.00  0.00    +0.000 C 
ATOM     26  O   UNL     1      10.323  12.995  17.679  0.00  0.00    +0.000 OA
ENDBRANCH  19  26
ENDBRANCH  18  24
ENDBRANCH  17  18
ENDBRANCH   1  17
TORSDOF 7
ENDMDL
MODEL 2
REMARK VINA RESULT:      -7.3      1.530      2.468
REMARK  Name = 
REMARK  8 active torsions:
REMARK  status: ('A' for Active; 'I' for Inactive)
REMARK    1  A    between atoms: C_1  and  O_2
REMARK    2  A    between atoms: O_2  and  C_3
REMARK    3  A    between atoms: C_8  and  O_9
REMARK    4  A    between atoms: O_9  and  C_10
REMARK    5  A    between atoms: C_10  and  C_11
REMARK    6  A    between atoms: C_14  and  C_15
REMARK    7  A    between atoms: N_17  and  C_18
REMARK    8  A    between atoms: C_18  and  C_19
REMARK                            x       y       z     vdW  Elec       q    Type
REMARK                         _______ _______ _______ _____ _____    ______ ____
ROOT
ATOM      1  C   UNL     1       7.798   7.846  18.078  0.00  0.00    +0.000 A 
ATOM      2  C   UNL     1       8.381   6.863  18.851  0.00  0.00    +0.000 A 
ATOM      3  C   UNL     1       7.538   5.728  18.760  0.00  0.00    +0.000 A 
ATOM      4  C   UNL     1       6.462   6.092  17.974  0.00  0.00    +0.000 A 
ATOM      5  O   UNL     1       6.613   7.394  17.570  0.00  0.00    +0.000 OA
ENDROOT
BRANCH   4   6
ATOM      6  C   UNL     1       5.307   5.340  17.529  0.00  0.00    +0.000 C 
ATOM      7  O   UNL     1       4.489   5.763  16.716  0.00  0.00    +0.000 OA
ATOM      8  N   UNL     1       5.201   4.096  18.106  0.00  0.00    +0.000 N 
ATOM      9  H   UNL     1       5.854   3.877  18.851  0.00  0.00    +0.000 HD
BRANCH   8  10
ATOM     10  C   UNL     1       4.121   3.187  17.812  0.00  0.00    +0.000 C 
BRANCH  10  11
ATOM     11  C   UNL     1       3.127   3.109  18.936  0.00  0.00    +0.000 A 
ATOM     12  C   UNL     1       3.491   2.778  20.248  0.00  0.00    +0.000 A 
ATOM     13  C   UNL     1       2.519   2.689  21.241  0.00  0.00    +0.000 A 
ATOM     14  C   UNL     1       1.201   2.913  20.886  0.00  0.00    +0.000 A 
ATOM     15  N   UNL     1       0.803   3.211  19.631  0.00  0.00    +0.000 NA
ATOM     16  C   UNL     1       1.770   3.292  18.687  0.00  0.00    +0.000 A 
ENDBRANCH  10  11
ENDBRANCH   8  10
ENDBRANCH   4   6
BRANCH   1  17
ATOM     17  C   UNL     1       8.296   9.151  17.557  0.00  0.00    +0.000 C 
BRANCH  17  18
ATOM     18  O   UNL     1       8.174  10.161  18.556  0.00  0.00    +0.000 OA
BRANCH  18  24
ATOM     19  C   UNL     1       9.747  11.247  20.186  0.00  0.00    +0.000 A 
ATOM     20  C   UNL     1      11.011  11.833  20.358  0.00  0.00    +0.000 A 
ATOM     21  C   UNL     1      11.840  12.070  19.273  0.00  0.00    +0.000 A 
ATOM     22  C   UNL     1      11.430  11.689  18.000  0.00  0.00    +0.000 A 
ATOM     23  C   UNL     1      10.199  11.046  17.824  0.00  0.00    +0.000 A 
ATOM     24  C   UNL     1       9.344  10.805  18.910  0.00  0.00    +0.000 A 
BRANCH  19  26
ATOM     25  C   UNL     1       8.857  12.158  22.176  0.00  0.00    +0.000 C 
ATOM     26  O   UNL     1       8.944  11.050  21.278  0.00  0.00    +0.000 OA
ENDBRANCH  19  26
ENDBRANCH  18  24
ENDBRANCH  17  18
ENDBRANCH   1  17
TORSDOF 7
ENDMDL
MODEL 3
REMARK VINA RESULT:      -7.1      5.318      8.385
REMARK  Name = 
REMARK  8 active torsions:
REMARK  status: ('A' for Active; 'I' for Inactive)
REMARK    1  A    between atoms: C_1  and  O_2
REMARK    2  A    between atoms: O_2  and  C_3
REMARK    3  A    between atoms: C_8  and  O_9
REMARK    4  A    between atoms: O_9  and  C_10
REMARK    5  A    between atoms: C_10  and  C_11
REMARK    6  A    between atoms: C_14  and  C_15
REMARK    7  A    between atoms: N_17  and  C_18
REMARK    8  A    between atoms: C_18  and  C_19
REMARK                            x       y       z     vdW  Elec       q    Type
REMARK                         _______ _______ _______ _____ _____    ______ ____
ROOT
ATOM      1  C   UNL     1       2.762   5.148  18.539  0.00  0.00    +0.000 A 
ATOM      2  C   UNL     1       2.629   5.266  19.906  0.00  0.00    +0.000 A 
ATOM      3  C   UNL     1       2.248   6.607  20.158  0.00  0.00    +0.000 A 
ATOM      4  C   UNL     1       2.214   7.249  18.936  0.00  0.00    +0.000 A 
ATOM      5  O   UNL     1       2.545   6.359  17.945  0.00  0.00    +0.000 OA
ENDROOT
BRANCH   4   6
ATOM      6  C   UNL     1       1.873   8.612  18.581  0.00  0.00    +0.000 C 
ATOM      7  O   UNL     1       2.207   9.145  17.527  0.00  0.00    +0.000 OA
ATOM      8  N   UNL     1       1.138   9.265  19.542  0.00  0.00    +0.000 N 
ATOM      9  H   UNL     1       1.009   8.788  20.428  0.00  0.00    +0.000 HD
BRANCH   8  10
ATOM     10  C   UNL     1       0.702  10.633  19.398  0.00  0.00    +0.000 C 
BRANCH  10  11
ATOM     11  C   UNL     1      -0.040  11.121  20.609  0.00  0.00    +0.000 A 
ATOM     12  C   UNL     1      -0.900  12.226  20.576  0.00  0.00    +0.000 A 
ATOM     13  C   UNL     1      -1.536  12.652  21.739  0.00  0.00    +0.000 A 
ATOM     14  C   UNL     1      -1.274  11.968  22.913  0.00  0.00    +0.000 A 
ATOM     15  N   UNL     1      -0.435  10.913  22.995  0.00  0.00    +0.000 NA
ATOM     16  C   UNL     1       0.166  10.521  21.847  0.00  0.00    +0.000 A 
ENDBRANCH  10  11
ENDBRANCH   8  10
ENDBRANCH   4   6
BRANCH   1  17
ATOM     17  C   UNL     1       2.885   3.971  17.632  0.00  0.00    +0.000 C 
BRANCH  17  18
ATOM     18  O   UNL     1       4.166   3.362  17.781  0.00  0.00    +0.000 OA
BRANCH  18  24
ATOM     19  C   UNL     1       6.297   4.687  17.675  0.00  0.00    +0.000 A 
ATOM     20  C   UNL     1       7.299   5.201  16.836  0.00  0.00    +0.000 A 
ATOM     21  C   UNL     1       7.192   5.105  15.458  0.00  0.00    +0.000 A 
ATOM     22  C   UNL     1       6.095   4.460  14.897  0.00  0.00    +0.000 A 
ATOM     23  C   UNL     1       5.121   3.889  15.724  0.00  0.00    +0.000 A 
ATOM     24  C   UNL     1       5.209   3.982  17.121  0.00  0.00    +0.000 A 
BRANCH  19  26
ATOM     25  C   UNL     1       7.526   5.623  19.463  0.00  0.00    +0.000 C 
ATOM     26  O   UNL     1       6.424   4.821  19.032  0.00  0.00    +0.000 OA
ENDBRANCH  19  26
ENDBRANCH  18  24
ENDBRANCH  17  18
ENDBRANCH   1  17
TORSDOF 7
ENDMDL
MODEL 4
REMARK VINA RESULT:      -7.1      1.237      1.807
REMARK  Name = 
REMARK  8 active torsions:
REMARK  status: ('A' for Active; 'I' for Inactive)
REMARK    1  A    between atoms: C_1  and  O_2
REMARK    2  A    between atoms: O_2  and  C_3
REMARK    3  A    between atoms: C_8  and  O_9
REMARK    4  A    between atoms: O_9  and  C_10
REMARK    5  A    between atoms: C_10  and  C_11
REMARK    6  A    between atoms: C_14  and  C_15
REMARK    7  A    between atoms: N_17  and  C_18
REMARK    8  A    between atoms: C_18  and  C_19
REMARK                            x       y       z     vdW  Elec       q    Type
REMARK                         _______ _______ _______ _____ _____    ______ ____
ROOT
ATOM      1  C   UNL     1       8.080   8.669  18.079  0.00  0.00    +0.000 A 
ATOM      2  C   UNL     1       8.499   7.590  18.830  0.00  0.00    +0.000 A 
ATOM      3  C   UNL     1       7.758   6.472  18.374  0.00  0.00    +0.000 A 
ATOM      4  C   UNL     1       6.894   6.936  17.402  0.00  0.00    +0.000 A 
ATOM      5  O   UNL     1       7.079   8.284  17.233  0.00  0.00    +0.000 OA
ENDROOT
BRANCH   4   6
ATOM      6  C   UNL     1       5.920   6.246  16.580  0.00  0.00    +0.000 C 
ATOM      7  O   UNL     1       5.434   6.717  15.557  0.00  0.00    +0.000 OA
ATOM      8  N   UNL     1       5.578   5.001  17.057  0.00  0.00    +0.000 N 
ATOM      9  H   UNL     1       5.939   4.742  17.969  0.00  0.00    +0.000 HD
BRANCH   8  10
ATOM     10  C   UNL     1       4.619   4.148  16.400  0.00  0.00    +0.000 C 
BRANCH  10  11
ATOM     11  C   UNL     1       3.465   3.799  17.296  0.00  0.00    +0.000 A 
ATOM     12  C   UNL     1       3.027   2.482  17.490  0.00  0.00    +0.000 A 
ATOM     13  C   UNL     1       1.931   2.223  18.308  0.00  0.00    +0.000 A 
ATOM     14  C   UNL     1       1.287   3.298  18.895  0.00  0.00    +0.000 A 
ATOM     15  N   UNL     1       1.660   4.584  18.717  0.00  0.00    +0.000 NA
ATOM     16  C   UNL     1       2.730   4.804  17.918  0.00  0.00    +0.000 A 
ENDBRANCH  10  11
ENDBRANCH   8  10
ENDBRANCH   4   6
BRANCH   1  17
ATOM     17  C   UNL     1       8.630  10.041  17.887  0.00  0.00    +0.000 C 
BRANCH  17  18
ATOM     18  O   UNL     1       9.037  10.592  19.138  0.00  0.00    +0.000 OA
BRANCH  18  24
ATOM     19  C   UNL     1       9.546  13.047  18.990  0.00  0.00    +0.000 A 
ATOM     20  C   UNL     1      10.557  14.021  18.992  0.00  0.00    +0.000 A 
ATOM     21  C   UNL     1      11.895  13.658  18.980  0.00  0.00    +0.000 A 
ATOM     22  C   UNL     1      12.241  12.311  19.004  0.00  0.00    +0.000 A 
ATOM     23  C   UNL     1      11.243  11.333  19.066  0.00  0.00    +0.000 A 
ATOM     24  C   UNL     1       9.884  11.681  19.071  0.00  0.00    +0.000 A 
BRANCH  19  26
ATOM     25  C   UNL     1       7.902  14.415  17.984  0.00  0.00    +0.000 C 
ATOM     26  O   UNL     1       8.234  13.442  18.976  0.00  0.00    +0.000 OA
ENDBRANCH  19  26
ENDBRANCH  18  24
ENDBRANCH  17  18
ENDBRANCH   1  17
TORSDOF 7
ENDMDL
MODEL 5
REMARK VINA RESULT:      -7.1      5.789      7.895
REMARK  Name = 
REMARK  8 active torsions:
REMARK  status: ('A' for Active; 'I' for Inactive)
REMARK    1  A    between atoms: C_1  and  O_2
REMARK    2  A    between atoms: O_2  and  C_3
REMARK    3  A    between atoms: C_8  and  O_9
REMARK    4  A    between atoms: O_9  and  C_10
REMARK    5  A    between atoms: C_10  and  C_11
REMARK    6  A    between atoms: C_14  and  C_15
REMARK    7  A    between atoms: N_17  and  C_18
REMARK    8  A    between atoms: C_18  and  C_19
REMARK                            x       y       z     vdW  Elec       q    Type
REMARK                         _______ _______ _______ _____ _____    ______ ____
ROOT
ATOM      1  C   UNL     1       2.173   6.849  19.759  0.00  0.00    +0.000 A 
ATOM      2  C   UNL     1       1.662   5.921  20.643  0.00  0.00    +0.000 A 
ATOM      3  C   UNL     1       2.538   4.808  20.608  0.00  0.00    +0.000 A 
ATOM      4  C   UNL     1       3.511   5.096  19.671  0.00  0.00    +0.000 A 
ATOM      5  O   UNL     1       3.279   6.338  19.139  0.00  0.00    +0.000 OA
ENDROOT
BRANCH   4   6
ATOM      6  C   UNL     1       4.668   4.341  19.231  0.00  0.00    +0.000 C 
ATOM      7  O   UNL     1       4.930   3.207  19.620  0.00  0.00    +0.000 OA
ATOM      8  N   UNL     1       5.459   5.018  18.332  0.00  0.00    +0.000 N 
ATOM      9  H   UNL     1       5.231   5.991  18.159  0.00  0.00    +0.000 HD
BRANCH   8  10
ATOM     10  C   UNL     1       6.665   4.456  17.775  0.00  0.00    +0.000 C 
BRANCH  10  11
ATOM     11  C   UNL     1       6.673   4.510  16.274  0.00  0.00    +0.000 A 
ATOM     12  C   UNL     1       5.850   3.698  15.483  0.00  0.00    +0.000 A 
ATOM     13  C   UNL     1       5.925   3.769  14.094  0.00  0.00    +0.000 A 
ATOM     14  C   UNL     1       6.843   4.640  13.534  0.00  0.00    +0.000 A 
ATOM     15  N   UNL     1       7.672   5.422  14.259  0.00  0.00    +0.000 NA
ATOM     16  C   UNL     1       7.575   5.333  15.606  0.00  0.00    +0.000 A 
ENDBRANCH  10  11
ENDBRANCH   8  10
ENDBRANCH   4   6
BRANCH   1  17
ATOM     17  C   UNL     1       1.881   8.292  19.526  0.00  0.00    +0.000 C 
BRANCH  17  18
ATOM     18  O   UNL     1       1.047   8.802  20.564  0.00  0.00    +0.000 OA
BRANCH  18  24
ATOM     19  C   UNL     1      -0.244  10.901  21.050  0.00  0.00    +0.000 A 
ATOM     20  C   UNL     1      -1.008  11.943  20.500  0.00  0.00    +0.000 A 
ATOM     21  C   UNL     1      -1.374  11.928  19.163  0.00  0.00    +0.000 A 
ATOM     22  C   UNL     1      -0.949  10.887  18.346  0.00  0.00    +0.000 A 
ATOM     23  C   UNL     1      -0.133   9.875  18.868  0.00  0.00    +0.000 A 
ATOM     24  C   UNL     1       0.241   9.870  20.220  0.00  0.00    +0.000 A 
BRANCH  19  26
ATOM     25  C   UNL     1      -0.735  10.120  23.225  0.00  0.00    +0.000 C 
ATOM     26  O   UNL     1       0.079  10.936  22.381  0.00  0.00    +0.000 OA
ENDBRANCH  19  26
ENDBRANCH  18  24
ENDBRANCH  17  18
ENDBRANCH   1  17
TORSDOF 7
ENDMDL
MODEL 6
REMARK VINA RESULT:      -7.0      5.851      7.834
REMARK  Name = 
REMARK  8 active torsions:
REMARK  status: ('A' for Active; 'I' for Inactive)
REMARK    1  A    between atoms: C_1  and  O_2
REMARK    2  A    between atoms: O_2  and  C_3
REMARK    3  A    between atoms: C_8  and  O_9
REMARK    4  A    between atoms: O_9  and  C_10
REMARK    5  A    between atoms: C_10  and  C_11
REMARK    6  A    between atoms: C_14  and  C_15
REMARK    7  A    between atoms: N_17  and  C_18
REMARK    8  A    between atoms: C_18  and  C_19
REMARK                            x       y       z     vdW  Elec       q    Type
REMARK                         _______ _______ _______ _____ _____    ______ ____
ROOT
ATOM      1  C   UNL     1       1.635   5.468  20.557  0.00  0.00    +0.000 A 
ATOM      2  C   UNL     1       1.082   4.204  20.532  0.00  0.00    +0.000 A 
ATOM      3  C   UNL     1       2.107   3.326  20.103  0.00  0.00    +0.000 A 
ATOM      4  C   UNL     1       3.218   4.105  19.844  0.00  0.00    +0.000 A 
ATOM      5  O   UNL     1       2.924   5.419  20.106  0.00  0.00    +0.000 OA
ENDROOT
BRANCH   4   6
ATOM      6  C   UNL     1       4.551   3.751  19.401  0.00  0.00    +0.000 C 
ATOM      7  O   UNL     1       5.083   2.670  19.633  0.00  0.00    +0.000 OA
ATOM      8  N   UNL     1       5.179   4.748  18.690  0.00  0.00    +0.000 N 
ATOM      9  H   UNL     1       4.712   5.648  18.648  0.00  0.00    +0.000 HD
BRANCH   8  10
ATOM     10  C   UNL     1       6.516   4.611  18.165  0.00  0.00    +0.000 C 
BRANCH  10  11
ATOM     11  C   UNL     1       6.535   4.608  16.663  0.00  0.00    +0.000 A 
ATOM     12  C   UNL     1       5.700   3.785  15.896  0.00  0.00    +0.000 A 
ATOM     13  C   UNL     1       5.787   3.802  14.507  0.00  0.00    +0.000 A 
ATOM     14  C   UNL     1       6.728   4.632  13.922  0.00  0.00    +0.000 A 
ATOM     15  N   UNL     1       7.568   5.424  14.623  0.00  0.00    +0.000 NA
ATOM     16  C   UNL     1       7.459   5.387  15.972  0.00  0.00    +0.000 A 
ENDBRANCH  10  11
ENDBRANCH   8  10
ENDBRANCH   4   6
BRANCH   1  17
ATOM     17  C   UNL     1       1.180   6.759  21.146  0.00  0.00    +0.000 C 
BRANCH  17  18
ATOM     18  O   UNL     1       1.907   7.847  20.579  0.00  0.00    +0.000 OA
BRANCH  18  24
ATOM     19  C   UNL     1       0.187   9.668  20.748  0.00  0.00    +0.000 A 
ATOM     20  C   UNL     1      -0.445  10.728  20.078  0.00  0.00    +0.000 A 
ATOM     21  C   UNL     1      -0.206  10.964  18.734  0.00  0.00    +0.000 A 
ATOM     22  C   UNL     1       0.699  10.163  18.046  0.00  0.00    +0.000 A 
ATOM     23  C   UNL     1       1.382   9.143  18.718  0.00  0.00    +0.000 A 
ATOM     24  C   UNL     1       1.147   8.885  20.077  0.00  0.00    +0.000 A 
BRANCH  19  26
ATOM     25  C   UNL     1      -0.710  10.542  22.751  0.00  0.00    +0.000 C 
ATOM     26  O   UNL     1      -0.092   9.448  22.071  0.00  0.00    +0.000 OA
ENDBRANCH  19  26
ENDBRANCH  18  24
ENDBRANCH  17  18
ENDBRANCH   1  17
TORSDOF 7
ENDMDL
MODEL 7
REMARK VINA RESULT:      -7.0      5.649      7.537
REMARK  Name = 
REMARK  8 active torsions:
REMARK  status: ('A' for Active; 'I' for Inactive)
REMARK    1  A    between atoms: C_1  and  O_2
REMARK    2  A    between atoms: O_2  and  C_3
REMARK    3  A    between atoms: C_8  and  O_9
REMARK    4  A    between atoms: O_9  and  C_10
REMARK    5  A    between atoms: C_10  and  C_11
REMARK    6  A    between atoms: C_14  and  C_15
REMARK    7  A    between atoms: N_17  and  C_18
REMARK    8  A    between atoms: C_18  and  C_19
REMARK                            x       y       z     vdW  Elec       q    Type
REMARK                         _______ _______ _______ _____ _____    ______ ____
ROOT
ATOM      1  C   UNL     1       1.791   5.699  20.518  0.00  0.00    +0.000 A 
ATOM      2  C   UNL     1       1.144   4.494  20.341  0.00  0.00    +0.000 A 
ATOM      3  C   UNL     1       2.117   3.581  19.867  0.00  0.00    +0.000 A 
ATOM      4  C   UNL     1       3.296   4.288  19.736  0.00  0.00    +0.000 A 
ATOM      5  O   UNL     1       3.093   5.589  20.119  0.00  0.00    +0.000 OA
ENDROOT
BRANCH   4   6
ATOM      6  C   UNL     1       4.619   3.871  19.314  0.00  0.00    +0.000 C 
ATOM      7  O   UNL     1       5.144   2.816  19.659  0.00  0.00    +0.000 OA
ATOM      8  N   UNL     1       5.245   4.774  18.486  0.00  0.00    +0.000 N 
ATOM      9  H   UNL     1       4.785   5.669  18.350  0.00  0.00    +0.000 HD
BRANCH   8  10
ATOM     10  C   UNL     1       6.571   4.564  17.959  0.00  0.00    +0.000 C 
BRANCH  10  11
ATOM     11  C   UNL     1       6.591   4.580  16.457  0.00  0.00    +0.000 A 
ATOM     12  C   UNL     1       5.765   3.758  15.679  0.00  0.00    +0.000 A 
ATOM     13  C   UNL     1       5.853   3.794  14.290  0.00  0.00    +0.000 A 
ATOM     14  C   UNL     1       6.785   4.641  13.717  0.00  0.00    +0.000 A 
ATOM     15  N   UNL     1       7.616   5.433  14.428  0.00  0.00    +0.000 NA
ATOM     16  C   UNL     1       7.507   5.377  15.777  0.00  0.00    +0.000 A 
ENDBRANCH  10  11
ENDBRANCH   8  10
ENDBRANCH   4   6
BRANCH   1  17
ATOM     17  C   UNL     1       1.410   6.959  21.218  0.00  0.00    +0.000 C 
BRANCH  17  18
ATOM     18  O   UNL     1       1.365   8.045  20.294  0.00  0.00    +0.000 OA
BRANCH  18  24
ATOM     19  C   UNL     1       0.392  10.340  19.992  0.00  0.00    +0.000 A 
ATOM     20  C   UNL     1      -0.351  11.370  20.591  0.00  0.00    +0.000 A 
ATOM     21  C   UNL     1      -0.712  11.302  21.927  0.00  0.00    +0.000 A 
ATOM     22  C   UNL     1      -0.366  10.183  22.676  0.00  0.00    +0.000 A 
ATOM     23  C   UNL     1       0.319   9.122  22.073  0.00  0.00    +0.000 A 
ATOM     24  C   UNL     1       0.699   9.176  20.724  0.00  0.00    +0.000 A 
BRANCH  19  26
ATOM     25  C   UNL     1       1.898  11.269  18.426  0.00  0.00    +0.000 C 
ATOM     26  O   UNL     1       0.753  10.452  18.675  0.00  0.00    +0.000 OA
ENDBRANCH  19  26
ENDBRANCH  18  24
ENDBRANCH  17  18
ENDBRANCH   1  17
TORSDOF 7
ENDMDL
MODEL 8
REMARK VINA RESULT:      -6.9      6.159      7.682
REMARK  Name = 
REMARK  8 active torsions:
REMARK  status: ('A' for Active; 'I' for Inactive)
REMARK    1  A    between atoms: C_1  and  O_2
REMARK    2  A    between atoms: O_2  and  C_3
REMARK    3  A    between atoms: C_8  and  O_9
REMARK    4  A    between atoms: O_9  and  C_10
REMARK    5  A    between atoms: C_10  and  C_11
REMARK    6  A    between atoms: C_14  and  C_15
REMARK    7  A    between atoms: N_17  and  C_18
REMARK    8  A    between atoms: C_18  and  C_19
REMARK                            x       y       z     vdW  Elec       q    Type
REMARK                         _______ _______ _______ _____ _____    ______ ____
ROOT
ATOM      1  C   UNL     1       1.378   8.946  19.808  0.00  0.00    +0.000 A 
ATOM      2  C   UNL     1       1.465   9.494  18.545  0.00  0.00    +0.000 A 
ATOM      3  C   UNL     1       2.063   8.509  17.721  0.00  0.00    +0.000 A 
ATOM      4  C   UNL     1       2.351   7.430  18.533  0.00  0.00    +0.000 A 
ATOM      5  O   UNL     1       1.947   7.704  19.815  0.00  0.00    +0.000 OA
ENDROOT
BRANCH   4   6
ATOM      6  C   UNL     1       2.945   6.142  18.236  0.00  0.00    +0.000 C 
ATOM      7  O   UNL     1       2.310   5.180  17.815  0.00  0.00    +0.000 OA
ATOM      8  N   UNL     1       4.299   6.089  18.476  0.00  0.00    +0.000 N 
ATOM      9  H   UNL     1       4.717   6.892  18.933  0.00  0.00    +0.000 HD
BRANCH   8  10
ATOM     10  C   UNL     1       5.085   4.900  18.259  0.00  0.00    +0.000 C 
BRANCH  10  11
ATOM     11  C   UNL     1       5.703   4.872  16.890  0.00  0.00    +0.000 A 
ATOM     12  C   UNL     1       5.179   4.110  15.838  0.00  0.00    +0.000 A 
ATOM     13  C   UNL     1       5.814   4.098  14.599  0.00  0.00    +0.000 A 
ATOM     14  C   UNL     1       6.975   4.837  14.455  0.00  0.00    +0.000 A 
ATOM     15  N   UNL     1       7.528   5.567  15.448  0.00  0.00    +0.000 NA
ATOM     16  C   UNL     1       6.886   5.560  16.640  0.00  0.00    +0.000 A 
ENDBRANCH  10  11
ENDBRANCH   8  10
ENDBRANCH   4   6
BRANCH   1  17
ATOM     17  C   UNL     1       0.636   9.350  21.037  0.00  0.00    +0.000 C 
BRANCH  17  18
ATOM     18  O   UNL     1      -0.484  10.163  20.695  0.00  0.00    +0.000 OA
BRANCH  18  24
ATOM     19  C   UNL     1       0.062  12.609  20.850  0.00  0.00    +0.000 A 
ATOM     20  C   UNL     1      -0.150  13.798  21.566  0.00  0.00    +0.000 A 
ATOM     21  C   UNL     1      -0.861  13.796  22.756  0.00  0.00    +0.000 A 
ATOM     22  C   UNL     1      -1.404  12.607  23.230  0.00  0.00    +0.000 A 
ATOM     23  C   UNL     1      -1.253  11.426  22.492  0.00  0.00    +0.000 A 
ATOM     24  C   UNL     1      -0.531  11.409  21.290  0.00  0.00    +0.000 A 
BRANCH  19  26
ATOM     25  C   UNL     1       0.076  13.093  18.537  0.00  0.00    +0.000 C 
ATOM     26  O   UNL     1       0.790  12.645  19.691  0.00  0.00    +0.000 OA
ENDBRANCH  19  26
ENDBRANCH  18  24
ENDBRANCH  17  18
ENDBRANCH   1  17
TORSDOF 7
ENDMDL
MODEL 9
REMARK VINA RESULT:      -6.9      5.243      8.061
REMARK  Name = 
REMARK  8 active torsions:
REMARK  status: ('A' for Active; 'I' for Inactive)
REMARK    1  A    between atoms: C_1  and  O_2
REMARK    2  A    between atoms: O_2  and  C_3
REMARK    3  A    between atoms: C_8  and  O_9
REMARK    4  A    between atoms: O_9  and  C_10
REMARK    5  A    between atoms: C_10  and  C_11
REMARK    6  A    between atoms: C_14  and  C_15
REMARK    7  A    between atoms: N_17  and  C_18
REMARK    8  A    between atoms: C_18  and  C_19
REMARK                            x       y       z     vdW  Elec       q    Type
REMARK                         _______ _______ _______ _____ _____    ______ ____
ROOT
ATOM      1  C   UNL     1       3.668   5.263  19.716  0.00  0.00    +0.000 A 
ATOM      2  C   UNL     1       2.453   5.139  20.357  0.00  0.00    +0.000 A 
ATOM      3  C   UNL     1       1.673   6.253  19.958  0.00  0.00    +0.000 A 
ATOM      4  C   UNL     1       2.469   7.022  19.132  0.00  0.00    +0.000 A 
ATOM      5  O   UNL     1       3.697   6.424  18.997  0.00  0.00    +0.000 OA
ENDROOT
BRANCH   4   6
ATOM      6  C   UNL     1       2.198   8.255  18.421  0.00  0.00    +0.000 C 
ATOM      7  O   UNL     1       2.611   8.495  17.290  0.00  0.00    +0.000 OA
ATOM      8  N   UNL     1       1.432   9.147  19.135  0.00  0.00    +0.000 N 
ATOM      9  H   UNL     1       1.236   8.914  20.103  0.00  0.00    +0.000 HD
BRANCH   8  10
ATOM     10  C   UNL     1       1.054  10.440  18.620  0.00  0.00    +0.000 C 
BRANCH  10  11
ATOM     11  C   UNL     1      -0.434  10.576  18.470  0.00  0.00    +0.000 A 
ATOM     12  C   UNL     1      -1.177   9.813  17.559  0.00  0.00    +0.000 A 
ATOM     13  C   UNL     1      -2.550  10.007  17.442  0.00  0.00    +0.000 A 
ATOM     14  C   UNL     1      -3.141  10.980  18.228  0.00  0.00    +0.000 A 
ATOM     15  N   UNL     1      -2.461  11.754  19.100  0.00  0.00    +0.000 NA
ATOM     16  C   UNL     1      -1.127  11.541  19.194  0.00  0.00    +0.000 A 
ENDBRANCH  10  11
ENDBRANCH   8  10
ENDBRANCH   4   6
BRANCH   1  17
ATOM     17  C   UNL     1       4.803   4.319  19.509  0.00  0.00    +0.000 C 
BRANCH  17  18
ATOM     18  O   UNL     1       4.661   3.637  18.265  0.00  0.00    +0.000 OA
BRANCH  18  24
ATOM     19  C   UNL     1       6.801   4.511  17.285  0.00  0.00    +0.000 A 
ATOM     20  C   UNL     1       7.465   4.886  16.106  0.00  0.00    +0.000 A 
ATOM     21  C   UNL     1       6.792   4.940  14.896  0.00  0.00    +0.000 A 
ATOM     22  C   UNL     1       5.450   4.582  14.841  0.00  0.00    +0.000 A 
ATOM     23  C   UNL     1       4.793   4.145  15.998  0.00  0.00    +0.000 A 
ATOM     24  C   UNL     1       5.457   4.092  17.232  0.00  0.00    +0.000 A 
BRANCH  19  26
ATOM     25  C   UNL     1       7.931   5.771  18.935  0.00  0.00    +0.000 C 
ATOM     26  O   UNL     1       7.492   4.493  18.468  0.00  0.00    +0.000 OA
ENDBRANCH  19  26
ENDBRANCH  18  24
ENDBRANCH  17  18
ENDBRANCH   1  17
TORSDOF 7
ENDMDL
