MODEL 1
REMARK VINA RESULT:      -7.5      0.000      0.000
REMARK  Name = 
REMARK  10 active torsions:
REMARK  status: ('A' for Active; 'I' for Inactive)
REMARK    1  A    between atoms: C_1  and  O_2
REMARK    2  A    between atoms: O_2  and  C_3
REMARK    3  A    between atoms: C_14  and  O_16
REMARK    4  A    between atoms: O_16  and  C_17
REMARK    5  A    between atoms: C_17  and  C_18
REMARK    6  A    between atoms: C_18  and  C_19
REMARK    7  A    between atoms: C_18  and  C_20
REMARK    8  A    between atoms: C_18  and  O_21
REMARK    9  A    between atoms: C_26  and  O_27
REMARK   10  A    between atoms: O_27  and  C_28
REMARK                            x       y       z     vdW  Elec       q    Type
REMARK                         _______ _______ _______ _____ _____    ______ ____
ROOT
ATOM      1  C   UNL     1       6.410   4.903  16.367  0.00  0.00    +0.000 A 
ATOM      2  C   UNL     1       5.757   3.721  16.779  0.00  0.00    +0.000 A 
ATOM      3  C   UNL     1       4.579   3.733  17.528  0.00  0.00    +0.000 A 
ATOM      4  N   UNL     1       3.959   2.585  17.822  0.00  0.00    +0.000 NA
ATOM      5  C   UNL     1       2.816   2.688  18.522  0.00  0.00    +0.000 A 
ATOM      6  N   UNL     1       2.225   3.814  18.925  0.00  0.00    +0.000 NA
ATOM      7  C   UNL     1       2.843   4.967  18.605  0.00  0.00    +0.000 A 
ATOM      8  N   UNL     1       2.261   6.163  18.985  0.00  0.00    +0.000 N 
ATOM      9  C   UNL     1       1.432   6.234  20.189  0.00  0.00    +0.000 C 
ATOM     10  C   UNL     1       1.699   7.612  20.843  0.00  0.00    +0.000 C 
ATOM     11  N   UNL     1       1.536   8.722  19.889  0.00  0.00    +0.000 N 
ATOM     12  C   UNL     1       0.872   9.869  20.262  0.00  0.00    +0.000 C 
ATOM     13  O   UNL     1       0.372  10.044  21.362  0.00  0.00    +0.000 OA
ATOM     14  C   UNL     1       2.204   8.565  18.590  0.00  0.00    +0.000 C 
ATOM     15  C   UNL     1       1.915   7.180  17.977  0.00  0.00    +0.000 C 
ATOM     16  C   UNL     1       4.077   4.966  17.929  0.00  0.00    +0.000 A 
ATOM     17  C   UNL     1       4.832   6.126  17.665  0.00  0.00    +0.000 A 
ATOM     18  C   UNL     1       5.956   6.128  16.852  0.00  0.00    +0.000 A 
ENDROOT
BRANCH   1  20
ATOM     19  C   UNL     1       7.187   4.909  14.135  0.00  0.00    +0.000 C 
ATOM     20  O   UNL     1       7.490   4.879  15.530  0.00  0.00    +0.000 OA
ENDBRANCH   1  20
BRANCH  18  21
ATOM     21  O   UNL     1       6.408   7.395  16.655  0.00  0.00    +0.000 OA
ATOM     22  C   UNL     1       7.493   7.890  17.413  0.00  0.00    +0.000 C 
ENDBRANCH  18  21
BRANCH  12  23
ATOM     23  O   UNL     1       0.786  10.758  19.238  0.00  0.00    +0.000 OA
BRANCH  23  24
ATOM     24  C   UNL     1      -0.217  11.767  19.364  0.00  0.00    +0.000 C 
BRANCH  24  25
ATOM     25  C   UNL     1      -1.371  11.612  18.357  0.00  0.00    +0.000 C 
ATOM     26  C   UNL     1      -1.373  10.236  17.691  0.00  0.00    +0.000 C 
ATOM     27  C   UNL     1      -2.725  11.874  19.018  0.00  0.00    +0.000 C 
BRANCH  25  28
ATOM     28  O   UNL     1      -1.205  12.603  17.331  0.00  0.00    +0.000 OA
ATOM     29  H   UNL     1      -1.996  12.578  16.764  0.00  0.00    +0.000 HD
ENDBRANCH  25  28
ENDBRANCH  24  25
ENDBRANCH  23  24
ENDBRANCH  12  23
TORSDOF 6
ENDMDL
MODEL 2
REMARK VINA RESULT:      -7.2      1.045      1.127
REMARK  Name = 
REMARK  10 active torsions:
REMARK  status: ('A' for Active; 'I' for Inactive)
REMARK    1  A    between atoms: C_1  and  O_2
REMARK    2  A    between atoms: O_2  and  C_3
REMARK    3  A    between atoms: C_14  and  O_16
REMARK    4  A    between atoms: O_16  and  C_17
REMARK    5  A    between atoms: C_17  and  C_18
REMARK    6  A    between atoms: C_18  and  C_19
REMARK    7  A    between atoms: C_18  and  C_20
REMARK    8  A    between atoms: C_18  and  O_21
REMARK    9  A    between atoms: C_26  and  O_27
REMARK   10  A    between atoms: O_27  and  C_28
REMARK                            x       y       z     vdW  Elec       q    Type
REMARK                         _______ _______ _______ _____ _____    ______ ____
ROOT
ATOM      1  C   UNL     1       6.472   4.891  17.374  0.00  0.00    +0.000 A 
ATOM      2  C   UNL     1       5.964   3.839  18.167  0.00  0.00    +0.000 A 
ATOM      3  C   UNL     1       4.798   3.961  18.924  0.00  0.00    +0.000 A 
ATOM      4  N   UNL     1       4.318   2.907  19.593  0.00  0.00    +0.000 NA
ATOM      5  C   UNL     1       3.176   3.103  20.272  0.00  0.00    +0.000 A 
ATOM      6  N   UNL     1       2.458   4.227  20.322  0.00  0.00    +0.000 NA
ATOM      7  C   UNL     1       2.935   5.278  19.627  0.00  0.00    +0.000 A 
ATOM      8  N   UNL     1       2.219   6.461  19.633  0.00  0.00    +0.000 N 
ATOM      9  C   UNL     1       1.394   6.822  20.786  0.00  0.00    +0.000 C 
ATOM     10  C   UNL     1       1.502   8.357  20.958  0.00  0.00    +0.000 C 
ATOM     11  N   UNL     1       1.204   9.079  19.709  0.00  0.00    +0.000 N 
ATOM     12  C   UNL     1       0.412  10.206  19.727  0.00  0.00    +0.000 C 
ATOM     13  O   UNL     1      -0.098  10.668  20.735  0.00  0.00    +0.000 OA
ATOM     14  C   UNL     1       1.879   8.589  18.500  0.00  0.00    +0.000 C 
ATOM     15  C   UNL     1       1.751   7.058  18.371  0.00  0.00    +0.000 C 
ATOM     16  C   UNL     1       4.157   5.195  18.934  0.00  0.00    +0.000 A 
ATOM     17  C   UNL     1       4.769   6.285  18.284  0.00  0.00    +0.000 A 
ATOM     18  C   UNL     1       5.881   6.150  17.465  0.00  0.00    +0.000 A 
ENDROOT
BRANCH   1  20
ATOM     19  C   UNL     1       7.247   4.755  15.145  0.00  0.00    +0.000 C 
ATOM     20  O   UNL     1       7.543   4.719  16.542  0.00  0.00    +0.000 OA
ENDBRANCH   1  20
BRANCH  18  21
ATOM     21  O   UNL     1       6.179   7.328  16.856  0.00  0.00    +0.000 OA
ATOM     22  C   UNL     1       7.238   8.130  17.340  0.00  0.00    +0.000 C 
ENDBRANCH  18  21
BRANCH  12  23
ATOM     23  O   UNL     1       0.217  10.705  18.479  0.00  0.00    +0.000 OA
BRANCH  23  24
ATOM     24  C   UNL     1      -0.973  10.281  17.811  0.00  0.00    +0.000 C 
BRANCH  24  25
ATOM     25  C   UNL     1      -1.956  11.430  17.525  0.00  0.00    +0.000 C 
ATOM     26  C   UNL     1      -2.760  11.195  16.246  0.00  0.00    +0.000 C 
ATOM     27  C   UNL     1      -2.904  11.657  18.704  0.00  0.00    +0.000 C 
BRANCH  25  28
ATOM     28  O   UNL     1      -1.197  12.637  17.358  0.00  0.00    +0.000 OA
ATOM     29  H   UNL     1      -1.777  13.296  16.938  0.00  0.00    +0.000 HD
ENDBRANCH  25  28
ENDBRANCH  24  25
ENDBRANCH  23  24
ENDBRANCH  12  23
TORSDOF 6
ENDMDL
MODEL 3
REMARK VINA RESULT:      -7.1      2.409      8.769
REMARK  Name = 
REMARK  10 active torsions:
REMARK  status: ('A' for Active; 'I' for Inactive)
REMARK    1  A    between atoms: C_1  and  O_2
REMARK    2  A    between atoms: O_2  and  C_3
REMARK    3  A    between atoms: C_14  and  O_16
REMARK    4  A    between atoms: O_16  and  C_17
REMARK    5  A    between atoms: C_17  and  C_18
REMARK    6  A    between atoms: C_18  and  C_19
REMARK    7  A    between atoms: C_18  and  C_20
REMARK    8  A    between atoms: C_18  and  O_21
REMARK    9  A    between atoms: C_26  and  O_27
REMARK   10  A    between atoms: O_27  and  C_28
REMARK                            x       y       z     vdW  Elec       q    Type
REMARK                         _______ _______ _______ _____ _____    ______ ____
ROOT
ATOM      1  C   UNL     1      -3.239  11.429  17.626  0.00  0.00    +0.000 A 
ATOM      2  C   UNL     1      -3.061  12.066  18.872  0.00  0.00    +0.000 A 
ATOM      3  C   UNL     1      -2.008  11.755  19.735  0.00  0.00    +0.000 A 
ATOM      4  N   UNL     1      -1.840  12.447  20.867  0.00  0.00    +0.000 NA
ATOM      5  C   UNL     1      -0.786  12.103  21.625  0.00  0.00    +0.000 A 
ATOM      6  N   UNL     1       0.123  11.165  21.350  0.00  0.00    +0.000 NA
ATOM      7  C   UNL     1      -0.039  10.488  20.198  0.00  0.00    +0.000 A 
ATOM      8  N   UNL     1       0.887   9.518  19.859  0.00  0.00    +0.000 N 
ATOM      9  C   UNL     1       1.600   8.778  20.901  0.00  0.00    +0.000 C 
ATOM     10  C   UNL     1       1.771   7.326  20.390  0.00  0.00    +0.000 C 
ATOM     11  N   UNL     1       2.374   7.277  19.046  0.00  0.00    +0.000 N 
ATOM     12  C   UNL     1       3.360   6.361  18.758  0.00  0.00    +0.000 C 
ATOM     13  O   UNL     1       3.807   5.560  19.563  0.00  0.00    +0.000 OA
ATOM     14  C   UNL     1       1.790   8.174  18.040  0.00  0.00    +0.000 C 
ATOM     15  C   UNL     1       1.632   9.606  18.592  0.00  0.00    +0.000 C 
ATOM     16  C   UNL     1      -1.146  10.730  19.363  0.00  0.00    +0.000 A 
ATOM     17  C   UNL     1      -1.438   9.982  18.205  0.00  0.00    +0.000 A 
ATOM     18  C   UNL     1      -2.431  10.339  17.304  0.00  0.00    +0.000 A 
ENDROOT
BRANCH   1  20
ATOM     19  C   UNL     1      -5.524  11.908  17.260  0.00  0.00    +0.000 C 
ATOM     20  O   UNL     1      -4.197  11.829  16.737  0.00  0.00    +0.000 OA
ENDBRANCH   1  20
BRANCH  18  21
ATOM     21  O   UNL     1      -2.407   9.530  16.212  0.00  0.00    +0.000 OA
ATOM     22  C   UNL     1      -2.801  10.028  14.950  0.00  0.00    +0.000 C 
ENDBRANCH  18  21
BRANCH  12  23
ATOM     23  O   UNL     1       3.819   6.498  17.486  0.00  0.00    +0.000 OA
BRANCH  23  24
ATOM     24  C   UNL     1       4.406   5.333  16.902  0.00  0.00    +0.000 C 
BRANCH  24  25
ATOM     25  C   UNL     1       5.526   5.652  15.896  0.00  0.00    +0.000 C 
ATOM     26  C   UNL     1       6.884   5.817  16.579  0.00  0.00    +0.000 C 
ATOM     27  C   UNL     1       5.616   4.583  14.806  0.00  0.00    +0.000 C 
BRANCH  25  28
ATOM     28  O   UNL     1       5.203   6.890  15.244  0.00  0.00    +0.000 OA
ATOM     29  H   UNL     1       5.985   7.171  14.737  0.00  0.00    +0.000 HD
ENDBRANCH  25  28
ENDBRANCH  24  25
ENDBRANCH  23  24
ENDBRANCH  12  23
TORSDOF 6
ENDMDL
MODEL 4
REMARK VINA RESULT:      -7.1      1.279      1.599
REMARK  Name = 
REMARK  10 active torsions:
REMARK  status: ('A' for Active; 'I' for Inactive)
REMARK    1  A    between atoms: C_1  and  O_2
REMARK    2  A    between atoms: O_2  and  C_3
REMARK    3  A    between atoms: C_14  and  O_16
REMARK    4  A    between atoms: O_16  and  C_17
REMARK    5  A    between atoms: C_17  and  C_18
REMARK    6  A    between atoms: C_18  and  C_19
REMARK    7  A    between atoms: C_18  and  C_20
REMARK    8  A    between atoms: C_18  and  O_21
REMARK    9  A    between atoms: C_26  and  O_27
REMARK   10  A    between atoms: O_27  and  C_28
REMARK                            x       y       z     vdW  Elec       q    Type
REMARK                         _______ _______ _______ _____ _____    ______ ____
ROOT
ATOM      1  C   UNL     1       6.453   5.191  16.151  0.00  0.00    +0.000 A 
ATOM      2  C   UNL     1       5.820   3.963  16.438  0.00  0.00    +0.000 A 
ATOM      3  C   UNL     1       4.647   3.876  17.188  0.00  0.00    +0.000 A 
ATOM      4  N   UNL     1       4.045   2.694  17.361  0.00  0.00    +0.000 NA
ATOM      5  C   UNL     1       2.906   2.704  18.071  0.00  0.00    +0.000 A 
ATOM      6  N   UNL     1       2.299   3.772  18.594  0.00  0.00    +0.000 NA
ATOM      7  C   UNL     1       2.897   4.961  18.396  0.00  0.00    +0.000 A 
ATOM      8  N   UNL     1       2.299   6.101  18.903  0.00  0.00    +0.000 N 
ATOM      9  C   UNL     1       1.476   6.031  20.110  0.00  0.00    +0.000 C 
ATOM     10  C   UNL     1       1.725   7.335  20.907  0.00  0.00    +0.000 C 
ATOM     11  N   UNL     1       1.540   8.538  20.077  0.00  0.00    +0.000 N 
ATOM     12  C   UNL     1       0.860   9.628  20.572  0.00  0.00    +0.000 C 
ATOM     13  O   UNL     1       0.364   9.677  21.686  0.00  0.00    +0.000 OA
ATOM     14  C   UNL     1       2.203   8.530  18.766  0.00  0.00    +0.000 C 
ATOM     15  C   UNL     1       1.933   7.213  18.010  0.00  0.00    +0.000 C 
ATOM     16  C   UNL     1       4.128   5.052  17.719  0.00  0.00    +0.000 A 
ATOM     17  C   UNL     1       4.863   6.245  17.577  0.00  0.00    +0.000 A 
ATOM     18  C   UNL     1       5.983   6.351  16.765  0.00  0.00    +0.000 A 
ENDROOT
BRANCH   1  20
ATOM     19  C   UNL     1       7.283   4.893  13.958  0.00  0.00    +0.000 C 
ATOM     20  O   UNL     1       7.529   5.274  15.312  0.00  0.00    +0.000 OA
ENDBRANCH   1  20
BRANCH  18  21
ATOM     21  O   UNL     1       6.414   7.639  16.701  0.00  0.00    +0.000 OA
ATOM     22  C   UNL     1       7.523   8.057  17.472  0.00  0.00    +0.000 C 
ENDBRANCH  18  21
BRANCH  12  23
ATOM     23  O   UNL     1       0.756  10.619  19.648  0.00  0.00    +0.000 OA
BRANCH  23  24
ATOM     24  C   UNL     1       1.148  11.924  20.079  0.00  0.00    +0.000 C 
BRANCH  24  25
ATOM     25  C   UNL     1       1.235  12.946  18.932  0.00  0.00    +0.000 C 
ATOM     26  C   UNL     1       1.101  14.385  19.431  0.00  0.00    +0.000 C 
ATOM     27  C   UNL     1       2.534  12.787  18.142  0.00  0.00    +0.000 C 
BRANCH  25  28
ATOM     28  O   UNL     1       0.155  12.690  18.021  0.00  0.00    +0.000 OA
ATOM     29  H   UNL     1       0.242  11.772  17.709  0.00  0.00    +0.000 HD
ENDBRANCH  25  28
ENDBRANCH  24  25
ENDBRANCH  23  24
ENDBRANCH  12  23
TORSDOF 6
ENDMDL
MODEL 5
REMARK VINA RESULT:      -7.0      1.291      1.708
REMARK  Name = 
REMARK  10 active torsions:
REMARK  status: ('A' for Active; 'I' for Inactive)
REMARK    1  A    between atoms: C_1  and  O_2
REMARK    2  A    between atoms: O_2  and  C_3
REMARK    3  A    between atoms: C_14  and  O_16
REMARK    4  A    between atoms: O_16  and  C_17
REMARK    5  A    between atoms: C_17  and  C_18
REMARK    6  A    between atoms: C_18  and  C_19
REMARK    7  A    between atoms: C_18  and  C_20
REMARK    8  A    between atoms: C_18  and  O_21
REMARK    9  A    between atoms: C_26  and  O_27
REMARK   10  A    between atoms: O_27  and  C_28
REMARK                            x       y       z     vdW  Elec       q    Type
REMARK                         _______ _______ _______ _____ _____    ______ ____
ROOT
ATOM      1  C   UNL     1       6.369   5.005  16.048  0.00  0.00    +0.000 A 
ATOM      2  C   UNL     1       5.743   3.758  16.259  0.00  0.00    +0.000 A 
ATOM      3  C   UNL     1       4.594   3.613  17.039  0.00  0.00    +0.000 A 
ATOM      4  N   UNL     1       3.996   2.422  17.140  0.00  0.00    +0.000 NA
ATOM      5  C   UNL     1       2.880   2.377  17.886  0.00  0.00    +0.000 A 
ATOM      6  N   UNL     1       2.293   3.401  18.509  0.00  0.00    +0.000 NA
ATOM      7  C   UNL     1       2.888   4.602  18.385  0.00  0.00    +0.000 A 
ATOM      8  N   UNL     1       2.310   5.699  18.998  0.00  0.00    +0.000 N 
ATOM      9  C   UNL     1       1.527   5.536  20.223  0.00  0.00    +0.000 C 
ATOM     10  C   UNL     1       1.807   6.775  21.109  0.00  0.00    +0.000 C 
ATOM     11  N   UNL     1       1.597   8.038  20.381  0.00  0.00    +0.000 N 
ATOM     12  C   UNL     1       0.938   9.087  20.981  0.00  0.00    +0.000 C 
ATOM     13  O   UNL     1       0.478   9.050  22.111  0.00  0.00    +0.000 OA
ATOM     14  C   UNL     1       2.217   8.132  19.052  0.00  0.00    +0.000 C 
ATOM     15  C   UNL     1       1.918   6.878  18.207  0.00  0.00    +0.000 C 
ATOM     16  C   UNL     1       4.096   4.745  17.677  0.00  0.00    +0.000 A 
ATOM     17  C   UNL     1       4.830   5.945  17.603  0.00  0.00    +0.000 A 
ATOM     18  C   UNL     1       5.923   6.114  16.765  0.00  0.00    +0.000 A 
ENDROOT
BRANCH   1  20
ATOM     19  C   UNL     1       7.140   4.825  13.821  0.00  0.00    +0.000 C 
ATOM     20  O   UNL     1       7.417   5.152  15.183  0.00  0.00    +0.000 OA
ENDBRANCH   1  20
BRANCH  18  21
ATOM     21  O   UNL     1       6.356   7.402  16.788  0.00  0.00    +0.000 OA
ATOM     22  C   UNL     1       7.497   7.756  17.542  0.00  0.00    +0.000 C 
ENDBRANCH  18  21
BRANCH  12  23
ATOM     23  O   UNL     1       0.805  10.147  20.141  0.00  0.00    +0.000 OA
BRANCH  23  24
ATOM     24  C   UNL     1       1.164  11.422  20.677  0.00  0.00    +0.000 C 
BRANCH  24  25
ATOM     25  C   UNL     1      -0.045  12.248  21.150  0.00  0.00    +0.000 C 
ATOM     26  C   UNL     1       0.253  13.748  21.168  0.00  0.00    +0.000 C 
ATOM     27  C   UNL     1      -1.279  11.972  20.290  0.00  0.00    +0.000 C 
BRANCH  25  28
ATOM     28  O   UNL     1      -0.367  11.843  22.490  0.00  0.00    +0.000 OA
ATOM     29  H   UNL     1      -0.328  12.634  23.056  0.00  0.00    +0.000 HD
ENDBRANCH  25  28
ENDBRANCH  24  25
ENDBRANCH  23  24
ENDBRANCH  12  23
TORSDOF 6
ENDMDL
MODEL 6
REMARK VINA RESULT:      -6.9      1.090      1.612
REMARK  Name = 
REMARK  10 active torsions:
REMARK  status: ('A' for Active; 'I' for Inactive)
REMARK    1  A    between atoms: C_1  and  O_2
REMARK    2  A    between atoms: O_2  and  C_3
REMARK    3  A    between atoms: C_14  and  O_16
REMARK    4  A    between atoms: O_16  and  C_17
REMARK    5  A    between atoms: C_17  and  C_18
REMARK    6  A    between atoms: C_18  and  C_19
REMARK    7  A    between atoms: C_18  and  C_20
REMARK    8  A    between atoms: C_18  and  O_21
REMARK    9  A    between atoms: C_26  and  O_27
REMARK   10  A    between atoms: O_27  and  C_28
REMARK                            x       y       z     vdW  Elec       q    Type
REMARK                         _______ _______ _______ _____ _____    ______ ____
ROOT
ATOM      1  C   UNL     1       6.347   4.891  16.309  0.00  0.00    +0.000 A 
ATOM      2  C   UNL     1       5.687   3.699  16.676  0.00  0.00    +0.000 A 
ATOM      3  C   UNL     1       4.514   3.689  17.432  0.00  0.00    +0.000 A 
ATOM      4  N   UNL     1       3.885   2.535  17.682  0.00  0.00    +0.000 NA
ATOM      5  C   UNL     1       2.748   2.618  18.392  0.00  0.00    +0.000 A 
ATOM      6  N   UNL     1       2.168   3.732  18.845  0.00  0.00    +0.000 NA
ATOM      7  C   UNL     1       2.794   4.892  18.570  0.00  0.00    +0.000 A 
ATOM      8  N   UNL     1       2.224   6.076  19.003  0.00  0.00    +0.000 N 
ATOM      9  C   UNL     1       1.403   6.104  20.213  0.00  0.00    +0.000 C 
ATOM     10  C   UNL     1       1.686   7.450  20.923  0.00  0.00    +0.000 C 
ATOM     11  N   UNL     1       1.526   8.601  20.017  0.00  0.00    +0.000 N 
ATOM     12  C   UNL     1       0.875   9.737  20.441  0.00  0.00    +0.000 C 
ATOM     13  O   UNL     1       0.383   9.870  21.550  0.00  0.00    +0.000 OA
ATOM     14  C   UNL     1       2.186   8.492  18.708  0.00  0.00    +0.000 C 
ATOM     15  C   UNL     1       1.882   7.136  18.040  0.00  0.00    +0.000 C 
ATOM     16  C   UNL     1       4.024   4.909  17.887  0.00  0.00    +0.000 A 
ATOM     17  C   UNL     1       4.787   6.072  17.666  0.00  0.00    +0.000 A 
ATOM     18  C   UNL     1       5.907   6.099  16.847  0.00  0.00    +0.000 A 
ENDROOT
BRANCH   1  20
ATOM     19  C   UNL     1       7.112   4.780  14.075  0.00  0.00    +0.000 C 
ATOM     20  O   UNL     1       7.422   4.894  15.464  0.00  0.00    +0.000 OA
ENDBRANCH   1  20
BRANCH  18  21
ATOM     21  O   UNL     1       6.368   7.369  16.700  0.00  0.00    +0.000 OA
ATOM     22  C   UNL     1       7.479   7.814  17.450  0.00  0.00    +0.000 C 
ENDBRANCH  18  21
BRANCH  12  23
ATOM     23  O   UNL     1       0.790  10.668  19.455  0.00  0.00    +0.000 OA
BRANCH  23  24
ATOM     24  C   UNL     1      -0.004  11.820  19.745  0.00  0.00    +0.000 C 
BRANCH  24  25
ATOM     25  C   UNL     1       0.828  13.046  20.164  0.00  0.00    +0.000 C 
ATOM     26  C   UNL     1       2.174  13.102  19.442  0.00  0.00    +0.000 C 
ATOM     27  C   UNL     1       0.057  14.346  19.933  0.00  0.00    +0.000 C 
BRANCH  25  28
ATOM     28  O   UNL     1       1.082  12.953  21.574  0.00  0.00    +0.000 OA
ATOM     29  H   UNL     1       1.650  12.176  21.722  0.00  0.00    +0.000 HD
ENDBRANCH  25  28
ENDBRANCH  24  25
ENDBRANCH  23  24
ENDBRANCH  12  23
TORSDOF 6
ENDMDL
MODEL 7
REMARK VINA RESULT:      -6.9      2.387      8.864
REMARK  Name = 
REMARK  10 active torsions:
REMARK  status: ('A' for Active; 'I' for Inactive)
REMARK    1  A    between atoms: C_1  and  O_2
REMARK    2  A    between atoms: O_2  and  C_3
REMARK    3  A    between atoms: C_14  and  O_16
REMARK    4  A    between atoms: O_16  and  C_17
REMARK    5  A    between atoms: C_17  and  C_18
REMARK    6  A    between atoms: C_18  and  C_19
REMARK    7  A    between atoms: C_18  and  C_20
REMARK    8  A    between atoms: C_18  and  O_21
REMARK    9  A    between atoms: C_26  and  O_27
REMARK   10  A    between atoms: O_27  and  C_28
REMARK                            x       y       z     vdW  Elec       q    Type
REMARK                         _______ _______ _______ _____ _____    ______ ____
ROOT
ATOM      1  C   UNL     1      -3.225  11.483  17.926  0.00  0.00    +0.000 A 
ATOM      2  C   UNL     1      -2.968  12.172  19.131  0.00  0.00    +0.000 A 
ATOM      3  C   UNL     1      -1.891  11.861  19.962  0.00  0.00    +0.000 A 
ATOM      4  N   UNL     1      -1.647  12.599  21.051  0.00  0.00    +0.000 NA
ATOM      5  C   UNL     1      -0.575  12.249  21.780  0.00  0.00    +0.000 A 
ATOM      6  N   UNL     1       0.286  11.263  21.514  0.00  0.00    +0.000 NA
ATOM      7  C   UNL     1       0.047  10.539  20.404  0.00  0.00    +0.000 A 
ATOM      8  N   UNL     1       0.920   9.517  20.075  0.00  0.00    +0.000 N 
ATOM      9  C   UNL     1       1.649   8.800  21.121  0.00  0.00    +0.000 C 
ATOM     10  C   UNL     1       1.742   7.320  20.675  0.00  0.00    +0.000 C 
ATOM     11  N   UNL     1       2.283   7.182  19.312  0.00  0.00    +0.000 N 
ATOM     12  C   UNL     1       3.220   6.214  19.028  0.00  0.00    +0.000 C 
ATOM     13  O   UNL     1       3.671   5.436  19.853  0.00  0.00    +0.000 OA
ATOM     14  C   UNL     1       1.689   8.053  18.288  0.00  0.00    +0.000 C 
ATOM     15  C   UNL     1       1.611   9.514  18.775  0.00  0.00    +0.000 C 
ATOM     16  C   UNL     1      -1.085  10.784  19.606  0.00  0.00    +0.000 A 
ATOM     17  C   UNL     1      -1.457   9.995  18.500  0.00  0.00    +0.000 A 
ATOM     18  C   UNL     1      -2.474  10.348  17.625  0.00  0.00    +0.000 A 
ENDROOT
BRANCH   1  20
ATOM     19  C   UNL     1      -5.542  11.590  17.472  0.00  0.00    +0.000 C 
ATOM     20  O   UNL     1      -4.206  11.879  17.060  0.00  0.00    +0.000 OA
ENDBRANCH   1  20
BRANCH  18  21
ATOM     21  O   UNL     1      -2.529   9.487  16.574  0.00  0.00    +0.000 OA
ATOM     22  C   UNL     1      -2.625   9.982  15.254  0.00  0.00    +0.000 C 
ENDBRANCH  18  21
BRANCH  12  23
ATOM     23  O   UNL     1       3.627   6.271  17.733  0.00  0.00    +0.000 OA
BRANCH  23  24
ATOM     24  C   UNL     1       5.033   6.146  17.511  0.00  0.00    +0.000 C 
BRANCH  24  25
ATOM     25  C   UNL     1       5.472   4.713  17.164  0.00  0.00    +0.000 C 
ATOM     26  C   UNL     1       4.308   3.860  16.658  0.00  0.00    +0.000 C 
ATOM     27  C   UNL     1       6.605   4.711  16.137  0.00  0.00    +0.000 C 
BRANCH  25  28
ATOM     28  O   UNL     1       5.986   4.101  18.357  0.00  0.00    +0.000 OA
ATOM     29  H   UNL     1       6.155   4.808  19.004  0.00  0.00    +0.000 HD
ENDBRANCH  25  28
ENDBRANCH  24  25
ENDBRANCH  23  24
ENDBRANCH  12  23
TORSDOF 6
ENDMDL
MODEL 8
REMARK VINA RESULT:      -6.3      1.196      1.410
REMARK  Name = 
REMARK  10 active torsions:
REMARK  status: ('A' for Active; 'I' for Inactive)
REMARK    1  A    between atoms: C_1  and  O_2
REMARK    2  A    between atoms: O_2  and  C_3
REMARK    3  A    between atoms: C_14  and  O_16
REMARK    4  A    between atoms: O_16  and  C_17
REMARK    5  A    between atoms: C_17  and  C_18
REMARK    6  A    between atoms: C_18  and  C_19
REMARK    7  A    between atoms: C_18  and  C_20
REMARK    8  A    between atoms: C_18  and  O_21
REMARK    9  A    between atoms: C_26  and  O_27
REMARK   10  A    between atoms: O_27  and  C_28
REMARK                            x       y       z     vdW  Elec       q    Type
REMARK                         _______ _______ _______ _____ _____    ______ ____
ROOT
ATOM      1  C   UNL     1       5.866   4.510  16.316  0.00  0.00    +0.000 A 
ATOM      2  C   UNL     1       5.157   3.412  16.848  0.00  0.00    +0.000 A 
ATOM      3  C   UNL     1       4.035   3.563  17.666  0.00  0.00    +0.000 A 
ATOM      4  N   UNL     1       3.354   2.488  18.076  0.00  0.00    +0.000 NA
ATOM      5  C   UNL     1       2.271   2.724  18.835  0.00  0.00    +0.000 A 
ATOM      6  N   UNL     1       1.791   3.917  19.195  0.00  0.00    +0.000 NA
ATOM      7  C   UNL     1       2.469   4.995  18.759  0.00  0.00    +0.000 A 
ATOM      8  N   UNL     1       2.003   6.254  19.089  0.00  0.00    +0.000 N 
ATOM      9  C   UNL     1       1.263   6.467  20.334  0.00  0.00    +0.000 C 
ATOM     10  C   UNL     1       1.673   7.859  20.874  0.00  0.00    +0.000 C 
ATOM     11  N   UNL     1       1.528   8.915  19.857  0.00  0.00    +0.000 N 
ATOM     12  C   UNL     1       0.976  10.132  20.189  0.00  0.00    +0.000 C 
ATOM     13  O   UNL     1       0.565  10.415  21.302  0.00  0.00    +0.000 OA
ATOM     14  C   UNL     1       2.096   8.623  18.533  0.00  0.00    +0.000 C 
ATOM     15  C   UNL     1       1.667   7.227  18.037  0.00  0.00    +0.000 C 
ATOM     16  C   UNL     1       3.653   4.855  18.010  0.00  0.00    +0.000 A 
ATOM     17  C   UNL     1       4.471   5.933  17.620  0.00  0.00    +0.000 A 
ATOM     18  C   UNL     1       5.536   5.796  16.742  0.00  0.00    +0.000 A 
ENDROOT
BRANCH   1  20
ATOM     19  C   UNL     1       6.482   4.183  14.057  0.00  0.00    +0.000 C 
ATOM     20  O   UNL     1       6.884   4.349  15.417  0.00  0.00    +0.000 OA
ENDBRANCH   1  20
BRANCH  18  21
ATOM     21  O   UNL     1       6.065   7.009  16.429  0.00  0.00    +0.000 OA
ATOM     22  C   UNL     1       6.891   7.684  17.356  0.00  0.00    +0.000 C 
ENDBRANCH  18  21
BRANCH  12  23
ATOM     23  O   UNL     1       0.888  10.956  19.112  0.00  0.00    +0.000 OA
BRANCH  23  24
ATOM     24  C   UNL     1       1.614  12.185  19.201  0.00  0.00    +0.000 C 
BRANCH  24  25
ATOM     25  C   UNL     1       0.715  13.432  19.125  0.00  0.00    +0.000 C 
ATOM     26  C   UNL     1      -0.531  13.193  18.272  0.00  0.00    +0.000 C 
ATOM     27  C   UNL     1       0.309  13.910  20.519  0.00  0.00    +0.000 C 
BRANCH  25  28
ATOM     28  O   UNL     1       1.472  14.492  18.520  0.00  0.00    +0.000 OA
ATOM     29  H   UNL     1       1.086  14.669  17.644  0.00  0.00    +0.000 HD
ENDBRANCH  25  28
ENDBRANCH  24  25
ENDBRANCH  23  24
ENDBRANCH  12  23
TORSDOF 6
ENDMDL
MODEL 9
REMARK VINA RESULT:      -6.1      1.407      1.596
REMARK  Name = 
REMARK  10 active torsions:
REMARK  status: ('A' for Active; 'I' for Inactive)
REMARK    1  A    between atoms: C_1  and  O_2
REMARK    2  A    between atoms: O_2  and  C_3
REMARK    3  A    between atoms: C_14  and  O_16
REMARK    4  A    between atoms: O_16  and  C_17
REMARK    5  A    between atoms: C_17  and  C_18
REMARK    6  A    between atoms: C_18  and  C_19
REMARK    7  A    between atoms: C_18  and  C_20
REMARK    8  A    between atoms: C_18  and  O_21
REMARK    9  A    between atoms: C_26  and  O_27
REMARK   10  A    between atoms: O_27  and  C_28
REMARK                            x       y       z     vdW  Elec       q    Type
REMARK                         _______ _______ _______ _____ _____    ______ ____
ROOT
ATOM      1  C   UNL     1       5.617   4.451  17.652  0.00  0.00    +0.000 A 
ATOM      2  C   UNL     1       5.007   3.576  18.576  0.00  0.00    +0.000 A 
ATOM      3  C   UNL     1       3.941   3.962  19.390  0.00  0.00    +0.000 A 
ATOM      4  N   UNL     1       3.347   3.069  20.189  0.00  0.00    +0.000 NA
ATOM      5  C   UNL     1       2.311   3.518  20.917  0.00  0.00    +0.000 A 
ATOM      6  N   UNL     1       1.797   4.749  20.902  0.00  0.00    +0.000 NA
ATOM      7  C   UNL     1       2.385   5.637  20.078  0.00  0.00    +0.000 A 
ATOM      8  N   UNL     1       1.878   6.923  20.012  0.00  0.00    +0.000 N 
ATOM      9  C   UNL     1       1.220   7.519  21.175  0.00  0.00    +0.000 C 
ATOM     10  C   UNL     1       1.595   9.022  21.187  0.00  0.00    +0.000 C 
ATOM     11  N   UNL     1       1.322   9.674  19.895  0.00  0.00    +0.000 N 
ATOM     12  C   UNL     1       0.733  10.917  19.852  0.00  0.00    +0.000 C 
ATOM     13  O   UNL     1       0.389  11.546  20.840  0.00  0.00    +0.000 OA
ATOM     14  C   UNL     1       1.807   8.971  18.699  0.00  0.00    +0.000 C 
ATOM     15  C   UNL     1       1.417   7.480  18.730  0.00  0.00    +0.000 C 
ATOM     16  C   UNL     1       3.517   5.285  19.319  0.00  0.00    +0.000 A 
ATOM     17  C   UNL     1       4.248   6.192  18.527  0.00  0.00    +0.000 A 
ATOM     18  C   UNL     1       5.252   5.796  17.656  0.00  0.00    +0.000 A 
ENDROOT
BRANCH   1  20
ATOM     19  C   UNL     1       6.095   3.616  15.493  0.00  0.00    +0.000 C 
ATOM     20  O   UNL     1       6.575   4.025  16.774  0.00  0.00    +0.000 OA
ENDBRANCH   1  20
BRANCH  18  21
ATOM     21  O   UNL     1       5.694   6.848  16.917  0.00  0.00    +0.000 OA
ATOM     22  C   UNL     1       5.161   7.086  15.629  0.00  0.00    +0.000 C 
ENDBRANCH  18  21
BRANCH  12  23
ATOM     23  O   UNL     1       0.525  11.333  18.575  0.00  0.00    +0.000 OA
BRANCH  23  24
ATOM     24  C   UNL     1      -0.622  12.159  18.363  0.00  0.00    +0.000 C 
BRANCH  24  25
ATOM     25  C   UNL     1      -1.837  11.389  17.815  0.00  0.00    +0.000 C 
ATOM     26  C   UNL     1      -1.521   9.914  17.569  0.00  0.00    +0.000 C 
ATOM     27  C   UNL     1      -3.041  11.516  18.749  0.00  0.00    +0.000 C 
BRANCH  25  28
ATOM     28  O   UNL     1      -2.213  11.979  16.562  0.00  0.00    +0.000 OA
ATOM     29  H   UNL     1      -2.679  12.812  16.753  0.00  0.00    +0.000 HD
ENDBRANCH  25  28
ENDBRANCH  24  25
ENDBRANCH  23  24
ENDBRANCH  12  23
TORSDOF 6
ENDMDL
