MODEL 1
REMARK VINA RESULT:      -7.7      0.000      0.000
REMARK  Name = 
REMARK  5 active torsions:
REMARK  status: ('A' for Active; 'I' for Inactive)
REMARK    1  A    between atoms: C_1  and  C_2
REMARK    2  A    between atoms: C_2  and  N_3
REMARK    3  A    between atoms: N_7  and  C_8
REMARK    4  A    between atoms: C_8  and  C_9
REMARK    5  A    between atoms: C_12  and  C_13
REMARK                            x       y       z     vdW  Elec       q    Type
REMARK                         _______ _______ _______ _____ _____    ______ ____
ROOT
ATOM      1  C   UNL     1       4.051   4.853  19.453  0.00  0.00    +0.000 A 
ATOM      2  C   UNL     1       3.034   4.302  20.202  0.00  0.00    +0.000 A 
ATOM      3  C   UNL     1       2.040   5.299  20.328  0.00  0.00    +0.000 A 
ATOM      4  C   UNL     1       2.507   6.416  19.665  0.00  0.00    +0.000 A 
ATOM      5  O   UNL     1       3.728   6.136  19.110  0.00  0.00    +0.000 OA
ENDROOT
BRANCH   4   6
ATOM      6  C   UNL     1       2.000   7.775  19.513  0.00  0.00    +0.000 A 
ATOM      7  C   UNL     1       2.090   8.440  18.277  0.00  0.00    +0.000 A 
ATOM      8  C   UNL     1       1.509   9.699  18.096  0.00  0.00    +0.000 A 
ATOM      9  C   UNL     1       0.844  10.308  19.157  0.00  0.00    +0.000 A 
ATOM     10 BR   UNL     1       0.018  11.989  18.911  0.00  0.00    +0.000 Br
ATOM     11  C   UNL     1       0.767   9.677  20.395  0.00  0.00    +0.000 A 
ATOM     12  C   UNL     1       1.347   8.420  20.572  0.00  0.00    +0.000 A 
ENDBRANCH   4   6
BRANCH   1  13
ATOM     13  C   UNL     1       5.380   4.338  19.008  0.00  0.00    +0.000 C 
BRANCH  13  18
ATOM     14  N   UNL     1       6.772   4.695  14.814  0.00  0.00    +0.000 N 
ATOM     15  N   UNL     1       7.195   5.705  15.589  0.00  0.00    +0.000 NA
ATOM     16  N   UNL     1       6.694   5.431  16.786  0.00  0.00    +0.000 NA
ATOM     17  C   UNL     1       5.986   4.260  16.663  0.00  0.00    +0.000 A 
ATOM     18  N   UNL     1       5.371   3.694  17.711  0.00  0.00    +0.000 N 
ATOM     19  N   UNL     1       6.001   3.771  15.420  0.00  0.00    +0.000 NA
ATOM     20  H   UNL     1       4.683   2.976  17.555  0.00  0.00    +0.000 HD
BRANCH  14  22
ATOM     21  C   UNL     1       6.283   3.617  12.656  0.00  0.00    +0.000 C 
ATOM     22  C   UNL     1       7.153   4.594  13.425  0.00  0.00    +0.000 C 
ENDBRANCH  14  22
ENDBRANCH  13  18
ENDBRANCH   1  13
TORSDOF 4
ENDMDL
MODEL 2
REMARK VINA RESULT:      -7.7      0.566      1.203
REMARK  Name = 
REMARK  5 active torsions:
REMARK  status: ('A' for Active; 'I' for Inactive)
REMARK    1  A    between atoms: C_1  and  C_2
REMARK    2  A    between atoms: C_2  and  N_3
REMARK    3  A    between atoms: N_7  and  C_8
REMARK    4  A    between atoms: C_8  and  C_9
REMARK    5  A    between atoms: C_12  and  C_13
REMARK                            x       y       z     vdW  Elec       q    Type
REMARK                         _______ _______ _______ _____ _____    ______ ____
ROOT
ATOM      1  C   UNL     1       4.452   4.964  18.988  0.00  0.00    +0.000 A 
ATOM      2  C   UNL     1       3.622   4.347  19.898  0.00  0.00    +0.000 A 
ATOM      3  C   UNL     1       2.548   5.236  20.132  0.00  0.00    +0.000 A 
ATOM      4  C   UNL     1       2.785   6.359  19.367  0.00  0.00    +0.000 A 
ATOM      5  O   UNL     1       3.939   6.185  18.649  0.00  0.00    +0.000 OA
ENDROOT
BRANCH   4   6
ATOM      6  C   UNL     1       2.108   7.646  19.241  0.00  0.00    +0.000 A 
ATOM      7  C   UNL     1       1.496   8.246  20.357  0.00  0.00    +0.000 A 
ATOM      8  C   UNL     1       0.942   9.527  20.268  0.00  0.00    +0.000 A 
ATOM      9  C   UNL     1       0.984  10.211  19.056  0.00  0.00    +0.000 A 
ATOM     10 BR   UNL     1       0.276  11.958  18.936  0.00  0.00    +0.000 Br
ATOM     11  C   UNL     1       1.560   9.623  17.934  0.00  0.00    +0.000 A 
ATOM     12  C   UNL     1       2.115   8.345  18.027  0.00  0.00    +0.000 A 
ENDBRANCH   4   6
BRANCH   1  13
ATOM     13  C   UNL     1       5.755   4.573  18.371  0.00  0.00    +0.000 C 
BRANCH  13  18
ATOM     14  N   UNL     1       6.880   4.495  14.085  0.00  0.00    +0.000 N 
ATOM     15  N   UNL     1       7.394   5.549  14.736  0.00  0.00    +0.000 NA
ATOM     16  N   UNL     1       6.962   5.404  15.982  0.00  0.00    +0.000 NA
ATOM     17  C   UNL     1       6.202   4.261  16.010  0.00  0.00    +0.000 A 
ATOM     18  N   UNL     1       5.635   3.818  17.141  0.00  0.00    +0.000 N 
ATOM     19  N   UNL     1       6.115   3.664  14.818  0.00  0.00    +0.000 NA
ATOM     20  H   UNL     1       4.910   3.121  17.095  0.00  0.00    +0.000 HD
BRANCH  14  22
ATOM     21  C   UNL     1       6.152   3.328  12.043  0.00  0.00    +0.000 C 
ATOM     22  C   UNL     1       7.165   4.254  12.689  0.00  0.00    +0.000 C 
ENDBRANCH  14  22
ENDBRANCH  13  18
ENDBRANCH   1  13
TORSDOF 4
ENDMDL
MODEL 3
REMARK VINA RESULT:      -7.4      1.060      1.350
REMARK  Name = 
REMARK  5 active torsions:
REMARK  status: ('A' for Active; 'I' for Inactive)
REMARK    1  A    between atoms: C_1  and  C_2
REMARK    2  A    between atoms: C_2  and  N_3
REMARK    3  A    between atoms: N_7  and  C_8
REMARK    4  A    between atoms: C_8  and  C_9
REMARK    5  A    between atoms: C_12  and  C_13
REMARK                            x       y       z     vdW  Elec       q    Type
REMARK                         _______ _______ _______ _____ _____    ______ ____
ROOT
ATOM      1  C   UNL     1       4.548   4.851  18.429  0.00  0.00    +0.000 A 
ATOM      2  C   UNL     1       3.409   4.089  18.288  0.00  0.00    +0.000 A 
ATOM      3  C   UNL     1       2.314   4.977  18.397  0.00  0.00    +0.000 A 
ATOM      4  C   UNL     1       2.839   6.234  18.617  0.00  0.00    +0.000 A 
ATOM      5  O   UNL     1       4.207   6.161  18.614  0.00  0.00    +0.000 OA
ENDROOT
BRANCH   4   6
ATOM      6  C   UNL     1       2.239   7.533  18.900  0.00  0.00    +0.000 A 
ATOM      7  C   UNL     1       2.073   8.484  17.878  0.00  0.00    +0.000 A 
ATOM      8  C   UNL     1       1.401   9.687  18.119  0.00  0.00    +0.000 A 
ATOM      9  C   UNL     1       0.903   9.952  19.392  0.00  0.00    +0.000 A 
ATOM     10 BR   UNL     1      -0.043  11.554  19.718  0.00  0.00    +0.000 Br
ATOM     11  C   UNL     1       1.081   9.035  20.424  0.00  0.00    +0.000 A 
ATOM     12  C   UNL     1       1.751   7.835  20.178  0.00  0.00    +0.000 A 
ENDBRANCH   4   6
BRANCH   1  13
ATOM     13  C   UNL     1       6.002   4.510  18.449  0.00  0.00    +0.000 C 
BRANCH  13  18
ATOM     14  N   UNL     1       7.143   4.736  14.172  0.00  0.00    +0.000 N 
ATOM     15  N   UNL     1       6.250   3.766  14.420  0.00  0.00    +0.000 NA
ATOM     16  N   UNL     1       6.030   3.851  15.725  0.00  0.00    +0.000 NA
ATOM     17  C   UNL     1       6.813   4.877  16.195  0.00  0.00    +0.000 A 
ATOM     18  N   UNL     1       6.803   5.238  17.486  0.00  0.00    +0.000 N 
ATOM     19  N   UNL     1       7.546   5.453  15.239  0.00  0.00    +0.000 NA
ATOM     20  H   UNL     1       7.537   5.826  17.844  0.00  0.00    +0.000 HD
BRANCH  14  22
ATOM     21  C   UNL     1       7.084   4.014  11.819  0.00  0.00    +0.000 C 
ATOM     22  C   UNL     1       7.611   5.011  12.833  0.00  0.00    +0.000 C 
ENDBRANCH  14  22
ENDBRANCH  13  18
ENDBRANCH   1  13
TORSDOF 4
ENDMDL
MODEL 4
REMARK VINA RESULT:      -7.3      2.824      3.765
REMARK  Name = 
REMARK  5 active torsions:
REMARK  status: ('A' for Active; 'I' for Inactive)
REMARK    1  A    between atoms: C_1  and  C_2
REMARK    2  A    between atoms: C_2  and  N_3
REMARK    3  A    between atoms: N_7  and  C_8
REMARK    4  A    between atoms: C_8  and  C_9
REMARK    5  A    between atoms: C_12  and  C_13
REMARK                            x       y       z     vdW  Elec       q    Type
REMARK                         _______ _______ _______ _____ _____    ______ ____
ROOT
ATOM      1  C   UNL     1       4.777   4.823  17.350  0.00  0.00    +0.000 A 
ATOM      2  C   UNL     1       3.734   3.923  17.309  0.00  0.00    +0.000 A 
ATOM      3  C   UNL     1       2.587   4.613  17.762  0.00  0.00    +0.000 A 
ATOM      4  C   UNL     1       2.989   5.896  18.074  0.00  0.00    +0.000 A 
ATOM      5  O   UNL     1       4.325   6.032  17.800  0.00  0.00    +0.000 OA
ENDROOT
BRANCH   4   6
ATOM      6  C   UNL     1       2.309   7.042  18.666  0.00  0.00    +0.000 A 
ATOM      7  C   UNL     1       2.026   7.075  20.044  0.00  0.00    +0.000 A 
ATOM      8  C   UNL     1       1.473   8.215  20.636  0.00  0.00    +0.000 A 
ATOM      9  C   UNL     1       1.185   9.326  19.848  0.00  0.00    +0.000 A 
ATOM     10 BR   UNL     1       0.478  10.886  20.645  0.00  0.00    +0.000 Br
ATOM     11  C   UNL     1       1.432   9.303  18.479  0.00  0.00    +0.000 A 
ATOM     12  C   UNL     1       1.986   8.164  17.892  0.00  0.00    +0.000 A 
ENDBRANCH   4   6
BRANCH   1  13
ATOM     13  C   UNL     1       6.233   4.706  17.041  0.00  0.00    +0.000 C 
BRANCH  13  18
ATOM     14  N   UNL     1       8.368   8.373  18.326  0.00  0.00    +0.000 N 
ATOM     15  N   UNL     1       7.631   8.562  17.221  0.00  0.00    +0.000 NA
ATOM     16  N   UNL     1       7.074   7.380  16.994  0.00  0.00    +0.000 NA
ATOM     17  C   UNL     1       7.513   6.535  17.984  0.00  0.00    +0.000 A 
ATOM     18  N   UNL     1       7.108   5.259  18.054  0.00  0.00    +0.000 N 
ATOM     19  N   UNL     1       8.349   7.128  18.841  0.00  0.00    +0.000 NA
ATOM     20  H   UNL     1       7.608   4.610  18.639  0.00  0.00    +0.000 HD
BRANCH  14  22
ATOM     21  C   UNL     1       8.891  10.776  18.230  0.00  0.00    +0.000 C 
ATOM     22  C   UNL     1       9.104   9.453  18.941  0.00  0.00    +0.000 C 
ENDBRANCH  14  22
ENDBRANCH  13  18
ENDBRANCH   1  13
TORSDOF 4
ENDMDL
MODEL 5
REMARK VINA RESULT:      -7.2      2.742      3.496
REMARK  Name = 
REMARK  5 active torsions:
REMARK  status: ('A' for Active; 'I' for Inactive)
REMARK    1  A    between atoms: C_1  and  C_2
REMARK    2  A    between atoms: C_2  and  N_3
REMARK    3  A    between atoms: N_7  and  C_8
REMARK    4  A    between atoms: C_8  and  C_9
REMARK    5  A    between atoms: C_12  and  C_13
REMARK                            x       y       z     vdW  Elec       q    Type
REMARK                         _______ _______ _______ _____ _____    ______ ____
ROOT
ATOM      1  C   UNL     1       4.566   4.816  17.509  0.00  0.00    +0.000 A 
ATOM      2  C   UNL     1       3.439   4.031  17.402  0.00  0.00    +0.000 A 
ATOM      3  C   UNL     1       2.349   4.832  17.811  0.00  0.00    +0.000 A 
ATOM      4  C   UNL     1       2.868   6.062  18.164  0.00  0.00    +0.000 A 
ATOM      5  O   UNL     1       4.222   6.060  17.958  0.00  0.00    +0.000 OA
ENDROOT
BRANCH   4   6
ATOM      6  C   UNL     1       2.282   7.266  18.744  0.00  0.00    +0.000 A 
ATOM      7  C   UNL     1       1.893   8.340  17.923  0.00  0.00    +0.000 A 
ATOM      8  C   UNL     1       1.232   9.450  18.459  0.00  0.00    +0.000 A 
ATOM      9  C   UNL     1       0.968   9.498  19.825  0.00  0.00    +0.000 A 
ATOM     10 BR   UNL     1       0.039  10.972  20.554  0.00  0.00    +0.000 Br
ATOM     11  C   UNL     1       1.369   8.457  20.658  0.00  0.00    +0.000 A 
ATOM     12  C   UNL     1       2.027   7.350  20.119  0.00  0.00    +0.000 A 
ENDBRANCH   4   6
BRANCH   1  13
ATOM     13  C   UNL     1       6.017   4.550  17.269  0.00  0.00    +0.000 C 
BRANCH  13  18
ATOM     14  N   UNL     1       8.305   8.205  18.292  0.00  0.00    +0.000 N 
ATOM     15  N   UNL     1       7.590   8.340  17.165  0.00  0.00    +0.000 NA
ATOM     16  N   UNL     1       6.981   7.170  17.024  0.00  0.00    +0.000 NA
ATOM     17  C   UNL     1       7.370   6.388  18.084  0.00  0.00    +0.000 A 
ATOM     18  N   UNL     1       6.905   5.141  18.247  0.00  0.00    +0.000 N 
ATOM     19  N   UNL     1       8.224   7.007  18.903  0.00  0.00    +0.000 NA
ATOM     20  H   UNL     1       7.368   4.518  18.888  0.00  0.00    +0.000 HD
BRANCH  14  22
ATOM     21  C   UNL     1       8.814  10.608  18.118  0.00  0.00    +0.000 C 
ATOM     22  C   UNL     1       9.085   9.296  18.831  0.00  0.00    +0.000 C 
ENDBRANCH  14  22
ENDBRANCH  13  18
ENDBRANCH   1  13
TORSDOF 4
ENDMDL
MODEL 6
REMARK VINA RESULT:      -7.1      5.625      6.756
REMARK  Name = 
REMARK  5 active torsions:
REMARK  status: ('A' for Active; 'I' for Inactive)
REMARK    1  A    between atoms: C_1  and  C_2
REMARK    2  A    between atoms: C_2  and  N_3
REMARK    3  A    between atoms: N_7  and  C_8
REMARK    4  A    between atoms: C_8  and  C_9
REMARK    5  A    between atoms: C_12  and  C_13
REMARK                            x       y       z     vdW  Elec       q    Type
REMARK                         _______ _______ _______ _____ _____    ______ ____
ROOT
ATOM      1  C   UNL     1       7.847   6.848  18.396  0.00  0.00    +0.000 A 
ATOM      2  C   UNL     1       7.211   7.372  17.292  0.00  0.00    +0.000 A 
ATOM      3  C   UNL     1       7.601   8.728  17.208  0.00  0.00    +0.000 A 
ATOM      4  C   UNL     1       8.442   8.969  18.275  0.00  0.00    +0.000 A 
ATOM      5  O   UNL     1       8.611   7.813  18.990  0.00  0.00    +0.000 OA
ENDROOT
BRANCH   4   6
ATOM      6  C   UNL     1       9.091  10.171  18.786  0.00  0.00    +0.000 A 
ATOM      7  C   UNL     1       9.411  11.235  17.923  0.00  0.00    +0.000 A 
ATOM      8  C   UNL     1       9.933  12.433  18.424  0.00  0.00    +0.000 A 
ATOM      9  C   UNL     1      10.151  12.568  19.792  0.00  0.00    +0.000 A 
ATOM     10 BR   UNL     1      10.814  14.196  20.484  0.00  0.00    +0.000 Br
ATOM     11  C   UNL     1       9.866  11.517  20.659  0.00  0.00    +0.000 A 
ATOM     12  C   UNL     1       9.344  10.324  20.156  0.00  0.00    +0.000 A 
ENDBRANCH   4   6
BRANCH   1  13
ATOM     13  C   UNL     1       7.820   5.500  19.040  0.00  0.00    +0.000 C 
BRANCH  13  18
ATOM     14  N   UNL     1       3.650   4.012  18.843  0.00  0.00    +0.000 N 
ATOM     15  N   UNL     1       3.795   5.035  19.698  0.00  0.00    +0.000 NA
ATOM     16  N   UNL     1       5.083   5.344  19.622  0.00  0.00    +0.000 NA
ATOM     17  C   UNL     1       5.647   4.477  18.718  0.00  0.00    +0.000 A 
ATOM     18  N   UNL     1       6.946   4.543  18.394  0.00  0.00    +0.000 N 
ATOM     19  N   UNL     1       4.769   3.606  18.214  0.00  0.00    +0.000 NA
ATOM     20  H   UNL     1       7.379   3.771  17.915  0.00  0.00    +0.000 HD
BRANCH  14  22
ATOM     21  C   UNL     1       1.292   3.913  19.546  0.00  0.00    +0.000 C 
ATOM     22  C   UNL     1       2.360   3.410  18.593  0.00  0.00    +0.000 C 
ENDBRANCH  14  22
ENDBRANCH  13  18
ENDBRANCH   1  13
TORSDOF 4
ENDMDL
MODEL 7
REMARK VINA RESULT:      -7.1      0.952      1.634
REMARK  Name = 
REMARK  5 active torsions:
REMARK  status: ('A' for Active; 'I' for Inactive)
REMARK    1  A    between atoms: C_1  and  C_2
REMARK    2  A    between atoms: C_2  and  N_3
REMARK    3  A    between atoms: N_7  and  C_8
REMARK    4  A    between atoms: C_8  and  C_9
REMARK    5  A    between atoms: C_12  and  C_13
REMARK                            x       y       z     vdW  Elec       q    Type
REMARK                         _______ _______ _______ _____ _____    ______ ____
ROOT
ATOM      1  C   UNL     1       4.505   4.841  18.598  0.00  0.00    +0.000 A 
ATOM      2  C   UNL     1       3.383   4.041  18.635  0.00  0.00    +0.000 A 
ATOM      3  C   UNL     1       2.270   4.910  18.704  0.00  0.00    +0.000 A 
ATOM      4  C   UNL     1       2.768   6.196  18.724  0.00  0.00    +0.000 A 
ATOM      5  O   UNL     1       4.135   6.156  18.636  0.00  0.00    +0.000 OA
ENDROOT
BRANCH   4   6
ATOM      6  C   UNL     1       2.147   7.507  18.879  0.00  0.00    +0.000 A 
ATOM      7  C   UNL     1       1.651   7.923  20.128  0.00  0.00    +0.000 A 
ATOM      8  C   UNL     1       1.154   9.218  20.308  0.00  0.00    +0.000 A 
ATOM      9  C   UNL     1       1.137  10.102  19.232  0.00  0.00    +0.000 A 
ATOM     10 BR   UNL     1       0.508  11.867  19.474  0.00  0.00    +0.000 Br
ATOM     11  C   UNL     1       1.598   9.701  17.982  0.00  0.00    +0.000 A 
ATOM     12  C   UNL     1       2.095   8.409  17.807  0.00  0.00    +0.000 A 
ENDBRANCH   4   6
BRANCH   1  13
ATOM     13  C   UNL     1       5.967   4.540  18.562  0.00  0.00    +0.000 C 
BRANCH  13  18
ATOM     14  N   UNL     1       7.070   4.761  14.275  0.00  0.00    +0.000 N 
ATOM     15  N   UNL     1       6.246   3.738  14.546  0.00  0.00    +0.000 NA
ATOM     16  N   UNL     1       6.026   3.833  15.851  0.00  0.00    +0.000 NA
ATOM     17  C   UNL     1       6.741   4.917  16.297  0.00  0.00    +0.000 A 
ATOM     18  N   UNL     1       6.713   5.301  17.581  0.00  0.00    +0.000 N 
ATOM     19  N   UNL     1       7.430   5.523  15.326  0.00  0.00    +0.000 NA
ATOM     20  H   UNL     1       7.407   5.943  17.924  0.00  0.00    +0.000 HD
BRANCH  14  22
ATOM     21  C   UNL     1       7.077   3.974  11.942  0.00  0.00    +0.000 C 
ATOM     22  C   UNL     1       7.513   5.041  12.928  0.00  0.00    +0.000 C 
ENDBRANCH  14  22
ENDBRANCH  13  18
ENDBRANCH   1  13
TORSDOF 4
ENDMDL
MODEL 8
REMARK VINA RESULT:      -7.1      5.754      6.736
REMARK  Name = 
REMARK  5 active torsions:
REMARK  status: ('A' for Active; 'I' for Inactive)
REMARK    1  A    between atoms: C_1  and  C_2
REMARK    2  A    between atoms: C_2  and  N_3
REMARK    3  A    between atoms: N_7  and  C_8
REMARK    4  A    between atoms: C_8  and  C_9
REMARK    5  A    between atoms: C_12  and  C_13
REMARK                            x       y       z     vdW  Elec       q    Type
REMARK                         _______ _______ _______ _____ _____    ______ ____
ROOT
ATOM      1  C   UNL     1       7.904   7.032  18.373  0.00  0.00    +0.000 A 
ATOM      2  C   UNL     1       7.192   7.538  17.307  0.00  0.00    +0.000 A 
ATOM      3  C   UNL     1       7.524   8.909  17.214  0.00  0.00    +0.000 A 
ATOM      4  C   UNL     1       8.408   9.176  18.239  0.00  0.00    +0.000 A 
ATOM      5  O   UNL     1       8.660   8.023  18.935  0.00  0.00    +0.000 OA
ENDROOT
BRANCH   4   6
ATOM      6  C   UNL     1       9.034  10.401  18.726  0.00  0.00    +0.000 A 
ATOM      7  C   UNL     1       9.630  10.444  20.000  0.00  0.00    +0.000 A 
ATOM      8  C   UNL     1      10.326  11.579  20.428  0.00  0.00    +0.000 A 
ATOM      9  C   UNL     1      10.419  12.685  19.588  0.00  0.00    +0.000 A 
ATOM     10 BR   UNL     1      11.392  14.207  20.139  0.00  0.00    +0.000 Br
ATOM     11  C   UNL     1       9.813  12.672  18.335  0.00  0.00    +0.000 A 
ATOM     12  C   UNL     1       9.121  11.537  17.910  0.00  0.00    +0.000 A 
ENDBRANCH   4   6
BRANCH   1  13
ATOM     13  C   UNL     1       7.965   5.681  19.006  0.00  0.00    +0.000 C 
BRANCH  13  18
ATOM     14  N   UNL     1       4.132   3.679  18.029  0.00  0.00    +0.000 N 
ATOM     15  N   UNL     1       4.952   3.774  16.972  0.00  0.00    +0.000 NA
ATOM     16  N   UNL     1       6.029   4.385  17.447  0.00  0.00    +0.000 NA
ATOM     17  C   UNL     1       5.794   4.629  18.778  0.00  0.00    +0.000 A 
ATOM     18  N   UNL     1       6.708   5.220  19.560  0.00  0.00    +0.000 N 
ATOM     19  N   UNL     1       4.591   4.208  19.180  0.00  0.00    +0.000 NA
ATOM     20  H   UNL     1       6.434   5.589  20.455  0.00  0.00    +0.000 HD
BRANCH  14  22
ATOM     21  C   UNL     1       1.697   3.999  17.872  0.00  0.00    +0.000 C 
ATOM     22  C   UNL     1       2.851   3.017  17.939  0.00  0.00    +0.000 C 
ENDBRANCH  14  22
ENDBRANCH  13  18
ENDBRANCH   1  13
TORSDOF 4
ENDMDL
MODEL 9
REMARK VINA RESULT:      -7.0      5.723      6.961
REMARK  Name = 
REMARK  5 active torsions:
REMARK  status: ('A' for Active; 'I' for Inactive)
REMARK    1  A    between atoms: C_1  and  C_2
REMARK    2  A    between atoms: C_2  and  N_3
REMARK    3  A    between atoms: N_7  and  C_8
REMARK    4  A    between atoms: C_8  and  C_9
REMARK    5  A    between atoms: C_12  and  C_13
REMARK                            x       y       z     vdW  Elec       q    Type
REMARK                         _______ _______ _______ _____ _____    ______ ____
ROOT
ATOM      1  C   UNL     1       7.751   6.809  18.423  0.00  0.00    +0.000 A 
ATOM      2  C   UNL     1       7.015   7.329  17.381  0.00  0.00    +0.000 A 
ATOM      3  C   UNL     1       7.418   8.676  17.235  0.00  0.00    +0.000 A 
ATOM      4  C   UNL     1       8.368   8.917  18.207  0.00  0.00    +0.000 A 
ATOM      5  O   UNL     1       8.589   7.768  18.920  0.00  0.00    +0.000 OA
ENDROOT
BRANCH   4   6
ATOM      6  C   UNL     1       9.086  10.114  18.630  0.00  0.00    +0.000 A 
ATOM      7  C   UNL     1       9.268  10.397  19.996  0.00  0.00    +0.000 A 
ATOM      8  C   UNL     1      10.048  11.482  20.406  0.00  0.00    +0.000 A 
ATOM      9  C   UNL     1      10.641  12.303  19.450  0.00  0.00    +0.000 A 
ATOM     10 BR   UNL     1      11.731  13.747  19.993  0.00  0.00    +0.000 Br
ATOM     11  C   UNL     1      10.450  12.056  18.094  0.00  0.00    +0.000 A 
ATOM     12  C   UNL     1       9.673  10.970  17.688  0.00  0.00    +0.000 A 
ENDBRANCH   4   6
BRANCH   1  13
ATOM     13  C   UNL     1       7.767   5.472  19.088  0.00  0.00    +0.000 C 
BRANCH  13  18
ATOM     14  N   UNL     1       3.617   3.928  18.905  0.00  0.00    +0.000 N 
ATOM     15  N   UNL     1       3.742   4.982  19.726  0.00  0.00    +0.000 NA
ATOM     16  N   UNL     1       5.027   5.303  19.650  0.00  0.00    +0.000 NA
ATOM     17  C   UNL     1       5.610   4.413  18.782  0.00  0.00    +0.000 A 
ATOM     18  N   UNL     1       6.911   4.482  18.468  0.00  0.00    +0.000 N 
ATOM     19  N   UNL     1       4.746   3.514  18.300  0.00  0.00    +0.000 NA
ATOM     20  H   UNL     1       7.357   3.700  18.019  0.00  0.00    +0.000 HD
BRANCH  14  22
ATOM     21  C   UNL     1       1.638   2.901  19.950  0.00  0.00    +0.000 C 
ATOM     22  C   UNL     1       2.336   3.303  18.665  0.00  0.00    +0.000 C 
ENDBRANCH  14  22
ENDBRANCH  13  18
ENDBRANCH   1  13
TORSDOF 4
ENDMDL
