MODEL 1
REMARK VINA RESULT:      -8.1      0.000      0.000
REMARK  Name = 
REMARK  10 active torsions:
REMARK  status: ('A' for Active; 'I' for Inactive)
REMARK    1  A    between atoms: C_1  and  C_2
REMARK    2  A    between atoms: C_2  and  C_3
REMARK    3  A    between atoms: C_3  and  C_4
REMARK    4  A    between atoms: C_3  and  C_5
REMARK    5  A    between atoms: C_3  and  N_6
REMARK    6  A    between atoms: C_7  and  C_10
REMARK    7  A    between atoms: N_8  and  O_9
REMARK    8  A    between atoms: C_13  and  C_14
REMARK    9  A    between atoms: C_16  and  O_17
REMARK   10  A    between atoms: O_17  and  C_18
REMARK                            x       y       z     vdW  Elec       q    Type
REMARK                         _______ _______ _______ _____ _____    ______ ____
ROOT
ATOM      1  C   UNL     1       3.573   4.793  17.881  0.00  0.00    +0.000 A 
ATOM      2  C   UNL     1       3.157   3.630  17.211  0.00  0.00    +0.000 A 
ATOM      3  C   UNL     1       2.074   2.886  17.672  0.00  0.00    +0.000 A 
ATOM      4  C   UNL     1       1.431   3.305  18.823  0.00  0.00    +0.000 A 
ATOM      5  C   UNL     1       0.289   2.530  19.402  0.00  0.00    +0.000 C 
ATOM      6  N   UNL     1       1.794   4.429  19.482  0.00  0.00    +0.000 NA
ATOM      7  C   UNL     1       2.819   5.179  18.987  0.00  0.00    +0.000 A 
ENDROOT
BRANCH   1   9
ATOM      8  N   UNL     1       5.823   5.798  18.254  0.00  0.00    +0.000 N 
ATOM      9  C   UNL     1       4.811   5.495  17.348  0.00  0.00    +0.000 C 
ATOM     10  N   UNL     1       4.759   5.676  16.056  0.00  0.00    +0.000 NA
ATOM     11  H   UNL     1       5.563   5.676  19.230  0.00  0.00    +0.000 HD
BRANCH   8  12
ATOM     12  C   UNL     1       7.286   5.831  18.056  0.00  0.00    +0.000 C 
ATOM     13  C   UNL     1       7.719   4.619  17.211  0.00  0.00    +0.000 C 
ATOM     14  C   UNL     1       8.044   5.939  19.393  0.00  0.00    +0.000 C 
BRANCH  12  16
ATOM     15  C   UNL     1       8.147   8.308  18.044  0.00  0.00    +0.000 C 
ATOM     16  C   UNL     1       7.610   7.129  17.233  0.00  0.00    +0.000 C 
ENDBRANCH  12  16
ENDBRANCH   8  12
BRANCH  10  17
ATOM     17  O   UNL     1       5.835   6.353  15.505  0.00  0.00    +0.000 OA
ATOM     18  H   UNL     1       6.354   5.629  15.110  0.00  0.00    +0.000 HD
ENDBRANCH  10  17
ENDBRANCH   1   9
BRANCH   7  19
ATOM     19  O   UNL     1       3.107   6.373  19.643  0.00  0.00    +0.000 OA
BRANCH  19  20
ATOM     20  C   UNL     1       2.320   7.475  19.354  0.00  0.00    +0.000 A 
ATOM     21  C   UNL     1       2.230   8.051  18.078  0.00  0.00    +0.000 A 
ATOM     22  C   UNL     1       1.431   9.179  17.858  0.00  0.00    +0.000 A 
ATOM     23  C   UNL     1       0.744   9.758  18.922  0.00  0.00    +0.000 A 
ATOM     24  C   UNL     1       0.861   9.199  20.193  0.00  0.00    +0.000 A 
ATOM     25  F   UNL     1       0.204   9.764  21.215  0.00  0.00    +0.000 F 
ATOM     26  C   UNL     1       1.639   8.067  20.420  0.00  0.00    +0.000 A 
ENDBRANCH  19  20
ENDBRANCH   7  19
TORSDOF 6
ENDMDL
MODEL 2
REMARK VINA RESULT:      -8.0      1.754      5.041
REMARK  Name = 
REMARK  10 active torsions:
REMARK  status: ('A' for Active; 'I' for Inactive)
REMARK    1  A    between atoms: C_1  and  C_2
REMARK    2  A    between atoms: C_2  and  C_3
REMARK    3  A    between atoms: C_3  and  C_4
REMARK    4  A    between atoms: C_3  and  C_5
REMARK    5  A    between atoms: C_3  and  N_6
REMARK    6  A    between atoms: C_7  and  C_10
REMARK    7  A    between atoms: N_8  and  O_9
REMARK    8  A    between atoms: C_13  and  C_14
REMARK    9  A    between atoms: C_16  and  O_17
REMARK   10  A    between atoms: O_17  and  C_18
REMARK                            x       y       z     vdW  Elec       q    Type
REMARK                         _______ _______ _______ _____ _____    ______ ____
ROOT
ATOM      1  C   UNL     1       5.437   5.149  18.749  0.00  0.00    +0.000 A 
ATOM      2  C   UNL     1       6.784   5.220  19.144  0.00  0.00    +0.000 A 
ATOM      3  C   UNL     1       7.600   6.266  18.723  0.00  0.00    +0.000 A 
ATOM      4  C   UNL     1       7.060   7.224  17.882  0.00  0.00    +0.000 A 
ATOM      5  C   UNL     1       7.890   8.351  17.353  0.00  0.00    +0.000 C 
ATOM      6  N   UNL     1       5.764   7.196  17.498  0.00  0.00    +0.000 NA
ATOM      7  C   UNL     1       4.961   6.197  17.964  0.00  0.00    +0.000 A 
ENDROOT
BRANCH   1   9
ATOM      8  N   UNL     1       3.258   4.000  19.130  0.00  0.00    +0.000 N 
ATOM      9  C   UNL     1       4.646   3.930  19.196  0.00  0.00    +0.000 C 
ATOM     10  N   UNL     1       5.422   2.940  19.547  0.00  0.00    +0.000 NA
ATOM     11  H   UNL     1       2.892   4.932  18.951  0.00  0.00    +0.000 HD
BRANCH   8  12
ATOM     12  C   UNL     1       2.274   2.938  18.837  0.00  0.00    +0.000 C 
ATOM     13  C   UNL     1       2.904   1.900  17.890  0.00  0.00    +0.000 C 
ATOM     14  C   UNL     1       0.948   3.516  18.307  0.00  0.00    +0.000 C 
BRANCH  12  16
ATOM     15  C   UNL     1       1.522   3.130  21.341  0.00  0.00    +0.000 C 
ATOM     16  C   UNL     1       1.957   2.217  20.195  0.00  0.00    +0.000 C 
ENDBRANCH  12  16
ENDBRANCH   8  12
BRANCH  10  17
ATOM     17  O   UNL     1       4.771   1.809  20.011  0.00  0.00    +0.000 OA
ATOM     18  H   UNL     1       5.290   1.582  20.804  0.00  0.00    +0.000 HD
ENDBRANCH  10  17
ENDBRANCH   1   9
BRANCH   7  19
ATOM     19  O   UNL     1       3.614   6.250  17.617  0.00  0.00    +0.000 OA
BRANCH  19  20
ATOM     20  C   UNL     1       2.834   7.233  18.203  0.00  0.00    +0.000 A 
ATOM     21  C   UNL     1       2.466   8.421  17.553  0.00  0.00    +0.000 A 
ATOM     22  C   UNL     1       1.693   9.385  18.210  0.00  0.00    +0.000 A 
ATOM     23  C   UNL     1       1.313   9.181  19.534  0.00  0.00    +0.000 A 
ATOM     24  C   UNL     1       1.706   8.013  20.184  0.00  0.00    +0.000 A 
ATOM     25  F   UNL     1       1.344   7.825  21.459  0.00  0.00    +0.000 F 
ATOM     26  C   UNL     1       2.460   7.040  19.534  0.00  0.00    +0.000 A 
ENDBRANCH  19  20
ENDBRANCH   7  19
TORSDOF 6
ENDMDL
MODEL 3
REMARK VINA RESULT:      -7.9      1.844      5.045
REMARK  Name = 
REMARK  10 active torsions:
REMARK  status: ('A' for Active; 'I' for Inactive)
REMARK    1  A    between atoms: C_1  and  C_2
REMARK    2  A    between atoms: C_2  and  C_3
REMARK    3  A    between atoms: C_3  and  C_4
REMARK    4  A    between atoms: C_3  and  C_5
REMARK    5  A    between atoms: C_3  and  N_6
REMARK    6  A    between atoms: C_7  and  C_10
REMARK    7  A    between atoms: N_8  and  O_9
REMARK    8  A    between atoms: C_13  and  C_14
REMARK    9  A    between atoms: C_16  and  O_17
REMARK   10  A    between atoms: O_17  and  C_18
REMARK                            x       y       z     vdW  Elec       q    Type
REMARK                         _______ _______ _______ _____ _____    ______ ____
ROOT
ATOM      1  C   UNL     1       5.223   5.078  18.130  0.00  0.00    +0.000 A 
ATOM      2  C   UNL     1       6.571   4.936  18.505  0.00  0.00    +0.000 A 
ATOM      3  C   UNL     1       7.470   5.989  18.358  0.00  0.00    +0.000 A 
ATOM      4  C   UNL     1       7.011   7.173  17.807  0.00  0.00    +0.000 A 
ATOM      5  C   UNL     1       7.932   8.330  17.576  0.00  0.00    +0.000 C 
ATOM      6  N   UNL     1       5.719   7.348  17.452  0.00  0.00    +0.000 NA
ATOM      7  C   UNL     1       4.837   6.329  17.655  0.00  0.00    +0.000 A 
ENDROOT
BRANCH   1   9
ATOM      8  N   UNL     1       3.334   3.874  19.222  0.00  0.00    +0.000 N 
ATOM      9  C   UNL     1       4.335   3.851  18.256  0.00  0.00    +0.000 C 
ATOM     10  N   UNL     1       4.628   2.936  17.371  0.00  0.00    +0.000 NA
ATOM     11  H   UNL     1       3.401   4.649  19.878  0.00  0.00    +0.000 HD
BRANCH   8  12
ATOM     12  C   UNL     1       1.990   3.263  19.200  0.00  0.00    +0.000 C 
ATOM     13  C   UNL     1       2.118   1.732  19.298  0.00  0.00    +0.000 C 
ATOM     14  C   UNL     1       1.170   3.726  17.980  0.00  0.00    +0.000 C 
BRANCH  12  16
ATOM     15  C   UNL     1       1.597   3.043  21.783  0.00  0.00    +0.000 C 
ATOM     16  C   UNL     1       1.236   3.763  20.484  0.00  0.00    +0.000 C 
ENDBRANCH  12  16
ENDBRANCH   8  12
BRANCH  10  17
ATOM     17  O   UNL     1       3.889   1.768  17.455  0.00  0.00    +0.000 OA
ATOM     18  H   UNL     1       2.976   2.093  17.360  0.00  0.00    +0.000 HD
ENDBRANCH  10  17
ENDBRANCH   1   9
BRANCH   7  19
ATOM     19  O   UNL     1       3.499   6.577  17.358  0.00  0.00    +0.000 OA
BRANCH  19  20
ATOM     20  C   UNL     1       2.777   7.365  18.238  0.00  0.00    +0.000 A 
ATOM     21  C   UNL     1       2.487   6.988  19.558  0.00  0.00    +0.000 A 
ATOM     22  C   UNL     1       1.732   7.823  20.390  0.00  0.00    +0.000 A 
ATOM     23  C   UNL     1       1.235   9.025  19.895  0.00  0.00    +0.000 A 
ATOM     24  C   UNL     1       1.502   9.382  18.575  0.00  0.00    +0.000 A 
ATOM     25  F   UNL     1       1.015  10.536  18.101  0.00  0.00    +0.000 F 
ATOM     26  C   UNL     1       2.265   8.567  17.743  0.00  0.00    +0.000 A 
ENDBRANCH  19  20
ENDBRANCH   7  19
TORSDOF 6
ENDMDL
MODEL 4
REMARK VINA RESULT:      -7.8      0.897      1.326
REMARK  Name = 
REMARK  10 active torsions:
REMARK  status: ('A' for Active; 'I' for Inactive)
REMARK    1  A    between atoms: C_1  and  C_2
REMARK    2  A    between atoms: C_2  and  C_3
REMARK    3  A    between atoms: C_3  and  C_4
REMARK    4  A    between atoms: C_3  and  C_5
REMARK    5  A    between atoms: C_3  and  N_6
REMARK    6  A    between atoms: C_7  and  C_10
REMARK    7  A    between atoms: N_8  and  O_9
REMARK    8  A    between atoms: C_13  and  C_14
REMARK    9  A    between atoms: C_16  and  O_17
REMARK   10  A    between atoms: O_17  and  C_18
REMARK                            x       y       z     vdW  Elec       q    Type
REMARK                         _______ _______ _______ _____ _____    ______ ____
ROOT
ATOM      1  C   UNL     1       3.585   4.684  17.875  0.00  0.00    +0.000 A 
ATOM      2  C   UNL     1       3.080   3.597  17.139  0.00  0.00    +0.000 A 
ATOM      3  C   UNL     1       1.992   2.863  17.601  0.00  0.00    +0.000 A 
ATOM      4  C   UNL     1       1.433   3.211  18.818  0.00  0.00    +0.000 A 
ATOM      5  C   UNL     1       0.291   2.437  19.398  0.00  0.00    +0.000 C 
ATOM      6  N   UNL     1       1.881   4.260  19.542  0.00  0.00    +0.000 NA
ATOM      7  C   UNL     1       2.911   5.007  19.050  0.00  0.00    +0.000 A 
ENDROOT
BRANCH   1   9
ATOM      8  N   UNL     1       5.803   5.761  18.238  0.00  0.00    +0.000 N 
ATOM      9  C   UNL     1       4.822   5.376  17.328  0.00  0.00    +0.000 C 
ATOM     10  N   UNL     1       4.801   5.471  16.026  0.00  0.00    +0.000 NA
ATOM     11  H   UNL     1       5.519   5.698  19.213  0.00  0.00    +0.000 HD
BRANCH   8  12
ATOM     12  C   UNL     1       7.270   5.813  18.075  0.00  0.00    +0.000 C 
ATOM     13  C   UNL     1       7.737   4.616  17.229  0.00  0.00    +0.000 C 
ATOM     14  C   UNL     1       7.993   5.917  19.432  0.00  0.00    +0.000 C 
BRANCH  12  16
ATOM     15  C   UNL     1       8.149   8.283  18.103  0.00  0.00    +0.000 C 
ATOM     16  C   UNL     1       7.598   7.123  17.274  0.00  0.00    +0.000 C 
ENDBRANCH  12  16
ENDBRANCH   8  12
BRANCH  10  17
ATOM     17  O   UNL     1       5.878   6.134  15.459  0.00  0.00    +0.000 OA
ATOM     18  H   UNL     1       5.501   7.011  15.264  0.00  0.00    +0.000 HD
ENDBRANCH  10  17
ENDBRANCH   1   9
BRANCH   7  19
ATOM     19  O   UNL     1       3.289   6.130  19.782  0.00  0.00    +0.000 OA
BRANCH  19  20
ATOM     20  C   UNL     1       2.445   7.229  19.759  0.00  0.00    +0.000 A 
ATOM     21  C   UNL     1       1.622   7.596  20.834  0.00  0.00    +0.000 A 
ATOM     22  C   UNL     1       0.776   8.707  20.738  0.00  0.00    +0.000 A 
ATOM     23  C   UNL     1       0.724   9.436  19.553  0.00  0.00    +0.000 A 
ATOM     24  C   UNL     1       1.522   9.049  18.479  0.00  0.00    +0.000 A 
ATOM     25  F   UNL     1       1.463   9.749  17.339  0.00  0.00    +0.000 F 
ATOM     26  C   UNL     1       2.380   7.956  18.569  0.00  0.00    +0.000 A 
ENDBRANCH  19  20
ENDBRANCH   7  19
TORSDOF 6
ENDMDL
MODEL 5
REMARK VINA RESULT:      -7.8      1.777      4.995
REMARK  Name = 
REMARK  10 active torsions:
REMARK  status: ('A' for Active; 'I' for Inactive)
REMARK    1  A    between atoms: C_1  and  C_2
REMARK    2  A    between atoms: C_2  and  C_3
REMARK    3  A    between atoms: C_3  and  C_4
REMARK    4  A    between atoms: C_3  and  C_5
REMARK    5  A    between atoms: C_3  and  N_6
REMARK    6  A    between atoms: C_7  and  C_10
REMARK    7  A    between atoms: N_8  and  O_9
REMARK    8  A    between atoms: C_13  and  C_14
REMARK    9  A    between atoms: C_16  and  O_17
REMARK   10  A    between atoms: O_17  and  C_18
REMARK                            x       y       z     vdW  Elec       q    Type
REMARK                         _______ _______ _______ _____ _____    ______ ____
ROOT
ATOM      1  C   UNL     1       5.468   5.058  18.943  0.00  0.00    +0.000 A 
ATOM      2  C   UNL     1       6.827   5.172  19.285  0.00  0.00    +0.000 A 
ATOM      3  C   UNL     1       7.608   6.208  18.781  0.00  0.00    +0.000 A 
ATOM      4  C   UNL     1       7.021   7.111  17.912  0.00  0.00    +0.000 A 
ATOM      5  C   UNL     1       7.812   8.222  17.295  0.00  0.00    +0.000 C 
ATOM      6  N   UNL     1       5.714   7.041  17.577  0.00  0.00    +0.000 NA
ATOM      7  C   UNL     1       4.946   6.055  18.122  0.00  0.00    +0.000 A 
ENDROOT
BRANCH   1   9
ATOM      8  N   UNL     1       3.344   3.977  19.672  0.00  0.00    +0.000 N 
ATOM      9  C   UNL     1       4.717   3.851  19.481  0.00  0.00    +0.000 C 
ATOM     10  N   UNL     1       5.497   2.817  19.648  0.00  0.00    +0.000 NA
ATOM     11  H   UNL     1       2.995   4.929  19.597  0.00  0.00    +0.000 HD
BRANCH   8  12
ATOM     12  C   UNL     1       2.276   2.967  19.523  0.00  0.00    +0.000 C 
ATOM     13  C   UNL     1       1.860   2.449  20.911  0.00  0.00    +0.000 C 
ATOM     14  C   UNL     1       2.683   1.841  18.552  0.00  0.00    +0.000 C 
BRANCH  12  16
ATOM     15  C   UNL     1       1.164   4.054  17.412  0.00  0.00    +0.000 C 
ATOM     16  C   UNL     1       1.037   3.698  18.893  0.00  0.00    +0.000 C 
ENDBRANCH  12  16
ENDBRANCH   8  12
BRANCH  10  17
ATOM     17  O   UNL     1       4.889   1.692  20.180  0.00  0.00    +0.000 OA
ATOM     18  H   UNL     1       4.073   1.629  19.652  0.00  0.00    +0.000 HD
ENDBRANCH  10  17
ENDBRANCH   1   9
BRANCH   7  19
ATOM     19  O   UNL     1       3.587   6.067  17.822  0.00  0.00    +0.000 OA
BRANCH  19  20
ATOM     20  C   UNL     1       2.828   7.122  18.301  0.00  0.00    +0.000 A 
ATOM     21  C   UNL     1       2.517   8.261  17.543  0.00  0.00    +0.000 A 
ATOM     22  C   UNL     1       1.764   9.303  18.096  0.00  0.00    +0.000 A 
ATOM     23  C   UNL     1       1.346   9.227  19.422  0.00  0.00    +0.000 A 
ATOM     24  C   UNL     1       1.683   8.107  20.179  0.00  0.00    +0.000 A 
ATOM     25  F   UNL     1       1.286   8.040  21.456  0.00  0.00    +0.000 F 
ATOM     26  C   UNL     1       2.418   7.057  19.634  0.00  0.00    +0.000 A 
ENDBRANCH  19  20
ENDBRANCH   7  19
TORSDOF 6
ENDMDL
MODEL 6
REMARK VINA RESULT:      -7.6      2.087      4.317
REMARK  Name = 
REMARK  10 active torsions:
REMARK  status: ('A' for Active; 'I' for Inactive)
REMARK    1  A    between atoms: C_1  and  C_2
REMARK    2  A    between atoms: C_2  and  C_3
REMARK    3  A    between atoms: C_3  and  C_4
REMARK    4  A    between atoms: C_3  and  C_5
REMARK    5  A    between atoms: C_3  and  N_6
REMARK    6  A    between atoms: C_7  and  C_10
REMARK    7  A    between atoms: N_8  and  O_9
REMARK    8  A    between atoms: C_13  and  C_14
REMARK    9  A    between atoms: C_16  and  O_17
REMARK   10  A    between atoms: O_17  and  C_18
REMARK                            x       y       z     vdW  Elec       q    Type
REMARK                         _______ _______ _______ _____ _____    ______ ____
ROOT
ATOM      1  C   UNL     1       3.120   7.879  18.077  0.00  0.00    +0.000 A 
ATOM      2  C   UNL     1       2.589   9.093  17.606  0.00  0.00    +0.000 A 
ATOM      3  C   UNL     1       1.533   9.716  18.265  0.00  0.00    +0.000 A 
ATOM      4  C   UNL     1       1.000   9.098  19.382  0.00  0.00    +0.000 A 
ATOM      5  C   UNL     1      -0.166   9.687  20.113  0.00  0.00    +0.000 C 
ATOM      6  N   UNL     1       1.498   7.941  19.872  0.00  0.00    +0.000 NA
ATOM      7  C   UNL     1       2.569   7.371  19.250  0.00  0.00    +0.000 A 
ENDROOT
BRANCH   1   9
ATOM      8  N   UNL     1       5.224   6.551  17.926  0.00  0.00    +0.000 N 
ATOM      9  C   UNL     1       4.220   7.236  17.248  0.00  0.00    +0.000 C 
ATOM     10  N   UNL     1       4.026   7.389  15.965  0.00  0.00    +0.000 NA
ATOM     11  H   UNL     1       5.223   6.693  18.933  0.00  0.00    +0.000 HD
BRANCH   8  12
ATOM     12  C   UNL     1       5.982   5.349  17.523  0.00  0.00    +0.000 C 
ATOM     13  C   UNL     1       7.096   5.749  16.539  0.00  0.00    +0.000 C 
ATOM     14  C   UNL     1       5.057   4.245  16.976  0.00  0.00    +0.000 C 
BRANCH  12  16
ATOM     15  C   UNL     1       7.805   5.630  19.386  0.00  0.00    +0.000 C 
ATOM     16  C   UNL     1       6.667   4.782  18.817  0.00  0.00    +0.000 C 
ENDBRANCH  12  16
ENDBRANCH   8  12
BRANCH  10  17
ATOM     17  O   UNL     1       5.015   6.868  15.147  0.00  0.00    +0.000 OA
ATOM     18  H   UNL     1       5.216   7.620  14.561  0.00  0.00    +0.000 HD
ENDBRANCH  10  17
ENDBRANCH   1   9
BRANCH   7  19
ATOM     19  O   UNL     1       3.108   6.227  19.833  0.00  0.00    +0.000 OA
BRANCH  19  20
ATOM     20  C   UNL     1       2.388   5.048  19.730  0.00  0.00    +0.000 A 
ATOM     21  C   UNL     1       1.900   4.541  18.517  0.00  0.00    +0.000 A 
ATOM     22  C   UNL     1       1.160   3.354  18.485  0.00  0.00    +0.000 A 
ATOM     23  C   UNL     1       0.873   2.685  19.672  0.00  0.00    +0.000 A 
ATOM     24  C   UNL     1       1.335   3.209  20.878  0.00  0.00    +0.000 A 
ATOM     25  F   UNL     1       1.052   2.567  22.018  0.00  0.00    +0.000 F 
ATOM     26  C   UNL     1       2.087   4.381  20.919  0.00  0.00    +0.000 A 
ENDBRANCH  19  20
ENDBRANCH   7  19
TORSDOF 6
ENDMDL
MODEL 7
REMARK VINA RESULT:      -7.5      1.202      1.369
REMARK  Name = 
REMARK  10 active torsions:
REMARK  status: ('A' for Active; 'I' for Inactive)
REMARK    1  A    between atoms: C_1  and  C_2
REMARK    2  A    between atoms: C_2  and  C_3
REMARK    3  A    between atoms: C_3  and  C_4
REMARK    4  A    between atoms: C_3  and  C_5
REMARK    5  A    between atoms: C_3  and  N_6
REMARK    6  A    between atoms: C_7  and  C_10
REMARK    7  A    between atoms: N_8  and  O_9
REMARK    8  A    between atoms: C_13  and  C_14
REMARK    9  A    between atoms: C_16  and  O_17
REMARK   10  A    between atoms: O_17  and  C_18
REMARK                            x       y       z     vdW  Elec       q    Type
REMARK                         _______ _______ _______ _____ _____    ______ ____
ROOT
ATOM      1  C   UNL     1       3.675   4.101  18.576  0.00  0.00    +0.000 A 
ATOM      2  C   UNL     1       3.140   2.803  18.498  0.00  0.00    +0.000 A 
ATOM      3  C   UNL     1       2.284   2.321  19.484  0.00  0.00    +0.000 A 
ATOM      4  C   UNL     1       1.994   3.141  20.561  0.00  0.00    +0.000 A 
ATOM      5  C   UNL     1       1.119   2.671  21.681  0.00  0.00    +0.000 C 
ATOM      6  N   UNL     1       2.477   4.399  20.658  0.00  0.00    +0.000 NA
ATOM      7  C   UNL     1       3.267   4.880  19.656  0.00  0.00    +0.000 A 
ENDROOT
BRANCH   1   9
ATOM      8  N   UNL     1       5.568   5.521  17.793  0.00  0.00    +0.000 N 
ATOM      9  C   UNL     1       4.658   4.512  17.492  0.00  0.00    +0.000 C 
ATOM     10  N   UNL     1       4.528   3.794  16.409  0.00  0.00    +0.000 NA
ATOM     11  H   UNL     1       5.375   6.015  18.661  0.00  0.00    +0.000 HD
BRANCH   8  12
ATOM     12  C   UNL     1       6.960   5.702  17.335  0.00  0.00    +0.000 C 
ATOM     13  C   UNL     1       6.962   6.271  15.905  0.00  0.00    +0.000 C 
ATOM     14  C   UNL     1       7.782   4.405  17.472  0.00  0.00    +0.000 C 
BRANCH  12  16
ATOM     15  C   UNL     1       7.842   8.150  17.656  0.00  0.00    +0.000 C 
ATOM     16  C   UNL     1       7.620   6.771  18.277  0.00  0.00    +0.000 C 
ENDBRANCH  12  16
ENDBRANCH   8  12
BRANCH  10  17
ATOM     17  O   UNL     1       5.362   4.143  15.359  0.00  0.00    +0.000 OA
ATOM     18  H   UNL     1       5.008   3.607  14.627  0.00  0.00    +0.000 HD
ENDBRANCH  10  17
ENDBRANCH   1   9
BRANCH   7  19
ATOM     19  O   UNL     1       3.674   6.208  19.749  0.00  0.00    +0.000 OA
BRANCH  19  20
ATOM     20  C   UNL     1       2.782   7.187  19.344  0.00  0.00    +0.000 A 
ATOM     21  C   UNL     1       2.733   7.701  18.040  0.00  0.00    +0.000 A 
ATOM     22  C   UNL     1       1.821   8.707  17.701  0.00  0.00    +0.000 A 
ATOM     23  C   UNL     1       0.974   9.229  18.676  0.00  0.00    +0.000 A 
ATOM     24  C   UNL     1       1.047   8.735  19.976  0.00  0.00    +0.000 A 
ATOM     25  F   UNL     1       0.236   9.244  20.912  0.00  0.00    +0.000 F 
ATOM     26  C   UNL     1       1.939   7.723  20.320  0.00  0.00    +0.000 A 
ENDBRANCH  19  20
ENDBRANCH   7  19
TORSDOF 6
ENDMDL
MODEL 8
REMARK VINA RESULT:      -7.5      2.233      2.998
REMARK  Name = 
REMARK  10 active torsions:
REMARK  status: ('A' for Active; 'I' for Inactive)
REMARK    1  A    between atoms: C_1  and  C_2
REMARK    2  A    between atoms: C_2  and  C_3
REMARK    3  A    between atoms: C_3  and  C_4
REMARK    4  A    between atoms: C_3  and  C_5
REMARK    5  A    between atoms: C_3  and  N_6
REMARK    6  A    between atoms: C_7  and  C_10
REMARK    7  A    between atoms: N_8  and  O_9
REMARK    8  A    between atoms: C_13  and  C_14
REMARK    9  A    between atoms: C_16  and  O_17
REMARK   10  A    between atoms: O_17  and  C_18
REMARK                            x       y       z     vdW  Elec       q    Type
REMARK                         _______ _______ _______ _____ _____    ______ ____
ROOT
ATOM      1  C   UNL     1       4.326   3.693  19.246  0.00  0.00    +0.000 A 
ATOM      2  C   UNL     1       4.525   2.620  20.132  0.00  0.00    +0.000 A 
ATOM      3  C   UNL     1       3.514   2.206  20.995  0.00  0.00    +0.000 A 
ATOM      4  C   UNL     1       2.315   2.896  20.981  0.00  0.00    +0.000 A 
ATOM      5  C   UNL     1       1.201   2.537  21.914  0.00  0.00    +0.000 C 
ATOM      6  N   UNL     1       2.084   3.921  20.131  0.00  0.00    +0.000 NA
ATOM      7  C   UNL     1       3.062   4.278  19.250  0.00  0.00    +0.000 A 
ENDROOT
BRANCH   1   9
ATOM      8  N   UNL     1       5.382   4.033  17.014  0.00  0.00    +0.000 N 
ATOM      9  C   UNL     1       5.512   4.120  18.397  0.00  0.00    +0.000 C 
ATOM     10  N   UNL     1       6.502   4.568  19.121  0.00  0.00    +0.000 NA
ATOM     11  H   UNL     1       4.559   3.523  16.701  0.00  0.00    +0.000 HD
BRANCH   8  12
ATOM     12  C   UNL     1       5.952   4.894  15.958  0.00  0.00    +0.000 C 
ATOM     13  C   UNL     1       7.467   4.647  15.855  0.00  0.00    +0.000 C 
ATOM     14  C   UNL     1       5.592   6.377  16.171  0.00  0.00    +0.000 C 
BRANCH  12  16
ATOM     15  C   UNL     1       6.270   3.907  13.550  0.00  0.00    +0.000 C 
ATOM     16  C   UNL     1       5.300   4.449  14.600  0.00  0.00    +0.000 C 
ENDBRANCH  12  16
ENDBRANCH   8  12
BRANCH  10  17
ATOM     17  O   UNL     1       7.638   4.933  18.416  0.00  0.00    +0.000 OA
ATOM     18  H   UNL     1       7.264   5.266  17.581  0.00  0.00    +0.000 HD
ENDBRANCH  10  17
ENDBRANCH   1   9
BRANCH   7  19
ATOM     19  O   UNL     1       2.757   5.280  18.332  0.00  0.00    +0.000 OA
BRANCH  19  20
ATOM     20  C   UNL     1       2.361   6.512  18.828  0.00  0.00    +0.000 A 
ATOM     21  C   UNL     1       2.001   6.730  20.165  0.00  0.00    +0.000 A 
ATOM     22  C   UNL     1       1.589   7.996  20.596  0.00  0.00    +0.000 A 
ATOM     23  C   UNL     1       1.501   9.043  19.683  0.00  0.00    +0.000 A 
ATOM     24  C   UNL     1       1.832   8.813  18.350  0.00  0.00    +0.000 A 
ATOM     25  F   UNL     1       1.740   9.821  17.473  0.00  0.00    +0.000 F 
ATOM     26  C   UNL     1       2.259   7.562  17.913  0.00  0.00    +0.000 A 
ENDBRANCH  19  20
ENDBRANCH   7  19
TORSDOF 6
ENDMDL
MODEL 9
REMARK VINA RESULT:      -7.4      1.946      5.130
REMARK  Name = 
REMARK  10 active torsions:
REMARK  status: ('A' for Active; 'I' for Inactive)
REMARK    1  A    between atoms: C_1  and  C_2
REMARK    2  A    between atoms: C_2  and  C_3
REMARK    3  A    between atoms: C_3  and  C_4
REMARK    4  A    between atoms: C_3  and  C_5
REMARK    5  A    between atoms: C_3  and  N_6
REMARK    6  A    between atoms: C_7  and  C_10
REMARK    7  A    between atoms: N_8  and  O_9
REMARK    8  A    between atoms: C_13  and  C_14
REMARK    9  A    between atoms: C_16  and  O_17
REMARK   10  A    between atoms: O_17  and  C_18
REMARK                            x       y       z     vdW  Elec       q    Type
REMARK                         _______ _______ _______ _____ _____    ______ ____
ROOT
ATOM      1  C   UNL     1       5.298   4.974  19.106  0.00  0.00    +0.000 A 
ATOM      2  C   UNL     1       6.682   5.053  19.338  0.00  0.00    +0.000 A 
ATOM      3  C   UNL     1       7.459   6.027  18.717  0.00  0.00    +0.000 A 
ATOM      4  C   UNL     1       6.839   6.901  17.841  0.00  0.00    +0.000 A 
ATOM      5  C   UNL     1       7.619   7.943  17.102  0.00  0.00    +0.000 C 
ATOM      6  N   UNL     1       5.508   6.865  17.609  0.00  0.00    +0.000 NA
ATOM      7  C   UNL     1       4.750   5.943  18.269  0.00  0.00    +0.000 A 
ENDROOT
BRANCH   1   9
ATOM      8  N   UNL     1       3.238   4.068  20.178  0.00  0.00    +0.000 N 
ATOM      9  C   UNL     1       4.547   3.831  19.770  0.00  0.00    +0.000 C 
ATOM     10  N   UNL     1       5.258   2.736  19.819  0.00  0.00    +0.000 NA
ATOM     11  H   UNL     1       2.960   5.046  20.151  0.00  0.00    +0.000 HD
BRANCH   8  12
ATOM     12  C   UNL     1       2.082   3.149  20.213  0.00  0.00    +0.000 C 
ATOM     13  C   UNL     1       0.786   3.944  19.972  0.00  0.00    +0.000 C 
ATOM     14  C   UNL     1       2.050   2.316  21.509  0.00  0.00    +0.000 C 
BRANCH  12  16
ATOM     15  C   UNL     1       2.188   2.761  17.623  0.00  0.00    +0.000 C 
ATOM     16  C   UNL     1       2.257   2.144  19.019  0.00  0.00    +0.000 C 
ENDBRANCH  12  16
ENDBRANCH   8  12
BRANCH  10  17
ATOM     17  O   UNL     1       4.655   1.663  20.453  0.00  0.00    +0.000 OA
ATOM     18  H   UNL     1       5.285   0.940  20.281  0.00  0.00    +0.000 HD
ENDBRANCH  10  17
ENDBRANCH   1   9
BRANCH   7  19
ATOM     19  O   UNL     1       3.373   5.992  18.070  0.00  0.00    +0.000 OA
BRANCH  19  20
ATOM     20  C   UNL     1       2.677   7.051  18.630  0.00  0.00    +0.000 A 
ATOM     21  C   UNL     1       2.285   7.095  19.976  0.00  0.00    +0.000 A 
ATOM     22  C   UNL     1       1.563   8.186  20.474  0.00  0.00    +0.000 A 
ATOM     23  C   UNL     1       1.199   9.223  19.619  0.00  0.00    +0.000 A 
ATOM     24  C   UNL     1       1.566   9.160  18.277  0.00  0.00    +0.000 A 
ATOM     25  F   UNL     1       1.208  10.155  17.456  0.00  0.00    +0.000 F 
ATOM     26  C   UNL     1       2.298   8.087  17.774  0.00  0.00    +0.000 A 
ENDBRANCH  19  20
ENDBRANCH   7  19
TORSDOF 6
ENDMDL
