MODEL 1
REMARK VINA RESULT:      -9.3      0.000      0.000
REMARK  Name = 
REMARK  13 active torsions:
REMARK  status: ('A' for Active; 'I' for Inactive)
REMARK    1  A    between atoms: C_1  and  O_2
REMARK    2  A    between atoms: O_2  and  C_3
REMARK    3  A    between atoms: C_9  and  O_10
REMARK    4  A    between atoms: O_10  and  C_11
REMARK    5  A    between atoms: C_14  and  N_15
REMARK    6  A    between atoms: N_15  and  C_16
REMARK    7  A    between atoms: C_19  and  C_20
REMARK    8  A    between atoms: C_20  and  C_21
REMARK    9  A    between atoms: C_20  and  C_22
REMARK   10  A    between atoms: C_20  and  C_23
REMARK   11  A    between atoms: C_27  and  C_28
REMARK   12  A    between atoms: C_31  and  O_32
REMARK   13  A    between atoms: O_32  and  C_33
REMARK                            x       y       z     vdW  Elec       q    Type
REMARK                         _______ _______ _______ _____ _____    ______ ____
ROOT
ATOM      1  C   UNL     1       2.229   7.678  19.436  0.00  0.00    +0.000 A 
ATOM      2  C   UNL     1       2.352   8.064  18.089  0.00  0.00    +0.000 A 
ATOM      3  C   UNL     1       1.529   9.057  17.559  0.00  0.00    +0.000 A 
ATOM      4  C   UNL     1       0.638   9.741  18.381  0.00  0.00    +0.000 A 
ATOM      5  C   UNL     1       0.623   9.437  19.754  0.00  0.00    +0.000 A 
ATOM      6  C   UNL     1       1.425   8.424  20.301  0.00  0.00    +0.000 A 
ATOM      7  C   UNL     1       1.396   8.185  21.784  0.00  0.00    +0.000 C 
ENDROOT
BRANCH   4   8
ATOM      8  N   UNL     1      -0.183  10.745  17.823  0.00  0.00    +0.000 N 
ATOM      9  H   UNL     1       0.138  11.064  16.913  0.00  0.00    +0.000 HD
BRANCH   8  10
ATOM     10  C   UNL     1      -1.546  10.951  18.088  0.00  0.00    +0.000 A 
ATOM     11  C   UNL     1      -2.513  10.226  17.388  0.00  0.00    +0.000 A 
ATOM     12  C   UNL     1      -3.868  10.504  17.523  0.00  0.00    +0.000 A 
ATOM     13  C   UNL     1      -4.320  11.513  18.385  0.00  0.00    +0.000 A 
ATOM     14  C   UNL     1      -3.347  12.190  19.145  0.00  0.00    +0.000 A 
ATOM     15  C   UNL     1      -1.978  11.918  18.999  0.00  0.00    +0.000 A 
BRANCH  13  16
ATOM     16  C   UNL     1      -5.811  11.873  18.492  0.00  0.00    +0.000 C 
ATOM     17  C   UNL     1      -6.138  12.746  19.727  0.00  0.00    +0.000 C 
ATOM     18  C   UNL     1      -6.250  12.654  17.240  0.00  0.00    +0.000 C 
ATOM     19  C   UNL     1      -6.657  10.587  18.614  0.00  0.00    +0.000 C 
ENDBRANCH  13  16
ENDBRANCH   8  10
ENDBRANCH   4   8
BRANCH   1  20
ATOM     20  O   UNL     1       2.845   6.526  19.910  0.00  0.00    +0.000 OA
BRANCH  20  27
ATOM     21  C   UNL     1       5.904   4.330  16.512  0.00  0.00    +0.000 A 
ATOM     22  C   UNL     1       4.646   3.703  16.471  0.00  0.00    +0.000 A 
ATOM     23  C   UNL     1       3.624   4.036  17.339  0.00  0.00    +0.000 A 
ATOM     24  N   UNL     1       2.439   3.437  17.155  0.00  0.00    +0.000 NA
ATOM     25  C   UNL     1       1.422   3.777  17.970  0.00  0.00    +0.000 A 
ATOM     26  C   UNL     1       1.535   4.716  18.968  0.00  0.00    +0.000 A 
ATOM     27  C   UNL     1       2.742   5.399  19.100  0.00  0.00    +0.000 A 
ATOM     28  C   UNL     1       3.860   5.016  18.325  0.00  0.00    +0.000 A 
ATOM     29  C   UNL     1       5.156   5.552  18.452  0.00  0.00    +0.000 A 
ATOM     30  C   UNL     1       6.181   5.231  17.548  0.00  0.00    +0.000 A 
BRANCH  21  32
ATOM     31  C   UNL     1       6.708   4.796  14.334  0.00  0.00    +0.000 C 
ATOM     32  O   UNL     1       6.847   4.059  15.554  0.00  0.00    +0.000 OA
ENDBRANCH  21  32
BRANCH  30  33
ATOM     33  O   UNL     1       7.354   5.861  17.848  0.00  0.00    +0.000 OA
ATOM     34  C   UNL     1       7.828   5.852  19.184  0.00  0.00    +0.000 C 
ENDBRANCH  30  33
ENDBRANCH  20  27
ENDBRANCH   1  20
TORSDOF 7
ENDMDL
MODEL 2
REMARK VINA RESULT:      -9.2      0.497      1.222
REMARK  Name = 
REMARK  13 active torsions:
REMARK  status: ('A' for Active; 'I' for Inactive)
REMARK    1  A    between atoms: C_1  and  O_2
REMARK    2  A    between atoms: O_2  and  C_3
REMARK    3  A    between atoms: C_9  and  O_10
REMARK    4  A    between atoms: O_10  and  C_11
REMARK    5  A    between atoms: C_14  and  N_15
REMARK    6  A    between atoms: N_15  and  C_16
REMARK    7  A    between atoms: C_19  and  C_20
REMARK    8  A    between atoms: C_20  and  C_21
REMARK    9  A    between atoms: C_20  and  C_22
REMARK   10  A    between atoms: C_20  and  C_23
REMARK   11  A    between atoms: C_27  and  C_28
REMARK   12  A    between atoms: C_31  and  O_32
REMARK   13  A    between atoms: O_32  and  C_33
REMARK                            x       y       z     vdW  Elec       q    Type
REMARK                         _______ _______ _______ _____ _____    ______ ____
ROOT
ATOM      1  C   UNL     1       2.077   7.729  19.562  0.00  0.00    +0.000 A 
ATOM      2  C   UNL     1       2.243   8.085  18.212  0.00  0.00    +0.000 A 
ATOM      3  C   UNL     1       1.466   9.094  17.644  0.00  0.00    +0.000 A 
ATOM      4  C   UNL     1       0.580   9.823  18.432  0.00  0.00    +0.000 A 
ATOM      5  C   UNL     1       0.524   9.546  19.810  0.00  0.00    +0.000 A 
ATOM      6  C   UNL     1       1.279   8.518  20.395  0.00  0.00    +0.000 A 
ATOM      7  C   UNL     1       1.208   8.308  21.880  0.00  0.00    +0.000 C 
ENDROOT
BRANCH   4   8
ATOM      8  N   UNL     1      -0.194  10.843  17.836  0.00  0.00    +0.000 N 
ATOM      9  H   UNL     1       0.210  11.199  16.975  0.00  0.00    +0.000 HD
BRANCH   8  10
ATOM     10  C   UNL     1      -1.579  11.029  17.976  0.00  0.00    +0.000 A 
ATOM     11  C   UNL     1      -2.070  11.985  18.868  0.00  0.00    +0.000 A 
ATOM     12  C   UNL     1      -3.429  12.098  19.135  0.00  0.00    +0.000 A 
ATOM     13  C   UNL     1      -4.365  11.267  18.502  0.00  0.00    +0.000 A 
ATOM     14  C   UNL     1      -3.872  10.356  17.548  0.00  0.00    +0.000 A 
ATOM     15  C   UNL     1      -2.498  10.234  17.288  0.00  0.00    +0.000 A 
BRANCH  13  16
ATOM     16  C   UNL     1      -5.863  11.339  18.840  0.00  0.00    +0.000 C 
ATOM     17  C   UNL     1      -6.694  12.076  17.762  0.00  0.00    +0.000 C 
ATOM     18  C   UNL     1      -6.436   9.917  18.977  0.00  0.00    +0.000 C 
ATOM     19  C   UNL     1      -6.069  12.103  20.166  0.00  0.00    +0.000 C 
ENDBRANCH  13  16
ENDBRANCH   8  10
ENDBRANCH   4   8
BRANCH   1  20
ATOM     20  O   UNL     1       2.642   6.566  20.072  0.00  0.00    +0.000 OA
BRANCH  20  27
ATOM     21  C   UNL     1       5.905   4.441  16.821  0.00  0.00    +0.000 A 
ATOM     22  C   UNL     1       4.657   3.802  16.704  0.00  0.00    +0.000 A 
ATOM     23  C   UNL     1       3.586   4.116  17.519  0.00  0.00    +0.000 A 
ATOM     24  N   UNL     1       2.419   3.508  17.263  0.00  0.00    +0.000 NA
ATOM     25  C   UNL     1       1.356   3.828  18.025  0.00  0.00    +0.000 A 
ATOM     26  C   UNL     1       1.404   4.756  19.039  0.00  0.00    +0.000 A 
ATOM     27  C   UNL     1       2.595   5.449  19.244  0.00  0.00    +0.000 A 
ATOM     28  C   UNL     1       3.758   5.085  18.528  0.00  0.00    +0.000 A 
ATOM     29  C   UNL     1       5.040   5.632  18.731  0.00  0.00    +0.000 A 
ATOM     30  C   UNL     1       6.116   5.332  17.881  0.00  0.00    +0.000 A 
BRANCH  21  32
ATOM     31  C   UNL     1       6.760   4.854  14.652  0.00  0.00    +0.000 C 
ATOM     32  O   UNL     1       6.901   4.190  15.913  0.00  0.00    +0.000 OA
ENDBRANCH  21  32
BRANCH  30  33
ATOM     33  O   UNL     1       7.264   5.969  18.252  0.00  0.00    +0.000 OA
ATOM     34  C   UNL     1       7.572   7.233  17.688  0.00  0.00    +0.000 C 
ENDBRANCH  30  33
ENDBRANCH  20  27
ENDBRANCH   1  20
TORSDOF 7
ENDMDL
MODEL 3
REMARK VINA RESULT:      -8.6      0.934      1.533
REMARK  Name = 
REMARK  13 active torsions:
REMARK  status: ('A' for Active; 'I' for Inactive)
REMARK    1  A    between atoms: C_1  and  O_2
REMARK    2  A    between atoms: O_2  and  C_3
REMARK    3  A    between atoms: C_9  and  O_10
REMARK    4  A    between atoms: O_10  and  C_11
REMARK    5  A    between atoms: C_14  and  N_15
REMARK    6  A    between atoms: N_15  and  C_16
REMARK    7  A    between atoms: C_19  and  C_20
REMARK    8  A    between atoms: C_20  and  C_21
REMARK    9  A    between atoms: C_20  and  C_22
REMARK   10  A    between atoms: C_20  and  C_23
REMARK   11  A    between atoms: C_27  and  C_28
REMARK   12  A    between atoms: C_31  and  O_32
REMARK   13  A    between atoms: O_32  and  C_33
REMARK                            x       y       z     vdW  Elec       q    Type
REMARK                         _______ _______ _______ _____ _____    ______ ____
ROOT
ATOM      1  C   UNL     1       2.137   7.810  19.460  0.00  0.00    +0.000 A 
ATOM      2  C   UNL     1       2.289   8.205  18.119  0.00  0.00    +0.000 A 
ATOM      3  C   UNL     1       1.451   9.173  17.567  0.00  0.00    +0.000 A 
ATOM      4  C   UNL     1       0.514   9.826  18.364  0.00  0.00    +0.000 A 
ATOM      5  C   UNL     1       0.468   9.516  19.735  0.00  0.00    +0.000 A 
ATOM      6  C   UNL     1       1.285   8.526  20.303  0.00  0.00    +0.000 A 
ATOM      7  C   UNL     1       1.218   8.279  21.783  0.00  0.00    +0.000 C 
ENDROOT
BRANCH   4   8
ATOM      8  N   UNL     1      -0.321  10.806  17.785  0.00  0.00    +0.000 N 
ATOM      9  H   UNL     1      -0.322  10.781  16.770  0.00  0.00    +0.000 HD
BRANCH   8  10
ATOM     10  C   UNL     1      -1.452  11.393  18.375  0.00  0.00    +0.000 A 
ATOM     11  C   UNL     1      -1.305  12.257  19.462  0.00  0.00    +0.000 A 
ATOM     12  C   UNL     1      -2.406  12.743  20.158  0.00  0.00    +0.000 A 
ATOM     13  C   UNL     1      -3.712  12.400  19.781  0.00  0.00    +0.000 A 
ATOM     14  C   UNL     1      -3.858  11.590  18.638  0.00  0.00    +0.000 A 
ATOM     15  C   UNL     1      -2.745  11.089  17.944  0.00  0.00    +0.000 A 
BRANCH  13  16
ATOM     16  C   UNL     1      -4.933  12.877  20.582  0.00  0.00    +0.000 C 
ATOM     17  C   UNL     1      -5.362  14.323  20.233  0.00  0.00    +0.000 C 
ATOM     18  C   UNL     1      -6.134  11.955  20.304  0.00  0.00    +0.000 C 
ATOM     19  C   UNL     1      -4.614  12.857  22.093  0.00  0.00    +0.000 C 
ENDBRANCH  13  16
ENDBRANCH   8  10
ENDBRANCH   4   8
BRANCH   1  20
ATOM     20  O   UNL     1       2.775   6.675  19.949  0.00  0.00    +0.000 OA
BRANCH  20  27
ATOM     21  C   UNL     1       6.045   4.560  16.699  0.00  0.00    +0.000 A 
ATOM     22  C   UNL     1       4.803   3.907  16.593  0.00  0.00    +0.000 A 
ATOM     23  C   UNL     1       3.733   4.215  17.411  0.00  0.00    +0.000 A 
ATOM     24  N   UNL     1       2.572   3.592  17.166  0.00  0.00    +0.000 NA
ATOM     25  C   UNL     1       1.509   3.907  17.930  0.00  0.00    +0.000 A 
ATOM     26  C   UNL     1       1.552   4.843  18.936  0.00  0.00    +0.000 A 
ATOM     27  C   UNL     1       2.736   5.551  19.130  0.00  0.00    +0.000 A 
ATOM     28  C   UNL     1       3.899   5.194  18.411  0.00  0.00    +0.000 A 
ATOM     29  C   UNL     1       5.176   5.757  18.604  0.00  0.00    +0.000 A 
ATOM     30  C   UNL     1       6.251   5.461  17.751  0.00  0.00    +0.000 A 
BRANCH  21  32
ATOM     31  C   UNL     1       6.809   4.836  14.475  0.00  0.00    +0.000 C 
ATOM     32  O   UNL     1       7.039   4.313  15.788  0.00  0.00    +0.000 OA
ENDBRANCH  21  32
BRANCH  30  33
ATOM     33  O   UNL     1       7.394   6.114  18.111  0.00  0.00    +0.000 OA
ATOM     34  C   UNL     1       7.627   7.427  17.630  0.00  0.00    +0.000 C 
ENDBRANCH  30  33
ENDBRANCH  20  27
ENDBRANCH   1  20
TORSDOF 7
ENDMDL
MODEL 4
REMARK VINA RESULT:      -8.5      0.952      1.279
REMARK  Name = 
REMARK  13 active torsions:
REMARK  status: ('A' for Active; 'I' for Inactive)
REMARK    1  A    between atoms: C_1  and  O_2
REMARK    2  A    between atoms: O_2  and  C_3
REMARK    3  A    between atoms: C_9  and  O_10
REMARK    4  A    between atoms: O_10  and  C_11
REMARK    5  A    between atoms: C_14  and  N_15
REMARK    6  A    between atoms: N_15  and  C_16
REMARK    7  A    between atoms: C_19  and  C_20
REMARK    8  A    between atoms: C_20  and  C_21
REMARK    9  A    between atoms: C_20  and  C_22
REMARK   10  A    between atoms: C_20  and  C_23
REMARK   11  A    between atoms: C_27  and  C_28
REMARK   12  A    between atoms: C_31  and  O_32
REMARK   13  A    between atoms: O_32  and  C_33
REMARK                            x       y       z     vdW  Elec       q    Type
REMARK                         _______ _______ _______ _____ _____    ______ ____
ROOT
ATOM      1  C   UNL     1       1.915   8.073  19.772  0.00  0.00    +0.000 A 
ATOM      2  C   UNL     1       2.074   8.310  18.395  0.00  0.00    +0.000 A 
ATOM      3  C   UNL     1       1.230   9.196  17.726  0.00  0.00    +0.000 A 
ATOM      4  C   UNL     1       0.277   9.924  18.433  0.00  0.00    +0.000 A 
ATOM      5  C   UNL     1       0.221   9.776  19.830  0.00  0.00    +0.000 A 
ATOM      6  C   UNL     1       1.045   8.872  20.517  0.00  0.00    +0.000 A 
ATOM      7  C   UNL     1       0.967   8.800  22.016  0.00  0.00    +0.000 C 
ENDROOT
BRANCH   4   8
ATOM      8  N   UNL     1      -0.565  10.818  17.735  0.00  0.00    +0.000 N 
ATOM      9  H   UNL     1      -0.221  11.049  16.808  0.00  0.00    +0.000 HD
BRANCH   8  10
ATOM     10  C   UNL     1      -1.946  10.983  17.926  0.00  0.00    +0.000 A 
ATOM     11  C   UNL     1      -2.421  11.978  18.783  0.00  0.00    +0.000 A 
ATOM     12  C   UNL     1      -3.770  12.079  19.103  0.00  0.00    +0.000 A 
ATOM     13  C   UNL     1      -4.713  11.194  18.560  0.00  0.00    +0.000 A 
ATOM     14  C   UNL     1      -4.240  10.240  17.637  0.00  0.00    +0.000 A 
ATOM     15  C   UNL     1      -2.876  10.132  17.325  0.00  0.00    +0.000 A 
BRANCH  13  16
ATOM     16  C   UNL     1      -6.196  11.254  18.958  0.00  0.00    +0.000 C 
ATOM     17  C   UNL     1      -6.428  11.921  20.335  0.00  0.00    +0.000 C 
ATOM     18  C   UNL     1      -6.985  12.059  17.911  0.00  0.00    +0.000 C 
ATOM     19  C   UNL     1      -6.776   9.826  19.048  0.00  0.00    +0.000 C 
ENDBRANCH  13  16
ENDBRANCH   8  10
ENDBRANCH   4   8
BRANCH   1  20
ATOM     20  O   UNL     1       2.562   7.013  20.396  0.00  0.00    +0.000 OA
BRANCH  20  27
ATOM     21  C   UNL     1       4.736   4.827  16.368  0.00  0.00    +0.000 A 
ATOM     22  C   UNL     1       3.687   4.008  16.826  0.00  0.00    +0.000 A 
ATOM     23  C   UNL     1       2.957   4.306  17.959  0.00  0.00    +0.000 A 
ATOM     24  N   UNL     1       1.925   3.504  18.256  0.00  0.00    +0.000 NA
ATOM     25  C   UNL     1       1.180   3.801  19.338  0.00  0.00    +0.000 A 
ATOM     26  C   UNL     1       1.416   4.891  20.142  0.00  0.00    +0.000 A 
ATOM     27  C   UNL     1       2.434   5.771  19.781  0.00  0.00    +0.000 A 
ATOM     28  C   UNL     1       3.294   5.454  18.706  0.00  0.00    +0.000 A 
ATOM     29  C   UNL     1       4.424   6.204  18.323  0.00  0.00    +0.000 A 
ATOM     30  C   UNL     1       5.143   5.912  17.153  0.00  0.00    +0.000 A 
BRANCH  21  32
ATOM     31  C   UNL     1       6.532   3.755  15.256  0.00  0.00    +0.000 C 
ATOM     32  O   UNL     1       5.351   4.562  15.171  0.00  0.00    +0.000 OA
ENDBRANCH  21  32
BRANCH  30  33
ATOM     33  O   UNL     1       6.196   6.761  16.966  0.00  0.00    +0.000 OA
ATOM     34  C   UNL     1       7.375   6.587  17.732  0.00  0.00    +0.000 C 
ENDBRANCH  30  33
ENDBRANCH  20  27
ENDBRANCH   1  20
TORSDOF 7
ENDMDL
MODEL 5
REMARK VINA RESULT:      -8.3      0.715      1.554
REMARK  Name = 
REMARK  13 active torsions:
REMARK  status: ('A' for Active; 'I' for Inactive)
REMARK    1  A    between atoms: C_1  and  O_2
REMARK    2  A    between atoms: O_2  and  C_3
REMARK    3  A    between atoms: C_9  and  O_10
REMARK    4  A    between atoms: O_10  and  C_11
REMARK    5  A    between atoms: C_14  and  N_15
REMARK    6  A    between atoms: N_15  and  C_16
REMARK    7  A    between atoms: C_19  and  C_20
REMARK    8  A    between atoms: C_20  and  C_21
REMARK    9  A    between atoms: C_20  and  C_22
REMARK   10  A    between atoms: C_20  and  C_23
REMARK   11  A    between atoms: C_27  and  C_28
REMARK   12  A    between atoms: C_31  and  O_32
REMARK   13  A    between atoms: O_32  and  C_33
REMARK                            x       y       z     vdW  Elec       q    Type
REMARK                         _______ _______ _______ _____ _____    ______ ____
ROOT
ATOM      1  C   UNL     1       2.013   7.697  19.758  0.00  0.00    +0.000 A 
ATOM      2  C   UNL     1       1.060   8.059  20.727  0.00  0.00    +0.000 A 
ATOM      3  C   UNL     1       0.352   9.254  20.612  0.00  0.00    +0.000 A 
ATOM      4  C   UNL     1       0.516  10.061  19.489  0.00  0.00    +0.000 A 
ATOM      5  C   UNL     1       1.372   9.618  18.465  0.00  0.00    +0.000 A 
ATOM      6  C   UNL     1       2.112   8.431  18.574  0.00  0.00    +0.000 A 
ATOM      7  C   UNL     1       2.971   7.993  17.422  0.00  0.00    +0.000 C 
ENDROOT
BRANCH   4   8
ATOM      8  N   UNL     1      -0.215  11.265  19.393  0.00  0.00    +0.000 N 
ATOM      9  H   UNL     1       0.330  12.035  19.016  0.00  0.00    +0.000 HD
BRANCH   8  10
ATOM     10  C   UNL     1      -1.607  11.387  19.253  0.00  0.00    +0.000 A 
ATOM     11  C   UNL     1      -2.272  10.695  18.239  0.00  0.00    +0.000 A 
ATOM     12  C   UNL     1      -3.623  10.901  17.984  0.00  0.00    +0.000 A 
ATOM     13  C   UNL     1      -4.378  11.800  18.751  0.00  0.00    +0.000 A 
ATOM     14  C   UNL     1      -3.721  12.439  19.821  0.00  0.00    +0.000 A 
ATOM     15  C   UNL     1      -2.354  12.240  20.069  0.00  0.00    +0.000 A 
BRANCH  13  16
ATOM     16  C   UNL     1      -5.854  12.086  18.435  0.00  0.00    +0.000 C 
ATOM     17  C   UNL     1      -6.748  10.824  18.516  0.00  0.00    +0.000 C 
ATOM     18  C   UNL     1      -6.412  13.116  19.433  0.00  0.00    +0.000 C 
ATOM     19  C   UNL     1      -5.990  12.640  17.000  0.00  0.00    +0.000 C 
ENDBRANCH  13  16
ENDBRANCH   8  10
ENDBRANCH   4   8
BRANCH   1  20
ATOM     20  O   UNL     1       2.907   6.657  19.986  0.00  0.00    +0.000 OA
BRANCH  20  27
ATOM     21  C   UNL     1       5.811   4.306  16.555  0.00  0.00    +0.000 A 
ATOM     22  C   UNL     1       4.529   3.728  16.547  0.00  0.00    +0.000 A 
ATOM     23  C   UNL     1       3.539   4.110  17.431  0.00  0.00    +0.000 A 
ATOM     24  N   UNL     1       2.329   3.555  17.278  0.00  0.00    +0.000 NA
ATOM     25  C   UNL     1       1.342   3.943  18.108  0.00  0.00    +0.000 A 
ATOM     26  C   UNL     1       1.511   4.888  19.093  0.00  0.00    +0.000 A 
ATOM     27  C   UNL     1       2.745   5.526  19.191  0.00  0.00    +0.000 A 
ATOM     28  C   UNL     1       3.832   5.091  18.400  0.00  0.00    +0.000 A 
ATOM     29  C   UNL     1       5.150   5.579  18.494  0.00  0.00    +0.000 A 
ATOM     30  C   UNL     1       6.143   5.208  17.574  0.00  0.00    +0.000 A 
BRANCH  21  32
ATOM     31  C   UNL     1       6.226   4.033  14.239  0.00  0.00    +0.000 C 
ATOM     32  O   UNL     1       6.723   3.988  15.582  0.00  0.00    +0.000 OA
ENDBRANCH  21  32
BRANCH  30  33
ATOM     33  O   UNL     1       7.345   5.797  17.843  0.00  0.00    +0.000 OA
ATOM     34  C   UNL     1       7.544   7.159  17.505  0.00  0.00    +0.000 C 
ENDBRANCH  30  33
ENDBRANCH  20  27
ENDBRANCH   1  20
TORSDOF 7
ENDMDL
MODEL 6
REMARK VINA RESULT:      -8.2      1.155      1.661
REMARK  Name = 
REMARK  13 active torsions:
REMARK  status: ('A' for Active; 'I' for Inactive)
REMARK    1  A    between atoms: C_1  and  O_2
REMARK    2  A    between atoms: O_2  and  C_3
REMARK    3  A    between atoms: C_9  and  O_10
REMARK    4  A    between atoms: O_10  and  C_11
REMARK    5  A    between atoms: C_14  and  N_15
REMARK    6  A    between atoms: N_15  and  C_16
REMARK    7  A    between atoms: C_19  and  C_20
REMARK    8  A    between atoms: C_20  and  C_21
REMARK    9  A    between atoms: C_20  and  C_22
REMARK   10  A    between atoms: C_20  and  C_23
REMARK   11  A    between atoms: C_27  and  C_28
REMARK   12  A    between atoms: C_31  and  O_32
REMARK   13  A    between atoms: O_32  and  C_33
REMARK                            x       y       z     vdW  Elec       q    Type
REMARK                         _______ _______ _______ _____ _____    ______ ____
ROOT
ATOM      1  C   UNL     1       2.026   8.152  19.457  0.00  0.00    +0.000 A 
ATOM      2  C   UNL     1       2.078   8.501  18.096  0.00  0.00    +0.000 A 
ATOM      3  C   UNL     1       1.144   9.384  17.554  0.00  0.00    +0.000 A 
ATOM      4  C   UNL     1       0.204  10.000  18.376  0.00  0.00    +0.000 A 
ATOM      5  C   UNL     1       0.252   9.745  19.758  0.00  0.00    +0.000 A 
ATOM      6  C   UNL     1       1.167   8.840  20.318  0.00  0.00    +0.000 A 
ATOM      7  C   UNL     1       1.195   8.652  21.807  0.00  0.00    +0.000 C 
ENDROOT
BRANCH   4   8
ATOM      8  N   UNL     1      -0.729  10.894  17.806  0.00  0.00    +0.000 N 
ATOM      9  H   UNL     1      -0.838  10.772  16.804  0.00  0.00    +0.000 HD
BRANCH   8  10
ATOM     10  C   UNL     1      -1.813  11.498  18.463  0.00  0.00    +0.000 A 
ATOM     11  C   UNL     1      -1.587  12.399  19.505  0.00  0.00    +0.000 A 
ATOM     12  C   UNL     1      -2.633  12.906  20.267  0.00  0.00    +0.000 A 
ATOM     13  C   UNL     1      -3.963  12.546  20.005  0.00  0.00    +0.000 A 
ATOM     14  C   UNL     1      -4.192  11.696  18.906  0.00  0.00    +0.000 A 
ATOM     15  C   UNL     1      -3.135  11.175  18.145  0.00  0.00    +0.000 A 
BRANCH  13  16
ATOM     16  C   UNL     1      -5.120  13.047  20.883  0.00  0.00    +0.000 C 
ATOM     17  C   UNL     1      -4.819  12.952  22.398  0.00  0.00    +0.000 C 
ATOM     18  C   UNL     1      -5.420  14.521  20.559  0.00  0.00    +0.000 C 
ATOM     19  C   UNL     1      -6.385  12.200  20.624  0.00  0.00    +0.000 C 
ENDBRANCH  13  16
ENDBRANCH   8  10
ENDBRANCH   4   8
BRANCH   1  20
ATOM     20  O   UNL     1       2.769   7.088  19.953  0.00  0.00    +0.000 OA
BRANCH  20  27
ATOM     21  C   UNL     1       5.471   5.431  15.993  0.00  0.00    +0.000 A 
ATOM     22  C   UNL     1       4.404   4.544  16.226  0.00  0.00    +0.000 A 
ATOM     23  C   UNL     1       3.536   4.693  17.290  0.00  0.00    +0.000 A 
ATOM     24  N   UNL     1       2.504   3.842  17.367  0.00  0.00    +0.000 NA
ATOM     25  C   UNL     1       1.628   3.996  18.378  0.00  0.00    +0.000 A 
ATOM     26  C   UNL     1       1.732   4.988  19.324  0.00  0.00    +0.000 A 
ATOM     27  C   UNL     1       2.755   5.924  19.190  0.00  0.00    +0.000 A 
ATOM     28  C   UNL     1       3.746   5.752  18.197  0.00  0.00    +0.000 A 
ATOM     29  C   UNL     1       4.886   6.563  18.040  0.00  0.00    +0.000 A 
ATOM     30  C   UNL     1       5.747   6.425  16.940  0.00  0.00    +0.000 A 
BRANCH  21  32
ATOM     31  C   UNL     1       6.377   3.990  14.346  0.00  0.00    +0.000 C 
ATOM     32  O   UNL     1       6.231   5.320  14.857  0.00  0.00    +0.000 OA
ENDBRANCH  21  32
BRANCH  30  33
ATOM     33  O   UNL     1       6.786   7.310  16.978  0.00  0.00    +0.000 OA
ATOM     34  C   UNL     1       7.736   7.222  18.026  0.00  0.00    +0.000 C 
ENDBRANCH  30  33
ENDBRANCH  20  27
ENDBRANCH   1  20
TORSDOF 7
ENDMDL
MODEL 7
REMARK VINA RESULT:      -8.2      1.851      2.753
REMARK  Name = 
REMARK  13 active torsions:
REMARK  status: ('A' for Active; 'I' for Inactive)
REMARK    1  A    between atoms: C_1  and  O_2
REMARK    2  A    between atoms: O_2  and  C_3
REMARK    3  A    between atoms: C_9  and  O_10
REMARK    4  A    between atoms: O_10  and  C_11
REMARK    5  A    between atoms: C_14  and  N_15
REMARK    6  A    between atoms: N_15  and  C_16
REMARK    7  A    between atoms: C_19  and  C_20
REMARK    8  A    between atoms: C_20  and  C_21
REMARK    9  A    between atoms: C_20  and  C_22
REMARK   10  A    between atoms: C_20  and  C_23
REMARK   11  A    between atoms: C_27  and  C_28
REMARK   12  A    between atoms: C_31  and  O_32
REMARK   13  A    between atoms: O_32  and  C_33
REMARK                            x       y       z     vdW  Elec       q    Type
REMARK                         _______ _______ _______ _____ _____    ______ ____
ROOT
ATOM      1  C   UNL     1       2.205   7.724  19.472  0.00  0.00    +0.000 A 
ATOM      2  C   UNL     1       2.322   8.127  18.130  0.00  0.00    +0.000 A 
ATOM      3  C   UNL     1       1.489   9.118  17.612  0.00  0.00    +0.000 A 
ATOM      4  C   UNL     1       0.592   9.783  18.443  0.00  0.00    +0.000 A 
ATOM      5  C   UNL     1       0.582   9.463  19.812  0.00  0.00    +0.000 A 
ATOM      6  C   UNL     1       1.395   8.451  20.347  0.00  0.00    +0.000 A 
ATOM      7  C   UNL     1       1.370   8.194  21.826  0.00  0.00    +0.000 C 
ENDROOT
BRANCH   4   8
ATOM      8  N   UNL     1      -0.239  10.786  17.898  0.00  0.00    +0.000 N 
ATOM      9  H   UNL     1      -0.817  10.454  17.132  0.00  0.00    +0.000 HD
BRANCH   8  10
ATOM     10  C   UNL     1      -0.717  11.926  18.564  0.00  0.00    +0.000 A 
ATOM     11  C   UNL     1       0.017  13.114  18.535  0.00  0.00    +0.000 A 
ATOM     12  C   UNL     1      -0.353  14.216  19.297  0.00  0.00    +0.000 A 
ATOM     13  C   UNL     1      -1.494  14.185  20.111  0.00  0.00    +0.000 A 
ATOM     14  C   UNL     1      -2.273  13.012  20.079  0.00  0.00    +0.000 A 
ATOM     15  C   UNL     1      -1.892  11.896  19.320  0.00  0.00    +0.000 A 
BRANCH  13  16
ATOM     16  C   UNL     1      -1.876  15.373  21.008  0.00  0.00    +0.000 C 
ATOM     17  C   UNL     1      -3.291  15.243  21.621  0.00  0.00    +0.000 C 
ATOM     18  C   UNL     1      -0.874  15.493  22.170  0.00  0.00    +0.000 C 
ATOM     19  C   UNL     1      -1.861  16.681  20.186  0.00  0.00    +0.000 C 
ENDBRANCH  13  16
ENDBRANCH   8  10
ENDBRANCH   4   8
BRANCH   1  20
ATOM     20  O   UNL     1       2.832   6.572  19.931  0.00  0.00    +0.000 OA
BRANCH  20  27
ATOM     21  C   UNL     1       5.897   4.458  16.486  0.00  0.00    +0.000 A 
ATOM     22  C   UNL     1       4.646   3.815  16.446  0.00  0.00    +0.000 A 
ATOM     23  C   UNL     1       3.626   4.124  17.325  0.00  0.00    +0.000 A 
ATOM     24  N   UNL     1       2.448   3.512  17.142  0.00  0.00    +0.000 NA
ATOM     25  C   UNL     1       1.433   3.828  17.967  0.00  0.00    +0.000 A 
ATOM     26  C   UNL     1       1.540   4.756  18.976  0.00  0.00    +0.000 A 
ATOM     27  C   UNL     1       2.738   5.454  19.108  0.00  0.00    +0.000 A 
ATOM     28  C   UNL     1       3.856   5.095  18.321  0.00  0.00    +0.000 A 
ATOM     29  C   UNL     1       5.146   5.646  18.446  0.00  0.00    +0.000 A 
ATOM     30  C   UNL     1       6.169   5.350  17.531  0.00  0.00    +0.000 A 
BRANCH  21  32
ATOM     31  C   UNL     1       6.325   4.092  14.185  0.00  0.00    +0.000 C 
ATOM     32  O   UNL     1       6.836   4.211  15.518  0.00  0.00    +0.000 OA
ENDBRANCH  21  32
BRANCH  30  33
ATOM     33  O   UNL     1       7.336   5.992  17.830  0.00  0.00    +0.000 OA
ATOM     34  C   UNL     1       7.470   7.369  17.523  0.00  0.00    +0.000 C 
ENDBRANCH  30  33
ENDBRANCH  20  27
ENDBRANCH   1  20
TORSDOF 7
ENDMDL
MODEL 8
REMARK VINA RESULT:      -8.2      2.694      3.916
REMARK  Name = 
REMARK  13 active torsions:
REMARK  status: ('A' for Active; 'I' for Inactive)
REMARK    1  A    between atoms: C_1  and  O_2
REMARK    2  A    between atoms: O_2  and  C_3
REMARK    3  A    between atoms: C_9  and  O_10
REMARK    4  A    between atoms: O_10  and  C_11
REMARK    5  A    between atoms: C_14  and  N_15
REMARK    6  A    between atoms: N_15  and  C_16
REMARK    7  A    between atoms: C_19  and  C_20
REMARK    8  A    between atoms: C_20  and  C_21
REMARK    9  A    between atoms: C_20  and  C_22
REMARK   10  A    between atoms: C_20  and  C_23
REMARK   11  A    between atoms: C_27  and  C_28
REMARK   12  A    between atoms: C_31  and  O_32
REMARK   13  A    between atoms: O_32  and  C_33
REMARK                            x       y       z     vdW  Elec       q    Type
REMARK                         _______ _______ _______ _____ _____    ______ ____
ROOT
ATOM      1  C   UNL     1       2.206   7.565  19.617  0.00  0.00    +0.000 A 
ATOM      2  C   UNL     1       2.499   7.999  18.312  0.00  0.00    +0.000 A 
ATOM      3  C   UNL     1       1.877   9.131  17.786  0.00  0.00    +0.000 A 
ATOM      4  C   UNL     1       1.027   9.896  18.580  0.00  0.00    +0.000 A 
ATOM      5  C   UNL     1       0.851   9.526  19.925  0.00  0.00    +0.000 A 
ATOM      6  C   UNL     1       1.448   8.376  20.465  0.00  0.00    +0.000 A 
ATOM      7  C   UNL     1       1.257   8.065  21.922  0.00  0.00    +0.000 C 
ENDROOT
BRANCH   4   8
ATOM      8  N   UNL     1       0.412  11.040  18.027  0.00  0.00    +0.000 N 
ATOM      9  H   UNL     1      -0.505  10.851  17.635  0.00  0.00    +0.000 HD
BRANCH   8  10
ATOM     10  C   UNL     1       0.647  12.375  18.397  0.00  0.00    +0.000 A 
ATOM     11  C   UNL     1      -0.419  13.273  18.491  0.00  0.00    +0.000 A 
ATOM     12  C   UNL     1      -0.208  14.628  18.716  0.00  0.00    +0.000 A 
ATOM     13  C   UNL     1       1.085  15.145  18.878  0.00  0.00    +0.000 A 
ATOM     14  C   UNL     1       2.151  14.224  18.858  0.00  0.00    +0.000 A 
ATOM     15  C   UNL     1       1.938  12.858  18.618  0.00  0.00    +0.000 A 
BRANCH  13  16
ATOM     16  C   UNL     1       1.333  16.651  19.060  0.00  0.00    +0.000 C 
ATOM     17  C   UNL     1       0.062  17.431  19.474  0.00  0.00    +0.000 C 
ATOM     18  C   UNL     1       2.394  16.877  20.152  0.00  0.00    +0.000 C 
ATOM     19  C   UNL     1       1.827  17.269  17.734  0.00  0.00    +0.000 C 
ENDBRANCH  13  16
ENDBRANCH   8  10
ENDBRANCH   4   8
BRANCH   1  20
ATOM     20  O   UNL     1       2.605   6.310  20.062  0.00  0.00    +0.000 OA
BRANCH  20  27
ATOM     21  C   UNL     1       6.052   4.500  16.810  0.00  0.00    +0.000 A 
ATOM     22  C   UNL     1       4.807   3.904  16.540  0.00  0.00    +0.000 A 
ATOM     23  C   UNL     1       3.688   4.145  17.313  0.00  0.00    +0.000 A 
ATOM     24  N   UNL     1       2.533   3.593  16.914  0.00  0.00    +0.000 NA
ATOM     25  C   UNL     1       1.425   3.846  17.636  0.00  0.00    +0.000 A 
ATOM     26  C   UNL     1       1.417   4.652  18.750  0.00  0.00    +0.000 A 
ATOM     27  C   UNL     1       2.600   5.294  19.110  0.00  0.00    +0.000 A 
ATOM     28  C   UNL     1       3.804   4.991  18.435  0.00  0.00    +0.000 A 
ATOM     29  C   UNL     1       5.076   5.485  18.783  0.00  0.00    +0.000 A 
ATOM     30  C   UNL     1       6.203   5.261  17.976  0.00  0.00    +0.000 A 
BRANCH  21  32
ATOM     31  C   UNL     1       6.792   4.518  14.560  0.00  0.00    +0.000 C 
ATOM     32  O   UNL     1       7.104   4.334  15.946  0.00  0.00    +0.000 OA
ENDBRANCH  21  32
BRANCH  30  33
ATOM     33  O   UNL     1       7.331   5.830  18.491  0.00  0.00    +0.000 OA
ATOM     34  C   UNL     1       7.738   7.108  18.033  0.00  0.00    +0.000 C 
ENDBRANCH  30  33
ENDBRANCH  20  27
ENDBRANCH   1  20
TORSDOF 7
ENDMDL
MODEL 9
REMARK VINA RESULT:      -8.2      2.658      3.941
REMARK  Name = 
REMARK  13 active torsions:
REMARK  status: ('A' for Active; 'I' for Inactive)
REMARK    1  A    between atoms: C_1  and  O_2
REMARK    2  A    between atoms: O_2  and  C_3
REMARK    3  A    between atoms: C_9  and  O_10
REMARK    4  A    between atoms: O_10  and  C_11
REMARK    5  A    between atoms: C_14  and  N_15
REMARK    6  A    between atoms: N_15  and  C_16
REMARK    7  A    between atoms: C_19  and  C_20
REMARK    8  A    between atoms: C_20  and  C_21
REMARK    9  A    between atoms: C_20  and  C_22
REMARK   10  A    between atoms: C_20  and  C_23
REMARK   11  A    between atoms: C_27  and  C_28
REMARK   12  A    between atoms: C_31  and  O_32
REMARK   13  A    between atoms: O_32  and  C_33
REMARK                            x       y       z     vdW  Elec       q    Type
REMARK                         _______ _______ _______ _____ _____    ______ ____
ROOT
ATOM      1  C   UNL     1       2.273   7.636  19.585  0.00  0.00    +0.000 A 
ATOM      2  C   UNL     1       2.523   8.077  18.273  0.00  0.00    +0.000 A 
ATOM      3  C   UNL     1       1.828   9.165  17.746  0.00  0.00    +0.000 A 
ATOM      4  C   UNL     1       0.944   9.885  18.546  0.00  0.00    +0.000 A 
ATOM      5  C   UNL     1       0.807   9.515  19.896  0.00  0.00    +0.000 A 
ATOM      6  C   UNL     1       1.478   8.407  20.436  0.00  0.00    +0.000 A 
ATOM      7  C   UNL     1       1.324   8.097  21.898  0.00  0.00    +0.000 C 
ENDROOT
BRANCH   4   8
ATOM      8  N   UNL     1       0.256  10.986  17.993  0.00  0.00    +0.000 N 
ATOM      9  H   UNL     1      -0.706  10.774  17.746  0.00  0.00    +0.000 HD
BRANCH   8  10
ATOM     10  C   UNL     1       0.534  12.344  18.221  0.00  0.00    +0.000 A 
ATOM     11  C   UNL     1       1.856  12.780  18.326  0.00  0.00    +0.000 A 
ATOM     12  C   UNL     1       2.164  14.086  18.691  0.00  0.00    +0.000 A 
ATOM     13  C   UNL     1       1.155  15.024  18.948  0.00  0.00    +0.000 A 
ATOM     14  C   UNL     1      -0.176  14.601  18.767  0.00  0.00    +0.000 A 
ATOM     15  C   UNL     1      -0.486  13.279  18.412  0.00  0.00    +0.000 A 
BRANCH  13  16
ATOM     16  C   UNL     1       1.483  16.451  19.416  0.00  0.00    +0.000 C 
ATOM     17  C   UNL     1       0.881  17.544  18.501  0.00  0.00    +0.000 C 
ATOM     18  C   UNL     1       0.931  16.675  20.835  0.00  0.00    +0.000 C 
ATOM     19  C   UNL     1       3.013  16.665  19.425  0.00  0.00    +0.000 C 
ENDBRANCH  13  16
ENDBRANCH   8  10
ENDBRANCH   4   8
BRANCH   1  20
ATOM     20  O   UNL     1       2.751   6.410  20.033  0.00  0.00    +0.000 OA
BRANCH  20  27
ATOM     21  C   UNL     1       5.925   4.474  16.582  0.00  0.00    +0.000 A 
ATOM     22  C   UNL     1       4.665   3.864  16.442  0.00  0.00    +0.000 A 
ATOM     23  C   UNL     1       3.613   4.134  17.296  0.00  0.00    +0.000 A 
ATOM     24  N   UNL     1       2.432   3.563  17.018  0.00  0.00    +0.000 NA
ATOM     25  C   UNL     1       1.387   3.844  17.820  0.00  0.00    +0.000 A 
ATOM     26  C   UNL     1       1.467   4.696  18.896  0.00  0.00    +0.000 A 
ATOM     27  C   UNL     1       2.672   5.355  19.128  0.00  0.00    +0.000 A 
ATOM     28  C   UNL     1       3.817   5.027  18.368  0.00  0.00    +0.000 A 
ATOM     29  C   UNL     1       5.111   5.539  18.587  0.00  0.00    +0.000 A 
ATOM     30  C   UNL     1       6.168   5.284  17.699  0.00  0.00    +0.000 A 
BRANCH  21  32
ATOM     31  C   UNL     1       6.438   4.183  14.288  0.00  0.00    +0.000 C 
ATOM     32  O   UNL     1       6.902   4.274  15.641  0.00  0.00    +0.000 OA
ENDBRANCH  21  32
BRANCH  30  33
ATOM     33  O   UNL     1       7.332   5.876  18.093  0.00  0.00    +0.000 OA
ATOM     34  C   UNL     1       7.580   7.226  17.741  0.00  0.00    +0.000 C 
ENDBRANCH  30  33
ENDBRANCH  20  27
ENDBRANCH   1  20
TORSDOF 7
ENDMDL
