MODEL 1
REMARK VINA RESULT:      -7.7      0.000      0.000
REMARK  Name = 
REMARK  8 active torsions:
REMARK  status: ('A' for Active; 'I' for Inactive)
REMARK    1  A    between atoms: O_1  and  C_2
REMARK    2  A    between atoms: C_5  and  O_6
REMARK    3  A    between atoms: O_6  and  C_7
REMARK    4  A    between atoms: C_7  and  N_9
REMARK    5  A    between atoms: N_9  and  C_10
REMARK    6  A    between atoms: C_13  and  S_14
REMARK    7  A    between atoms: S_14  and  C_15
REMARK    8  A    between atoms: C_18  and  C_19
REMARK                            x       y       z     vdW  Elec       q    Type
REMARK                         _______ _______ _______ _____ _____    ______ ____
ROOT
ATOM      1  C   UNL     1       1.966   6.908  20.124  0.00  0.00    +0.000 A 
ATOM      2  C   UNL     1       1.283   7.833  20.918  0.00  0.00    +0.000 A 
ATOM      3  C   UNL     1       1.024   9.118  20.439  0.00  0.00    +0.000 A 
ATOM      4  C   UNL     1       1.442   9.492  19.161  0.00  0.00    +0.000 A 
ATOM      5  C   UNL     1       2.100   8.559  18.355  0.00  0.00    +0.000 A 
ATOM      6  C   UNL     1       2.380   7.277  18.842  0.00  0.00    +0.000 A 
ENDROOT
BRANCH   1   7
ATOM      7  N   UNL     1       2.352   5.649  20.616  0.00  0.00    +0.000 N 
ATOM      8  H   UNL     1       2.396   5.536  21.621  0.00  0.00    +0.000 HD
BRANCH   7   9
ATOM      9  C   UNL     1       2.542   4.506  19.884  0.00  0.00    +0.000 C 
ATOM     10  S   UNL     1       1.258   3.598  19.342  0.00  0.00    +0.000 S 
BRANCH   9  11
ATOM     11  O   UNL     1       3.887   4.157  19.689  0.00  0.00    +0.000 OA
BRANCH  11  15
ATOM     12  C   UNL     1       6.613   5.635  16.874  0.00  0.00    +0.000 A 
ATOM     13  C   UNL     1       5.402   5.081  16.462  0.00  0.00    +0.000 A 
ATOM     14  C   UNL     1       4.517   4.583  17.420  0.00  0.00    +0.000 A 
ATOM     15  C   UNL     1       4.863   4.640  18.770  0.00  0.00    +0.000 A 
ATOM     16  C   UNL     1       6.047   5.247  19.183  0.00  0.00    +0.000 A 
ATOM     17  C   UNL     1       6.938   5.723  18.222  0.00  0.00    +0.000 A 
BRANCH  12  18
ATOM     18  O   UNL     1       7.517   6.120  15.977  0.00  0.00    +0.000 OA
ATOM     19  H   UNL     1       7.538   5.529  15.205  0.00  0.00    +0.000 HD
ENDBRANCH  12  18
ENDBRANCH  11  15
ENDBRANCH   9  11
ENDBRANCH   7   9
ENDBRANCH   1   7
BRANCH   4  20
ATOM     20  S   UNL     1       1.096  11.131  18.559  0.00  0.00    +0.000 S 
BRANCH  20  21
ATOM     21  C   UNL     1      -0.685  11.187  18.606  0.00  0.00    +0.000 A 
ATOM     22  C   UNL     1      -1.309  12.092  19.468  0.00  0.00    +0.000 A 
ATOM     23  C   UNL     1      -2.704  12.232  19.479  0.00  0.00    +0.000 A 
ATOM     24  C   UNL     1      -3.525  11.474  18.624  0.00  0.00    +0.000 A 
ATOM     25  C   UNL     1      -2.875  10.550  17.775  0.00  0.00    +0.000 A 
ATOM     26  C   UNL     1      -1.481  10.412  17.764  0.00  0.00    +0.000 A 
BRANCH  24  27
ATOM     27  C   UNL     1      -5.047  11.631  18.562  0.00  0.00    +0.000 C 
ATOM     28 CL   UNL     1      -5.963  10.105  18.791  0.00  0.00    +0.000 Cl
ATOM     29 CL   UNL     1      -5.586  12.764  19.852  0.00  0.00    +0.000 Cl
ATOM     30 CL   UNL     1      -5.530  12.302  16.966  0.00  0.00    +0.000 Cl
ENDBRANCH  24  27
ENDBRANCH  20  21
ENDBRANCH   4  20
TORSDOF 8
ENDMDL
MODEL 2
REMARK VINA RESULT:      -7.6      0.422      1.035
REMARK  Name = 
REMARK  8 active torsions:
REMARK  status: ('A' for Active; 'I' for Inactive)
REMARK    1  A    between atoms: O_1  and  C_2
REMARK    2  A    between atoms: C_5  and  O_6
REMARK    3  A    between atoms: O_6  and  C_7
REMARK    4  A    between atoms: C_7  and  N_9
REMARK    5  A    between atoms: N_9  and  C_10
REMARK    6  A    between atoms: C_13  and  S_14
REMARK    7  A    between atoms: S_14  and  C_15
REMARK    8  A    between atoms: C_18  and  C_19
REMARK                            x       y       z     vdW  Elec       q    Type
REMARK                         _______ _______ _______ _____ _____    ______ ____
ROOT
ATOM      1  C   UNL     1       2.057   6.493  20.037  0.00  0.00    +0.000 A 
ATOM      2  C   UNL     1       1.459   7.488  20.815  0.00  0.00    +0.000 A 
ATOM      3  C   UNL     1       1.265   8.769  20.295  0.00  0.00    +0.000 A 
ATOM      4  C   UNL     1       1.663   9.069  18.991  0.00  0.00    +0.000 A 
ATOM      5  C   UNL     1       2.234   8.067  18.201  0.00  0.00    +0.000 A 
ATOM      6  C   UNL     1       2.450   6.789  18.729  0.00  0.00    +0.000 A 
ENDROOT
BRANCH   1   7
ATOM      7  N   UNL     1       2.379   5.232  20.564  0.00  0.00    +0.000 N 
ATOM      8  H   UNL     1       2.273   5.104  21.563  0.00  0.00    +0.000 HD
BRANCH   7   9
ATOM      9  C   UNL     1       2.691   4.101  19.854  0.00  0.00    +0.000 C 
ATOM     10  S   UNL     1       1.509   3.065  19.309  0.00  0.00    +0.000 S 
BRANCH   9  11
ATOM     11  O   UNL     1       4.066   3.882  19.685  0.00  0.00    +0.000 OA
BRANCH  11  15
ATOM     12  C   UNL     1       6.663   5.464  16.806  0.00  0.00    +0.000 A 
ATOM     13  C   UNL     1       5.608   4.637  16.426  0.00  0.00    +0.000 A 
ATOM     14  C   UNL     1       4.764   4.111  17.408  0.00  0.00    +0.000 A 
ATOM     15  C   UNL     1       4.998   4.415  18.749  0.00  0.00    +0.000 A 
ATOM     16  C   UNL     1       6.018   5.289  19.119  0.00  0.00    +0.000 A 
ATOM     17  C   UNL     1       6.870   5.795  18.139  0.00  0.00    +0.000 A 
BRANCH  12  18
ATOM     18  O   UNL     1       7.522   5.989  15.888  0.00  0.00    +0.000 OA
ATOM     19  H   UNL     1       7.352   5.572  15.026  0.00  0.00    +0.000 HD
ENDBRANCH  12  18
ENDBRANCH  11  15
ENDBRANCH   9  11
ENDBRANCH   7   9
ENDBRANCH   1   7
BRANCH   4  20
ATOM     20  S   UNL     1       1.400  10.704  18.337  0.00  0.00    +0.000 S 
BRANCH  20  21
ATOM     21  C   UNL     1      -0.374  10.862  18.410  0.00  0.00    +0.000 A 
ATOM     22  C   UNL     1      -0.931  11.840  19.237  0.00  0.00    +0.000 A 
ATOM     23  C   UNL     1      -2.315  12.060  19.262  0.00  0.00    +0.000 A 
ATOM     24  C   UNL     1      -3.193  11.311  18.457  0.00  0.00    +0.000 A 
ATOM     25  C   UNL     1      -2.611  10.313  17.642  0.00  0.00    +0.000 A 
ATOM     26  C   UNL     1      -1.227  10.096  17.617  0.00  0.00    +0.000 A 
BRANCH  24  27
ATOM     27  C   UNL     1      -4.704  11.551  18.411  0.00  0.00    +0.000 C 
ATOM     28 CL   UNL     1      -5.304  12.219  16.856  0.00  0.00    +0.000 Cl
ATOM     29 CL   UNL     1      -5.566   9.995  18.679  0.00  0.00    +0.000 Cl
ATOM     30 CL   UNL     1      -5.183  12.706  19.702  0.00  0.00    +0.000 Cl
ENDBRANCH  24  27
ENDBRANCH  20  21
ENDBRANCH   4  20
TORSDOF 8
ENDMDL
MODEL 3
REMARK VINA RESULT:      -7.5      0.673      1.162
REMARK  Name = 
REMARK  8 active torsions:
REMARK  status: ('A' for Active; 'I' for Inactive)
REMARK    1  A    between atoms: O_1  and  C_2
REMARK    2  A    between atoms: C_5  and  O_6
REMARK    3  A    between atoms: O_6  and  C_7
REMARK    4  A    between atoms: C_7  and  N_9
REMARK    5  A    between atoms: N_9  and  C_10
REMARK    6  A    between atoms: C_13  and  S_14
REMARK    7  A    between atoms: S_14  and  C_15
REMARK    8  A    between atoms: C_18  and  C_19
REMARK                            x       y       z     vdW  Elec       q    Type
REMARK                         _______ _______ _______ _____ _____    ______ ____
ROOT
ATOM      1  C   UNL     1       2.212   6.503  19.652  0.00  0.00    +0.000 A 
ATOM      2  C   UNL     1       1.601   7.389  20.544  0.00  0.00    +0.000 A 
ATOM      3  C   UNL     1       1.368   8.715  20.174  0.00  0.00    +0.000 A 
ATOM      4  C   UNL     1       1.739   9.169  18.908  0.00  0.00    +0.000 A 
ATOM      5  C   UNL     1       2.323   8.277  18.003  0.00  0.00    +0.000 A 
ATOM      6  C   UNL     1       2.577   6.953  18.382  0.00  0.00    +0.000 A 
ENDROOT
BRANCH   1   7
ATOM      7  N   UNL     1       2.573   5.200  20.031  0.00  0.00    +0.000 N 
ATOM      8  H   UNL     1       2.707   5.022  21.018  0.00  0.00    +0.000 HD
BRANCH   7   9
ATOM      9  C   UNL     1       2.630   4.095  19.219  0.00  0.00    +0.000 C 
ATOM     10  S   UNL     1       1.248   3.349  18.674  0.00  0.00    +0.000 S 
BRANCH   9  11
ATOM     11  O   UNL     1       3.928   3.639  18.948  0.00  0.00    +0.000 OA
BRANCH  11  15
ATOM     12  C   UNL     1       6.711   5.052  16.155  0.00  0.00    +0.000 A 
ATOM     13  C   UNL     1       5.567   4.375  15.733  0.00  0.00    +0.000 A 
ATOM     14  C   UNL     1       4.662   3.902  16.686  0.00  0.00    +0.000 A 
ATOM     15  C   UNL     1       4.922   4.107  18.041  0.00  0.00    +0.000 A 
ATOM     16  C   UNL     1       6.035   4.835  18.457  0.00  0.00    +0.000 A 
ATOM     17  C   UNL     1       6.947   5.286  17.504  0.00  0.00    +0.000 A 
BRANCH  12  18
ATOM     18  O   UNL     1       7.631   5.519  15.266  0.00  0.00    +0.000 OA
ATOM     19  H   UNL     1       7.975   4.770  14.750  0.00  0.00    +0.000 HD
ENDBRANCH  12  18
ENDBRANCH  11  15
ENDBRANCH   9  11
ENDBRANCH   7   9
ENDBRANCH   1   7
BRANCH   4  20
ATOM     20  S   UNL     1       1.426  10.859  18.445  0.00  0.00    +0.000 S 
BRANCH  20  21
ATOM     21  C   UNL     1      -0.354  10.944  18.493  0.00  0.00    +0.000 A 
ATOM     22  C   UNL     1      -0.962  11.944  19.256  0.00  0.00    +0.000 A 
ATOM     23  C   UNL     1      -2.354  12.104  19.257  0.00  0.00    +0.000 A 
ATOM     24  C   UNL     1      -3.190  11.271  18.491  0.00  0.00    +0.000 A 
ATOM     25  C   UNL     1      -2.557  10.253  17.742  0.00  0.00    +0.000 A 
ATOM     26  C   UNL     1      -1.164  10.095  17.740  0.00  0.00    +0.000 A 
BRANCH  24  27
ATOM     27  C   UNL     1      -4.710  11.442  18.417  0.00  0.00    +0.000 C 
ATOM     28 CL   UNL     1      -5.396  12.542  19.658  0.00  0.00    +0.000 Cl
ATOM     29 CL   UNL     1      -5.159  12.117  16.811  0.00  0.00    +0.000 Cl
ATOM     30 CL   UNL     1      -5.517   9.849  18.620  0.00  0.00    +0.000 Cl
ENDBRANCH  24  27
ENDBRANCH  20  21
ENDBRANCH   4  20
TORSDOF 8
ENDMDL
MODEL 4
REMARK VINA RESULT:      -7.4      0.678      1.763
REMARK  Name = 
REMARK  8 active torsions:
REMARK  status: ('A' for Active; 'I' for Inactive)
REMARK    1  A    between atoms: O_1  and  C_2
REMARK    2  A    between atoms: C_5  and  O_6
REMARK    3  A    between atoms: O_6  and  C_7
REMARK    4  A    between atoms: C_7  and  N_9
REMARK    5  A    between atoms: N_9  and  C_10
REMARK    6  A    between atoms: C_13  and  S_14
REMARK    7  A    between atoms: S_14  and  C_15
REMARK    8  A    between atoms: C_18  and  C_19
REMARK                            x       y       z     vdW  Elec       q    Type
REMARK                         _______ _______ _______ _____ _____    ______ ____
ROOT
ATOM      1  C   UNL     1       2.265   6.763  19.602  0.00  0.00    +0.000 A 
ATOM      2  C   UNL     1       2.577   7.256  18.333  0.00  0.00    +0.000 A 
ATOM      3  C   UNL     1       2.274   8.577  17.995  0.00  0.00    +0.000 A 
ATOM      4  C   UNL     1       1.661   9.420  18.923  0.00  0.00    +0.000 A 
ATOM      5  C   UNL     1       1.375   8.936  20.203  0.00  0.00    +0.000 A 
ATOM      6  C   UNL     1       1.657   7.606  20.535  0.00  0.00    +0.000 A 
ENDROOT
BRANCH   1   7
ATOM      7  N   UNL     1       2.441   5.410  19.937  0.00  0.00    +0.000 N 
ATOM      8  H   UNL     1       2.232   5.135  20.889  0.00  0.00    +0.000 HD
BRANCH   7   9
ATOM      9  C   UNL     1       2.731   4.383  19.076  0.00  0.00    +0.000 C 
ATOM     10  S   UNL     1       1.529   3.472  18.376  0.00  0.00    +0.000 S 
BRANCH   9  11
ATOM     11  O   UNL     1       4.102   4.148  18.893  0.00  0.00    +0.000 OA
BRANCH  11  15
ATOM     12  C   UNL     1       6.833   5.127  15.872  0.00  0.00    +0.000 A 
ATOM     13  C   UNL     1       7.005   5.616  17.166  0.00  0.00    +0.000 A 
ATOM     14  C   UNL     1       6.072   5.286  18.152  0.00  0.00    +0.000 A 
ATOM     15  C   UNL     1       4.981   4.481  17.823  0.00  0.00    +0.000 A 
ATOM     16  C   UNL     1       4.843   3.946  16.543  0.00  0.00    +0.000 A 
ATOM     17  C   UNL     1       5.764   4.296  15.558  0.00  0.00    +0.000 A 
BRANCH  12  18
ATOM     18  O   UNL     1       7.706   5.433  14.873  0.00  0.00    +0.000 OA
ATOM     19  H   UNL     1       8.041   6.335  15.016  0.00  0.00    +0.000 HD
ENDBRANCH  12  18
ENDBRANCH  11  15
ENDBRANCH   9  11
ENDBRANCH   7   9
ENDBRANCH   1   7
BRANCH   4  20
ATOM     20  S   UNL     1       1.291  11.104  18.483  0.00  0.00    +0.000 S 
BRANCH  20  21
ATOM     21  C   UNL     1      -0.491  11.131  18.544  0.00  0.00    +0.000 A 
ATOM     22  C   UNL     1      -1.126  12.130  19.285  0.00  0.00    +0.000 A 
ATOM     23  C   UNL     1      -2.522  12.244  19.293  0.00  0.00    +0.000 A 
ATOM     24  C   UNL     1      -3.336  11.363  18.557  0.00  0.00    +0.000 A 
ATOM     25  C   UNL     1      -2.675  10.347  17.830  0.00  0.00    +0.000 A 
ATOM     26  C   UNL     1      -1.278  10.236  17.821  0.00  0.00    +0.000 A 
BRANCH  24  27
ATOM     27  C   UNL     1      -4.861  11.481  18.492  0.00  0.00    +0.000 C 
ATOM     28 CL   UNL     1      -5.480  12.339  17.042  0.00  0.00    +0.000 Cl
ATOM     29 CL   UNL     1      -5.588   9.835  18.476  0.00  0.00    +0.000 Cl
ATOM     30 CL   UNL     1      -5.471  12.368  19.931  0.00  0.00    +0.000 Cl
ENDBRANCH  24  27
ENDBRANCH  20  21
ENDBRANCH   4  20
TORSDOF 8
ENDMDL
MODEL 5
REMARK VINA RESULT:      -7.4      4.267      5.128
REMARK  Name = 
REMARK  8 active torsions:
REMARK  status: ('A' for Active; 'I' for Inactive)
REMARK    1  A    between atoms: O_1  and  C_2
REMARK    2  A    between atoms: C_5  and  O_6
REMARK    3  A    between atoms: O_6  and  C_7
REMARK    4  A    between atoms: C_7  and  N_9
REMARK    5  A    between atoms: N_9  and  C_10
REMARK    6  A    between atoms: C_13  and  S_14
REMARK    7  A    between atoms: S_14  and  C_15
REMARK    8  A    between atoms: C_18  and  C_19
REMARK                            x       y       z     vdW  Elec       q    Type
REMARK                         _______ _______ _______ _____ _____    ______ ____
ROOT
ATOM      1  C   UNL     1       2.419   7.073  19.634  0.00  0.00    +0.000 A 
ATOM      2  C   UNL     1       1.685   7.729  20.626  0.00  0.00    +0.000 A 
ATOM      3  C   UNL     1       1.038   8.933  20.344  0.00  0.00    +0.000 A 
ATOM      4  C   UNL     1       1.112   9.492  19.068  0.00  0.00    +0.000 A 
ATOM      5  C   UNL     1       1.821   8.822  18.066  0.00  0.00    +0.000 A 
ATOM      6  C   UNL     1       2.490   7.627  18.354  0.00  0.00    +0.000 A 
ENDROOT
BRANCH   1   7
ATOM      7  N   UNL     1       3.183   5.927  19.911  0.00  0.00    +0.000 N 
ATOM      8  H   UNL     1       3.965   6.031  20.546  0.00  0.00    +0.000 HD
BRANCH   7   9
ATOM      9  C   UNL     1       2.905   4.641  19.524  0.00  0.00    +0.000 C 
ATOM     10  S   UNL     1       1.420   3.950  19.815  0.00  0.00    +0.000 S 
BRANCH   9  11
ATOM     11  O   UNL     1       3.980   3.968  18.926  0.00  0.00    +0.000 OA
BRANCH  11  15
ATOM     12  C   UNL     1       6.768   5.023  15.985  0.00  0.00    +0.000 A 
ATOM     13  C   UNL     1       7.153   4.926  17.321  0.00  0.00    +0.000 A 
ATOM     14  C   UNL     1       6.201   4.586  18.284  0.00  0.00    +0.000 A 
ATOM     15  C   UNL     1       4.881   4.359  17.894  0.00  0.00    +0.000 A 
ATOM     16  C   UNL     1       4.512   4.400  16.551  0.00  0.00    +0.000 A 
ATOM     17  C   UNL     1       5.461   4.760  15.596  0.00  0.00    +0.000 A 
BRANCH  12  18
ATOM     18  O   UNL     1       7.657   5.367  15.010  0.00  0.00    +0.000 OA
ATOM     19  H   UNL     1       8.012   6.250  15.209  0.00  0.00    +0.000 HD
ENDBRANCH  12  18
ENDBRANCH  11  15
ENDBRANCH   9  11
ENDBRANCH   7   9
ENDBRANCH   1   7
BRANCH   4  20
ATOM     20  S   UNL     1       0.272  11.023  18.719  0.00  0.00    +0.000 S 
BRANCH  20  21
ATOM     21  C   UNL     1       1.503  12.239  19.149  0.00  0.00    +0.000 A 
ATOM     22  C   UNL     1       2.280  12.801  18.134  0.00  0.00    +0.000 A 
ATOM     23  C   UNL     1       3.200  13.821  18.412  0.00  0.00    +0.000 A 
ATOM     24  C   UNL     1       3.373  14.320  19.716  0.00  0.00    +0.000 A 
ATOM     25  C   UNL     1       2.591  13.724  20.732  0.00  0.00    +0.000 A 
ATOM     26  C   UNL     1       1.671  12.704  20.452  0.00  0.00    +0.000 A 
BRANCH  24  27
ATOM     27  C   UNL     1       4.325  15.469  20.058  0.00  0.00    +0.000 C 
ATOM     28 CL   UNL     1       5.935  14.949  20.656  0.00  0.00    +0.000 Cl
ATOM     29 CL   UNL     1       4.609  16.469  18.590  0.00  0.00    +0.000 Cl
ATOM     30 CL   UNL     1       3.598  16.509  21.332  0.00  0.00    +0.000 Cl
ENDBRANCH  24  27
ENDBRANCH  20  21
ENDBRANCH   4  20
TORSDOF 8
ENDMDL
MODEL 6
REMARK VINA RESULT:      -7.3      4.513      5.342
REMARK  Name = 
REMARK  8 active torsions:
REMARK  status: ('A' for Active; 'I' for Inactive)
REMARK    1  A    between atoms: O_1  and  C_2
REMARK    2  A    between atoms: C_5  and  O_6
REMARK    3  A    between atoms: O_6  and  C_7
REMARK    4  A    between atoms: C_7  and  N_9
REMARK    5  A    between atoms: N_9  and  C_10
REMARK    6  A    between atoms: C_13  and  S_14
REMARK    7  A    between atoms: S_14  and  C_15
REMARK    8  A    between atoms: C_18  and  C_19
REMARK                            x       y       z     vdW  Elec       q    Type
REMARK                         _______ _______ _______ _____ _____    ______ ____
ROOT
ATOM      1  C   UNL     1       2.013   7.583  20.022  0.00  0.00    +0.000 A 
ATOM      2  C   UNL     1       2.159   8.115  18.738  0.00  0.00    +0.000 A 
ATOM      3  C   UNL     1       1.559   9.332  18.407  0.00  0.00    +0.000 A 
ATOM      4  C   UNL     1       0.811  10.031  19.355  0.00  0.00    +0.000 A 
ATOM      5  C   UNL     1       0.689   9.514  20.648  0.00  0.00    +0.000 A 
ATOM      6  C   UNL     1       1.271   8.284  20.975  0.00  0.00    +0.000 A 
ENDROOT
BRANCH   1   7
ATOM      7  N   UNL     1       2.497   6.307  20.356  0.00  0.00    +0.000 N 
ATOM      8  H   UNL     1       2.374   5.998  21.312  0.00  0.00    +0.000 HD
BRANCH   7   9
ATOM      9  C   UNL     1       2.995   5.366  19.492  0.00  0.00    +0.000 C 
ATOM     10  S   UNL     1       2.008   4.232  18.781  0.00  0.00    +0.000 S 
BRANCH   9  11
ATOM     11  O   UNL     1       4.385   5.418  19.314  0.00  0.00    +0.000 OA
BRANCH  11  15
ATOM     12  C   UNL     1       6.799   5.299  15.894  0.00  0.00    +0.000 A 
ATOM     13  C   UNL     1       7.206   4.668  17.068  0.00  0.00    +0.000 A 
ATOM     14  C   UNL     1       6.389   4.735  18.199  0.00  0.00    +0.000 A 
ATOM     15  C   UNL     1       5.185   5.438  18.136  0.00  0.00    +0.000 A 
ATOM     16  C   UNL     1       4.754   6.017  16.944  0.00  0.00    +0.000 A 
ATOM     17  C   UNL     1       5.582   5.966  15.824  0.00  0.00    +0.000 A 
BRANCH  12  18
ATOM     18  O   UNL     1       7.568   5.275  14.769  0.00  0.00    +0.000 OA
ATOM     19  H   UNL     1       7.494   4.396  14.359  0.00  0.00    +0.000 HD
ENDBRANCH  12  18
ENDBRANCH  11  15
ENDBRANCH   9  11
ENDBRANCH   7   9
ENDBRANCH   1   7
BRANCH   4  20
ATOM     20  S   UNL     1       0.061  11.586  18.922  0.00  0.00    +0.000 S 
BRANCH  20  21
ATOM     21  C   UNL     1       1.414  12.730  19.120  0.00  0.00    +0.000 A 
ATOM     22  C   UNL     1       1.702  13.220  20.396  0.00  0.00    +0.000 A 
ATOM     23  C   UNL     1       2.807  14.053  20.615  0.00  0.00    +0.000 A 
ATOM     24  C   UNL     1       3.668  14.424  19.566  0.00  0.00    +0.000 A 
ATOM     25  C   UNL     1       3.348  13.933  18.280  0.00  0.00    +0.000 A 
ATOM     26  C   UNL     1       2.243  13.099  18.062  0.00  0.00    +0.000 A 
BRANCH  24  27
ATOM     27  C   UNL     1       4.917  15.287  19.767  0.00  0.00    +0.000 C 
ATOM     28 CL   UNL     1       4.585  17.036  19.993  0.00  0.00    +0.000 Cl
ATOM     29 CL   UNL     1       5.802  14.728  21.231  0.00  0.00    +0.000 Cl
ATOM     30 CL   UNL     1       6.003  15.135  18.343  0.00  0.00    +0.000 Cl
ENDBRANCH  24  27
ENDBRANCH  20  21
ENDBRANCH   4  20
TORSDOF 8
ENDMDL
MODEL 7
REMARK VINA RESULT:      -7.3      0.871      1.776
REMARK  Name = 
REMARK  8 active torsions:
REMARK  status: ('A' for Active; 'I' for Inactive)
REMARK    1  A    between atoms: O_1  and  C_2
REMARK    2  A    between atoms: C_5  and  O_6
REMARK    3  A    between atoms: O_6  and  C_7
REMARK    4  A    between atoms: C_7  and  N_9
REMARK    5  A    between atoms: N_9  and  C_10
REMARK    6  A    between atoms: C_13  and  S_14
REMARK    7  A    between atoms: S_14  and  C_15
REMARK    8  A    between atoms: C_18  and  C_19
REMARK                            x       y       z     vdW  Elec       q    Type
REMARK                         _______ _______ _______ _____ _____    ______ ____
ROOT
ATOM      1  C   UNL     1       1.909   7.499  19.981  0.00  0.00    +0.000 A 
ATOM      2  C   UNL     1       2.090   7.931  18.665  0.00  0.00    +0.000 A 
ATOM      3  C   UNL     1       1.723   9.225  18.290  0.00  0.00    +0.000 A 
ATOM      4  C   UNL     1       1.175  10.102  19.227  0.00  0.00    +0.000 A 
ATOM      5  C   UNL     1       1.020   9.680  20.551  0.00  0.00    +0.000 A 
ATOM      6  C   UNL     1       1.367   8.376  20.922  0.00  0.00    +0.000 A 
ENDROOT
BRANCH   1   7
ATOM      7  N   UNL     1       2.151   6.170  20.366  0.00  0.00    +0.000 N 
ATOM      8  H   UNL     1       1.577   5.788  21.108  0.00  0.00    +0.000 HD
BRANCH   7   9
ATOM      9  C   UNL     1       2.990   5.276  19.750  0.00  0.00    +0.000 C 
ATOM     10  S   UNL     1       2.506   3.721  19.415  0.00  0.00    +0.000 S 
BRANCH   9  11
ATOM     11  O   UNL     1       4.275   5.772  19.487  0.00  0.00    +0.000 OA
BRANCH  11  15
ATOM     12  C   UNL     1       6.856   5.133  16.252  0.00  0.00    +0.000 A 
ATOM     13  C   UNL     1       7.173   4.640  17.517  0.00  0.00    +0.000 A 
ATOM     14  C   UNL     1       6.302   4.880  18.582  0.00  0.00    +0.000 A 
ATOM     15  C   UNL     1       5.136   5.613  18.363  0.00  0.00    +0.000 A 
ATOM     16  C   UNL     1       4.793   6.053  17.086  0.00  0.00    +0.000 A 
ATOM     17  C   UNL     1       5.676   5.831  16.031  0.00  0.00    +0.000 A 
BRANCH  12  18
ATOM     18  O   UNL     1       7.681   4.939  15.185  0.00  0.00    +0.000 OA
ATOM     19  H   UNL     1       8.394   5.600  15.217  0.00  0.00    +0.000 HD
ENDBRANCH  12  18
ENDBRANCH  11  15
ENDBRANCH   9  11
ENDBRANCH   7   9
ENDBRANCH   1   7
BRANCH   4  20
ATOM     20  S   UNL     1       0.720  11.752  18.739  0.00  0.00    +0.000 S 
BRANCH  20  21
ATOM     21  C   UNL     1      -1.061  11.683  18.773  0.00  0.00    +0.000 A 
ATOM     22  C   UNL     1      -1.740  12.298  19.826  0.00  0.00    +0.000 A 
ATOM     23  C   UNL     1      -3.140  12.345  19.852  0.00  0.00    +0.000 A 
ATOM     24  C   UNL     1      -3.913  11.780  18.821  0.00  0.00    +0.000 A 
ATOM     25  C   UNL     1      -3.207  11.144  17.774  0.00  0.00    +0.000 A 
ATOM     26  C   UNL     1      -1.806  11.100  17.749  0.00  0.00    +0.000 A 
BRANCH  24  27
ATOM     27  C   UNL     1      -5.442  11.853  18.778  0.00  0.00    +0.000 C 
ATOM     28 CL   UNL     1      -6.106  12.695  17.339  0.00  0.00    +0.000 Cl
ATOM     29 CL   UNL     1      -6.121  10.186  18.769  0.00  0.00    +0.000 Cl
ATOM     30 CL   UNL     1      -6.057  12.719  20.228  0.00  0.00    +0.000 Cl
ENDBRANCH  24  27
ENDBRANCH  20  21
ENDBRANCH   4  20
TORSDOF 8
ENDMDL
MODEL 8
REMARK VINA RESULT:      -7.3      0.540      1.404
REMARK  Name = 
REMARK  8 active torsions:
REMARK  status: ('A' for Active; 'I' for Inactive)
REMARK    1  A    between atoms: O_1  and  C_2
REMARK    2  A    between atoms: C_5  and  O_6
REMARK    3  A    between atoms: O_6  and  C_7
REMARK    4  A    between atoms: C_7  and  N_9
REMARK    5  A    between atoms: N_9  and  C_10
REMARK    6  A    between atoms: C_13  and  S_14
REMARK    7  A    between atoms: S_14  and  C_15
REMARK    8  A    between atoms: C_18  and  C_19
REMARK                            x       y       z     vdW  Elec       q    Type
REMARK                         _______ _______ _______ _____ _____    ______ ____
ROOT
ATOM      1  C   UNL     1       2.211   6.548  19.658  0.00  0.00    +0.000 A 
ATOM      2  C   UNL     1       2.525   7.021  18.381  0.00  0.00    +0.000 A 
ATOM      3  C   UNL     1       2.249   8.344  18.031  0.00  0.00    +0.000 A 
ATOM      4  C   UNL     1       1.660   9.210  18.954  0.00  0.00    +0.000 A 
ATOM      5  C   UNL     1       1.372   8.746  20.241  0.00  0.00    +0.000 A 
ATOM      6  C   UNL     1       1.628   7.414  20.585  0.00  0.00    +0.000 A 
ENDROOT
BRANCH   1   7
ATOM      7  N   UNL     1       2.360   5.195  20.006  0.00  0.00    +0.000 N 
ATOM      8  H   UNL     1       2.311   4.960  20.990  0.00  0.00    +0.000 HD
BRANCH   7   9
ATOM      9  C   UNL     1       2.424   4.129  19.146  0.00  0.00    +0.000 C 
ATOM     10  S   UNL     1       1.051   3.342  18.635  0.00  0.00    +0.000 S 
BRANCH   9  11
ATOM     11  O   UNL     1       3.726   3.744  18.794  0.00  0.00    +0.000 OA
BRANCH  11  15
ATOM     12  C   UNL     1       6.777   5.960  16.972  0.00  0.00    +0.000 A 
ATOM     13  C   UNL     1       5.799   5.335  16.199  0.00  0.00    +0.000 A 
ATOM     14  C   UNL     1       4.801   4.591  16.831  0.00  0.00    +0.000 A 
ATOM     15  C   UNL     1       4.804   4.478  18.222  0.00  0.00    +0.000 A 
ATOM     16  C   UNL     1       5.748   5.152  18.994  0.00  0.00    +0.000 A 
ATOM     17  C   UNL     1       6.755   5.876  18.359  0.00  0.00    +0.000 A 
BRANCH  12  18
ATOM     18  O   UNL     1       7.780   6.685  16.402  0.00  0.00    +0.000 OA
ATOM     19  H   UNL     1       7.396   7.479  15.990  0.00  0.00    +0.000 HD
ENDBRANCH  12  18
ENDBRANCH  11  15
ENDBRANCH   9  11
ENDBRANCH   7   9
ENDBRANCH   1   7
BRANCH   4  20
ATOM     20  S   UNL     1       1.323  10.897  18.498  0.00  0.00    +0.000 S 
BRANCH  20  21
ATOM     21  C   UNL     1      -0.458  10.953  18.533  0.00  0.00    +0.000 A 
ATOM     22  C   UNL     1      -1.087  11.932  19.306  0.00  0.00    +0.000 A 
ATOM     23  C   UNL     1      -2.482  12.070  19.298  0.00  0.00    +0.000 A 
ATOM     24  C   UNL     1      -3.299  11.235  18.514  0.00  0.00    +0.000 A 
ATOM     25  C   UNL     1      -2.644  10.238  17.755  0.00  0.00    +0.000 A 
ATOM     26  C   UNL     1      -1.249  10.103  17.762  0.00  0.00    +0.000 A 
BRANCH  24  27
ATOM     27  C   UNL     1      -4.821  11.382  18.431  0.00  0.00    +0.000 C 
ATOM     28 CL   UNL     1      -5.543  12.388  19.731  0.00  0.00    +0.000 Cl
ATOM     29 CL   UNL     1      -5.263  12.153  16.866  0.00  0.00    +0.000 Cl
ATOM     30 CL   UNL     1      -5.600   9.765  18.519  0.00  0.00    +0.000 Cl
ENDBRANCH  24  27
ENDBRANCH  20  21
ENDBRANCH   4  20
TORSDOF 8
ENDMDL
MODEL 9
REMARK VINA RESULT:      -7.3      4.268      5.208
REMARK  Name = 
REMARK  8 active torsions:
REMARK  status: ('A' for Active; 'I' for Inactive)
REMARK    1  A    between atoms: O_1  and  C_2
REMARK    2  A    between atoms: C_5  and  O_6
REMARK    3  A    between atoms: O_6  and  C_7
REMARK    4  A    between atoms: C_7  and  N_9
REMARK    5  A    between atoms: N_9  and  C_10
REMARK    6  A    between atoms: C_13  and  S_14
REMARK    7  A    between atoms: S_14  and  C_15
REMARK    8  A    between atoms: C_18  and  C_19
REMARK                            x       y       z     vdW  Elec       q    Type
REMARK                         _______ _______ _______ _____ _____    ______ ____
ROOT
ATOM      1  C   UNL     1       2.314   7.084  19.836  0.00  0.00    +0.000 A 
ATOM      2  C   UNL     1       2.437   7.612  18.548  0.00  0.00    +0.000 A 
ATOM      3  C   UNL     1       1.802   8.810  18.213  0.00  0.00    +0.000 A 
ATOM      4  C   UNL     1       1.041   9.494  19.161  0.00  0.00    +0.000 A 
ATOM      5  C   UNL     1       0.941   8.983  20.458  0.00  0.00    +0.000 A 
ATOM      6  C   UNL     1       1.558   7.771  20.789  0.00  0.00    +0.000 A 
ENDROOT
BRANCH   1   7
ATOM      7  N   UNL     1       2.834   5.824  20.174  0.00  0.00    +0.000 N 
ATOM      8  H   UNL     1       3.101   5.675  21.140  0.00  0.00    +0.000 HD
BRANCH   7   9
ATOM      9  C   UNL     1       2.891   4.716  19.369  0.00  0.00    +0.000 C 
ATOM     10  S   UNL     1       1.510   3.932  18.872  0.00  0.00    +0.000 S 
BRANCH   9  11
ATOM     11  O   UNL     1       4.190   4.289  19.058  0.00  0.00    +0.000 OA
BRANCH  11  15
ATOM     12  C   UNL     1       6.824   5.038  15.890  0.00  0.00    +0.000 A 
ATOM     13  C   UNL     1       7.289   5.010  17.204  0.00  0.00    +0.000 A 
ATOM     14  C   UNL     1       6.387   4.772  18.243  0.00  0.00    +0.000 A 
ATOM     15  C   UNL     1       5.037   4.576  17.950  0.00  0.00    +0.000 A 
ATOM     16  C   UNL     1       4.586   4.547  16.632  0.00  0.00    +0.000 A 
ATOM     17  C   UNL     1       5.485   4.806  15.599  0.00  0.00    +0.000 A 
BRANCH  12  18
ATOM     18  O   UNL     1       7.661   5.282  14.843  0.00  0.00    +0.000 OA
ATOM     19  H   UNL     1       7.127   5.506  14.061  0.00  0.00    +0.000 HD
ENDBRANCH  12  18
ENDBRANCH  11  15
ENDBRANCH   9  11
ENDBRANCH   7   9
ENDBRANCH   1   7
BRANCH   4  20
ATOM     20  S   UNL     1       0.246  11.026  18.723  0.00  0.00    +0.000 S 
BRANCH  20  21
ATOM     21  C   UNL     1       1.492  12.233  19.136  0.00  0.00    +0.000 A 
ATOM     22  C   UNL     1       2.284  12.760  18.114  0.00  0.00    +0.000 A 
ATOM     23  C   UNL     1       3.217  13.773  18.376  0.00  0.00    +0.000 A 
ATOM     24  C   UNL     1       3.388  14.299  19.669  0.00  0.00    +0.000 A 
ATOM     25  C   UNL     1       2.590  13.737  20.692  0.00  0.00    +0.000 A 
ATOM     26  C   UNL     1       1.656  12.726  20.429  0.00  0.00    +0.000 A 
BRANCH  24  27
ATOM     27  C   UNL     1       4.354  15.441  19.993  0.00  0.00    +0.000 C 
ATOM     28 CL   UNL     1       5.800  15.517  18.932  0.00  0.00    +0.000 Cl
ATOM     29 CL   UNL     1       3.498  17.015  19.825  0.00  0.00    +0.000 Cl
ATOM     30 CL   UNL     1       4.946  15.284  21.683  0.00  0.00    +0.000 Cl
ENDBRANCH  24  27
ENDBRANCH  20  21
ENDBRANCH   4  20
TORSDOF 8
ENDMDL
