MODEL 1
REMARK VINA RESULT:      -8.8      0.000      0.000
REMARK  Name = 
REMARK  4 active torsions:
REMARK  status: ('A' for Active; 'I' for Inactive)
REMARK    1  A    between atoms: C_7  and  C_8
REMARK    2  A    between atoms: C_12  and  O_13
REMARK    3  A    between atoms: O_13  and  C_14
REMARK    4  A    between atoms: C_19  and  O_20
REMARK                            x       y       z     vdW  Elec       q    Type
REMARK                         _______ _______ _______ _____ _____    ______ ____
ROOT
ATOM      1  C   UNL     1       2.242   7.598  19.052  0.00  0.00    +0.000 A 
ATOM      2  C   UNL     1       1.957   7.333  20.391  0.00  0.00    +0.000 A 
ATOM      3  C   UNL     1       1.124   8.201  21.095  0.00  0.00    +0.000 A 
ATOM      4  C   UNL     1       0.619   9.327  20.457  0.00  0.00    +0.000 A 
ATOM      5  C   UNL     1       0.988   9.546  19.142  0.00  0.00    +0.000 A 
ATOM      6  N   UNL     1       1.753   8.693  18.428  0.00  0.00    +0.000 NA
ENDROOT
BRANCH   1  13
ATOM      7  O   UNL     1       7.469   5.149  14.767  0.00  0.00    +0.000 OA
ATOM      8  C   UNL     1       6.494   5.328  15.474  0.00  0.00    +0.000 A 
ATOM      9  N   UNL     1       5.612   4.348  15.950  0.00  0.00    +0.000 N 
ATOM     10  C   UNL     1       4.642   4.963  16.731  0.00  0.00    +0.000 A 
ATOM     11  C   UNL     1       3.593   4.417  17.424  0.00  0.00    +0.000 A 
ATOM     12  C   UNL     1       2.805   5.309  18.164  0.00  0.00    +0.000 A 
ATOM     13  C   UNL     1       3.063   6.714  18.202  0.00  0.00    +0.000 A 
ATOM     14  C   UNL     1       4.145   7.224  17.459  0.00  0.00    +0.000 A 
ATOM     15  C   UNL     1       4.907   6.329  16.745  0.00  0.00    +0.000 A 
ATOM     16  N   UNL     1       6.039   6.556  15.971  0.00  0.00    +0.000 N 
ATOM     17  H   UNL     1       5.710   3.364  15.758  0.00  0.00    +0.000 HD
ATOM     18  H   UNL     1       6.497   7.434  15.800  0.00  0.00    +0.000 HD
ENDBRANCH   1  13
BRANCH   5  19
ATOM     19  O   UNL     1       0.523  10.704  18.534  0.00  0.00    +0.000 OA
BRANCH  19  20
ATOM     20  C   UNL     1      -0.834  10.805  18.304  0.00  0.00    +0.000 A 
ATOM     21  C   UNL     1      -1.389   9.867  17.425  0.00  0.00    +0.000 A 
ATOM     22  C   UNL     1      -2.762   9.876  17.166  0.00  0.00    +0.000 A 
ATOM     23  C   UNL     1      -3.567  10.819  17.792  0.00  0.00    +0.000 A 
ATOM     24  F   UNL     1      -4.886  10.840  17.550  0.00  0.00    +0.000 F 
ATOM     25  C   UNL     1      -3.022  11.741  18.680  0.00  0.00    +0.000 A 
ATOM     26  C   UNL     1      -1.662  11.729  18.955  0.00  0.00    +0.000 A 
BRANCH  25  27
ATOM     27  O   UNL     1      -3.806  12.672  19.302  0.00  0.00    +0.000 OA
ATOM     28  H   UNL     1      -4.650  12.703  18.813  0.00  0.00    +0.000 HD
ENDBRANCH  25  27
ENDBRANCH  19  20
ENDBRANCH   5  19
TORSDOF 4
ENDMDL
MODEL 2
REMARK VINA RESULT:      -8.8      3.706      8.439
REMARK  Name = 
REMARK  4 active torsions:
REMARK  status: ('A' for Active; 'I' for Inactive)
REMARK    1  A    between atoms: C_7  and  C_8
REMARK    2  A    between atoms: C_12  and  O_13
REMARK    3  A    between atoms: O_13  and  C_14
REMARK    4  A    between atoms: C_19  and  O_20
REMARK                            x       y       z     vdW  Elec       q    Type
REMARK                         _______ _______ _______ _____ _____    ______ ____
ROOT
ATOM      1  C   UNL     1       2.329   5.701  18.207  0.00  0.00    +0.000 A 
ATOM      2  C   UNL     1       1.439   4.638  18.059  0.00  0.00    +0.000 A 
ATOM      3  C   UNL     1       1.903   3.428  17.545  0.00  0.00    +0.000 A 
ATOM      4  C   UNL     1       3.234   3.316  17.163  0.00  0.00    +0.000 A 
ATOM      5  C   UNL     1       4.041   4.431  17.295  0.00  0.00    +0.000 A 
ATOM      6  N   UNL     1       3.625   5.596  17.835  0.00  0.00    +0.000 NA
ENDROOT
BRANCH   1  13
ATOM      7  O   UNL     1       0.282  12.556  18.909  0.00  0.00    +0.000 OA
ATOM      8  C   UNL     1       0.631  11.398  19.043  0.00  0.00    +0.000 A 
ATOM      9  N   UNL     1       0.684  10.671  20.240  0.00  0.00    +0.000 N 
ATOM     10  C   UNL     1       1.124   9.384  19.961  0.00  0.00    +0.000 A 
ATOM     11  C   UNL     1       1.306   8.314  20.799  0.00  0.00    +0.000 A 
ATOM     12  C   UNL     1       1.723   7.118  20.199  0.00  0.00    +0.000 A 
ATOM     13  C   UNL     1       1.956   7.002  18.794  0.00  0.00    +0.000 A 
ATOM     14  C   UNL     1       1.767   8.137  17.981  0.00  0.00    +0.000 A 
ATOM     15  C   UNL     1       1.352   9.297  18.591  0.00  0.00    +0.000 A 
ATOM     16  N   UNL     1       1.056  10.532  18.027  0.00  0.00    +0.000 N 
ATOM     17  H   UNL     1       0.416  11.046  21.137  0.00  0.00    +0.000 HD
ATOM     18  H   UNL     1       1.100  10.787  17.056  0.00  0.00    +0.000 HD
ENDBRANCH   1  13
BRANCH   5  19
ATOM     19  O   UNL     1       5.353   4.323  16.855  0.00  0.00    +0.000 OA
BRANCH  19  20
ATOM     20  C   UNL     1       6.296   5.131  17.456  0.00  0.00    +0.000 A 
ATOM     21  C   UNL     1       6.686   6.272  16.744  0.00  0.00    +0.000 A 
ATOM     22  C   UNL     1       7.609   7.163  17.298  0.00  0.00    +0.000 A 
ATOM     23  C   UNL     1       8.130   6.907  18.561  0.00  0.00    +0.000 A 
ATOM     24  F   UNL     1       9.019   7.753  19.102  0.00  0.00    +0.000 F 
ATOM     25  C   UNL     1       7.732   5.784  19.278  0.00  0.00    +0.000 A 
ATOM     26  C   UNL     1       6.803   4.902  18.743  0.00  0.00    +0.000 A 
BRANCH  25  27
ATOM     27  O   UNL     1       8.238   5.523  20.521  0.00  0.00    +0.000 OA
ATOM     28  H   UNL     1       8.516   6.380  20.897  0.00  0.00    +0.000 HD
ENDBRANCH  25  27
ENDBRANCH  19  20
ENDBRANCH   5  19
TORSDOF 4
ENDMDL
MODEL 3
REMARK VINA RESULT:      -8.7      4.086      8.605
REMARK  Name = 
REMARK  4 active torsions:
REMARK  status: ('A' for Active; 'I' for Inactive)
REMARK    1  A    between atoms: C_7  and  C_8
REMARK    2  A    between atoms: C_12  and  O_13
REMARK    3  A    between atoms: O_13  and  C_14
REMARK    4  A    between atoms: C_19  and  O_20
REMARK                            x       y       z     vdW  Elec       q    Type
REMARK                         _______ _______ _______ _____ _____    ______ ____
ROOT
ATOM      1  C   UNL     1       2.349   5.559  18.176  0.00  0.00    +0.000 A 
ATOM      2  C   UNL     1       1.521   4.443  18.060  0.00  0.00    +0.000 A 
ATOM      3  C   UNL     1       2.047   3.254  17.558  0.00  0.00    +0.000 A 
ATOM      4  C   UNL     1       3.376   3.214  17.155  0.00  0.00    +0.000 A 
ATOM      5  C   UNL     1       4.118   4.376  17.255  0.00  0.00    +0.000 A 
ATOM      6  N   UNL     1       3.642   5.524  17.784  0.00  0.00    +0.000 NA
ENDROOT
BRANCH   1  13
ATOM      7  O   UNL     1       0.375  10.650  22.852  0.00  0.00    +0.000 OA
ATOM      8  C   UNL     1       0.677   9.971  21.888  0.00  0.00    +0.000 A 
ATOM      9  N   UNL     1       0.874  10.419  20.575  0.00  0.00    +0.000 N 
ATOM     10  C   UNL     1       1.216   9.332  19.780  0.00  0.00    +0.000 A 
ATOM     11  C   UNL     1       1.528   9.280  18.446  0.00  0.00    +0.000 A 
ATOM     12  C   UNL     1       1.878   8.022  17.938  0.00  0.00    +0.000 A 
ATOM     13  C   UNL     1       1.909   6.846  18.748  0.00  0.00    +0.000 A 
ATOM     14  C   UNL     1       1.565   6.953  20.110  0.00  0.00    +0.000 A 
ATOM     15  C   UNL     1       1.231   8.199  20.587  0.00  0.00    +0.000 A 
ATOM     16  N   UNL     1       0.895   8.587  21.879  0.00  0.00    +0.000 N 
ATOM     17  H   UNL     1       0.797  11.383  20.293  0.00  0.00    +0.000 HD
ATOM     18  H   UNL     1       0.838   8.005  22.697  0.00  0.00    +0.000 HD
ENDBRANCH   1  13
BRANCH   5  19
ATOM     19  O   UNL     1       5.427   4.339  16.795  0.00  0.00    +0.000 OA
BRANCH  19  20
ATOM     20  C   UNL     1       6.346   5.158  17.417  0.00  0.00    +0.000 A 
ATOM     21  C   UNL     1       6.691   6.335  16.741  0.00  0.00    +0.000 A 
ATOM     22  C   UNL     1       7.588   7.238  17.319  0.00  0.00    +0.000 A 
ATOM     23  C   UNL     1       8.126   6.959  18.569  0.00  0.00    +0.000 A 
ATOM     24  F   UNL     1       8.989   7.817  19.133  0.00  0.00    +0.000 F 
ATOM     25  C   UNL     1       7.772   5.800  19.251  0.00  0.00    +0.000 A 
ATOM     26  C   UNL     1       6.870   4.905  18.692  0.00  0.00    +0.000 A 
BRANCH  25  27
ATOM     27  O   UNL     1       8.295   5.516  20.482  0.00  0.00    +0.000 OA
ATOM     28  H   UNL     1       8.925   6.231  20.692  0.00  0.00    +0.000 HD
ENDBRANCH  25  27
ENDBRANCH  19  20
ENDBRANCH   5  19
TORSDOF 4
ENDMDL
MODEL 4
REMARK VINA RESULT:      -8.6      4.101      8.690
REMARK  Name = 
REMARK  4 active torsions:
REMARK  status: ('A' for Active; 'I' for Inactive)
REMARK    1  A    between atoms: C_7  and  C_8
REMARK    2  A    between atoms: C_12  and  O_13
REMARK    3  A    between atoms: O_13  and  C_14
REMARK    4  A    between atoms: C_19  and  O_20
REMARK                            x       y       z     vdW  Elec       q    Type
REMARK                         _______ _______ _______ _____ _____    ______ ____
ROOT
ATOM      1  C   UNL     1       0.988   9.545  19.826  0.00  0.00    +0.000 A 
ATOM      2  C   UNL     1       1.170  10.098  18.559  0.00  0.00    +0.000 A 
ATOM      3  C   UNL     1       1.938   9.412  17.619  0.00  0.00    +0.000 A 
ATOM      4  C   UNL     1       2.532   8.208  17.974  0.00  0.00    +0.000 A 
ATOM      5  C   UNL     1       2.346   7.751  19.266  0.00  0.00    +0.000 A 
ATOM      6  N   UNL     1       1.566   8.374  20.175  0.00  0.00    +0.000 NA
ENDROOT
BRANCH   1  13
ATOM      7  O   UNL     1      -3.905  13.630  23.148  0.00  0.00    +0.000 OA
ATOM      8  C   UNL     1      -3.034  12.847  22.817  0.00  0.00    +0.000 A 
ATOM      9  N   UNL     1      -2.446  11.860  23.619  0.00  0.00    +0.000 N 
ATOM     10  C   UNL     1      -1.504  11.175  22.863  0.00  0.00    +0.000 A 
ATOM     11  C   UNL     1      -0.701  10.116  23.204  0.00  0.00    +0.000 A 
ATOM     12  C   UNL     1       0.125   9.611  22.191  0.00  0.00    +0.000 A 
ATOM     13  C   UNL     1       0.148  10.159  20.871  0.00  0.00    +0.000 A 
ATOM     14  C   UNL     1      -0.686  11.255  20.579  0.00  0.00    +0.000 A 
ATOM     15  C   UNL     1      -1.493  11.730  21.588  0.00  0.00    +0.000 A 
ATOM     16  N   UNL     1      -2.426  12.759  21.559  0.00  0.00    +0.000 N 
ATOM     17  H   UNL     1      -2.706  11.686  24.577  0.00  0.00    +0.000 HD
ATOM     18  H   UNL     1      -2.669  13.342  20.777  0.00  0.00    +0.000 HD
ENDBRANCH   1  13
BRANCH   5  19
ATOM     19  O   UNL     1       2.993   6.576  19.625  0.00  0.00    +0.000 OA
BRANCH  19  20
ATOM     20  C   UNL     1       2.307   5.391  19.450  0.00  0.00    +0.000 A 
ATOM     21  C   UNL     1       2.166   4.941  18.132  0.00  0.00    +0.000 A 
ATOM     22  C   UNL     1       1.517   3.730  17.871  0.00  0.00    +0.000 A 
ATOM     23  C   UNL     1       1.021   2.981  18.930  0.00  0.00    +0.000 A 
ATOM     24  F   UNL     1       0.394   1.819  18.692  0.00  0.00    +0.000 F 
ATOM     25  C   UNL     1       1.174   3.417  20.242  0.00  0.00    +0.000 A 
ATOM     26  C   UNL     1       1.832   4.609  20.512  0.00  0.00    +0.000 A 
BRANCH  25  27
ATOM     27  O   UNL     1       0.691   2.686  21.291  0.00  0.00    +0.000 OA
ATOM     28  H   UNL     1      -0.211   3.011  21.469  0.00  0.00    +0.000 HD
ENDBRANCH  25  27
ENDBRANCH  19  20
ENDBRANCH   5  19
TORSDOF 4
ENDMDL
MODEL 5
REMARK VINA RESULT:      -8.6      4.007      8.828
REMARK  Name = 
REMARK  4 active torsions:
REMARK  status: ('A' for Active; 'I' for Inactive)
REMARK    1  A    between atoms: C_7  and  C_8
REMARK    2  A    between atoms: C_12  and  O_13
REMARK    3  A    between atoms: O_13  and  C_14
REMARK    4  A    between atoms: C_19  and  O_20
REMARK                            x       y       z     vdW  Elec       q    Type
REMARK                         _______ _______ _______ _____ _____    ______ ____
ROOT
ATOM      1  C   UNL     1       0.843   9.562  19.902  0.00  0.00    +0.000 A 
ATOM      2  C   UNL     1       1.029  10.020  18.598  0.00  0.00    +0.000 A 
ATOM      3  C   UNL     1       1.799   9.264  17.714  0.00  0.00    +0.000 A 
ATOM      4  C   UNL     1       2.389   8.089  18.159  0.00  0.00    +0.000 A 
ATOM      5  C   UNL     1       2.199   7.729  19.481  0.00  0.00    +0.000 A 
ATOM      6  N   UNL     1       1.418   8.419  20.339  0.00  0.00    +0.000 NA
ENDROOT
BRANCH   1  13
ATOM      7  O   UNL     1      -3.974  13.970  22.908  0.00  0.00    +0.000 OA
ATOM      8  C   UNL     1      -3.125  13.142  22.636  0.00  0.00    +0.000 A 
ATOM      9  N   UNL     1      -2.594  12.171  23.496  0.00  0.00    +0.000 N 
ATOM     10  C   UNL     1      -1.660  11.418  22.797  0.00  0.00    +0.000 A 
ATOM     11  C   UNL     1      -0.906  10.348  23.205  0.00  0.00    +0.000 A 
ATOM     12  C   UNL     1      -0.075   9.768  22.239  0.00  0.00    +0.000 A 
ATOM     13  C   UNL     1       0.001  10.253  20.897  0.00  0.00    +0.000 A 
ATOM     14  C   UNL     1      -0.784  11.365  20.534  0.00  0.00    +0.000 A 
ATOM     15  C   UNL     1      -1.597  11.914  21.498  0.00  0.00    +0.000 A 
ATOM     16  N   UNL     1      -2.490  12.974  21.399  0.00  0.00    +0.000 N 
ATOM     17  H   UNL     1      -2.884  12.051  24.454  0.00  0.00    +0.000 HD
ATOM     18  H   UNL     1      -2.692  13.529  20.585  0.00  0.00    +0.000 HD
ENDBRANCH   1  13
BRANCH   5  19
ATOM     19  O   UNL     1       2.842   6.583  19.928  0.00  0.00    +0.000 OA
BRANCH  19  20
ATOM     20  C   UNL     1       2.304   5.365  19.563  0.00  0.00    +0.000 A 
ATOM     21  C   UNL     1       1.441   4.763  20.487  0.00  0.00    +0.000 A 
ATOM     22  C   UNL     1       0.825   3.546  20.179  0.00  0.00    +0.000 A 
ATOM     23  C   UNL     1       1.075   2.947  18.951  0.00  0.00    +0.000 A 
ATOM     24  F   UNL     1       0.492   1.778  18.645  0.00  0.00    +0.000 F 
ATOM     25  C   UNL     1       1.918   3.551  18.024  0.00  0.00    +0.000 A 
ATOM     26  C   UNL     1       2.521   4.768  18.314  0.00  0.00    +0.000 A 
BRANCH  25  27
ATOM     27  O   UNL     1       2.169   2.971  16.813  0.00  0.00    +0.000 OA
ATOM     28  H   UNL     1       1.630   3.449  16.154  0.00  0.00    +0.000 HD
ENDBRANCH  25  27
ENDBRANCH  19  20
ENDBRANCH   5  19
TORSDOF 4
ENDMDL
MODEL 6
REMARK VINA RESULT:      -8.6      2.802      3.995
REMARK  Name = 
REMARK  4 active torsions:
REMARK  status: ('A' for Active; 'I' for Inactive)
REMARK    1  A    between atoms: C_7  and  C_8
REMARK    2  A    between atoms: C_12  and  O_13
REMARK    3  A    between atoms: O_13  and  C_14
REMARK    4  A    between atoms: C_19  and  O_20
REMARK                            x       y       z     vdW  Elec       q    Type
REMARK                         _______ _______ _______ _____ _____    ______ ____
ROOT
ATOM      1  C   UNL     1       3.333   4.417  18.852  0.00  0.00    +0.000 A 
ATOM      2  C   UNL     1       2.503   3.302  18.965  0.00  0.00    +0.000 A 
ATOM      3  C   UNL     1       1.383   3.367  19.792  0.00  0.00    +0.000 A 
ATOM      4  C   UNL     1       1.132   4.531  20.509  0.00  0.00    +0.000 A 
ATOM      5  C   UNL     1       2.030   5.575  20.381  0.00  0.00    +0.000 A 
ATOM      6  N   UNL     1       3.093   5.550  19.549  0.00  0.00    +0.000 NA
ENDROOT
BRANCH   1  13
ATOM      7  O   UNL     1       7.452   4.873  12.979  0.00  0.00    +0.000 OA
ATOM      8  C   UNL     1       6.976   4.784  14.095  0.00  0.00    +0.000 A 
ATOM      9  N   UNL     1       7.671   4.848  15.310  0.00  0.00    +0.000 N 
ATOM     10  C   UNL     1       6.761   4.714  16.351  0.00  0.00    +0.000 A 
ATOM     11  C   UNL     1       6.963   4.741  17.707  0.00  0.00    +0.000 A 
ATOM     12  C   UNL     1       5.820   4.621  18.509  0.00  0.00    +0.000 A 
ATOM     13  C   UNL     1       4.508   4.472  17.962  0.00  0.00    +0.000 A 
ATOM     14  C   UNL     1       4.359   4.436  16.562  0.00  0.00    +0.000 A 
ATOM     15  C   UNL     1       5.494   4.562  15.796  0.00  0.00    +0.000 A 
ATOM     16  N   UNL     1       5.624   4.598  14.413  0.00  0.00    +0.000 N 
ATOM     17  H   UNL     1       8.665   4.993  15.382  0.00  0.00    +0.000 HD
ATOM     18  H   UNL     1       4.891   4.535  13.728  0.00  0.00    +0.000 HD
ENDBRANCH   1  13
BRANCH   5  19
ATOM     19  O   UNL     1       1.800   6.710  21.147  0.00  0.00    +0.000 OA
BRANCH  19  20
ATOM     20  C   UNL     1       1.416   7.859  20.486  0.00  0.00    +0.000 A 
ATOM     21  C   UNL     1       0.566   8.725  21.185  0.00  0.00    +0.000 A 
ATOM     22  C   UNL     1       0.159   9.929  20.601  0.00  0.00    +0.000 A 
ATOM     23  C   UNL     1       0.609  10.255  19.328  0.00  0.00    +0.000 A 
ATOM     24  F   UNL     1       0.224  11.406  18.757  0.00  0.00    +0.000 F 
ATOM     25  C   UNL     1       1.467   9.405  18.638  0.00  0.00    +0.000 A 
ATOM     26  C   UNL     1       1.890   8.216  19.216  0.00  0.00    +0.000 A 
BRANCH  25  27
ATOM     27  O   UNL     1       1.917   9.718  17.386  0.00  0.00    +0.000 OA
ATOM     28  H   UNL     1       2.178   8.879  16.963  0.00  0.00    +0.000 HD
ENDBRANCH  25  27
ENDBRANCH  19  20
ENDBRANCH   5  19
TORSDOF 4
ENDMDL
MODEL 7
REMARK VINA RESULT:      -8.5      3.753      8.278
REMARK  Name = 
REMARK  4 active torsions:
REMARK  status: ('A' for Active; 'I' for Inactive)
REMARK    1  A    between atoms: C_7  and  C_8
REMARK    2  A    between atoms: C_12  and  O_13
REMARK    3  A    between atoms: O_13  and  C_14
REMARK    4  A    between atoms: C_19  and  O_20
REMARK                            x       y       z     vdW  Elec       q    Type
REMARK                         _______ _______ _______ _____ _____    ______ ____
ROOT
ATOM      1  C   UNL     1       2.321   5.943  19.889  0.00  0.00    +0.000 A 
ATOM      2  C   UNL     1       1.480   5.046  20.546  0.00  0.00    +0.000 A 
ATOM      3  C   UNL     1       1.946   3.765  20.841  0.00  0.00    +0.000 A 
ATOM      4  C   UNL     1       3.226   3.400  20.446  0.00  0.00    +0.000 A 
ATOM      5  C   UNL     1       3.981   4.330  19.754  0.00  0.00    +0.000 A 
ATOM      6  N   UNL     1       3.567   5.590  19.503  0.00  0.00    +0.000 NA
ENDROOT
BRANCH   1  13
ATOM      7  O   UNL     1       0.187  12.769  20.610  0.00  0.00    +0.000 OA
ATOM      8  C   UNL     1       0.570  11.674  20.243  0.00  0.00    +0.000 A 
ATOM      9  N   UNL     1       1.053  11.337  18.971  0.00  0.00    +0.000 N 
ATOM     10  C   UNL     1       1.395   9.991  18.967  0.00  0.00    +0.000 A 
ATOM     11  C   UNL     1       1.932   9.221  17.967  0.00  0.00    +0.000 A 
ATOM     12  C   UNL     1       2.209   7.886  18.290  0.00  0.00    +0.000 A 
ATOM     13  C   UNL     1       1.948   7.337  19.584  0.00  0.00    +0.000 A 
ATOM     14  C   UNL     1       1.382   8.168  20.570  0.00  0.00    +0.000 A 
ATOM     15  C   UNL     1       1.124   9.476  20.231  0.00  0.00    +0.000 A 
ATOM     16  N   UNL     1       0.613  10.505  21.013  0.00  0.00    +0.000 N 
ATOM     17  H   UNL     1       1.148  11.995  18.214  0.00  0.00    +0.000 HD
ATOM     18  H   UNL     1       0.339  10.460  21.979  0.00  0.00    +0.000 HD
ENDBRANCH   1  13
BRANCH   5  19
ATOM     19  O   UNL     1       5.236   3.932  19.315  0.00  0.00    +0.000 OA
BRANCH  19  20
ATOM     20  C   UNL     1       5.624   4.325  18.051  0.00  0.00    +0.000 A 
ATOM     21  C   UNL     1       4.974   3.703  16.977  0.00  0.00    +0.000 A 
ATOM     22  C   UNL     1       5.282   4.071  15.664  0.00  0.00    +0.000 A 
ATOM     23  C   UNL     1       6.233   5.059  15.438  0.00  0.00    +0.000 A 
ATOM     24  F   UNL     1       6.538   5.418  14.182  0.00  0.00    +0.000 F 
ATOM     25  C   UNL     1       6.867   5.691  16.502  0.00  0.00    +0.000 A 
ATOM     26  C   UNL     1       6.556   5.344  17.809  0.00  0.00    +0.000 A 
BRANCH  25  27
ATOM     27  O   UNL     1       7.802   6.665  16.290  0.00  0.00    +0.000 OA
ATOM     28  H   UNL     1       7.430   7.494  16.644  0.00  0.00    +0.000 HD
ENDBRANCH  25  27
ENDBRANCH  19  20
ENDBRANCH   5  19
TORSDOF 4
ENDMDL
MODEL 8
REMARK VINA RESULT:      -8.5      3.738      7.963
REMARK  Name = 
REMARK  4 active torsions:
REMARK  status: ('A' for Active; 'I' for Inactive)
REMARK    1  A    between atoms: C_7  and  C_8
REMARK    2  A    between atoms: C_12  and  O_13
REMARK    3  A    between atoms: O_13  and  C_14
REMARK    4  A    between atoms: C_19  and  O_20
REMARK                            x       y       z     vdW  Elec       q    Type
REMARK                         _______ _______ _______ _____ _____    ______ ____
ROOT
ATOM      1  C   UNL     1       3.571   6.818  17.591  0.00  0.00    +0.000 A 
ATOM      2  C   UNL     1       4.478   7.212  16.608  0.00  0.00    +0.000 A 
ATOM      3  C   UNL     1       5.256   6.246  15.971  0.00  0.00    +0.000 A 
ATOM      4  C   UNL     1       5.133   4.916  16.350  0.00  0.00    +0.000 A 
ATOM      5  C   UNL     1       4.247   4.611  17.367  0.00  0.00    +0.000 A 
ATOM      6  N   UNL     1       3.450   5.524  17.963  0.00  0.00    +0.000 NA
ENDROOT
BRANCH   1  13
ATOM      7  O   UNL     1      -0.341  10.045  22.686  0.00  0.00    +0.000 OA
ATOM      8  C   UNL     1       0.230   9.682  21.674  0.00  0.00    +0.000 A 
ATOM      9  N   UNL     1       0.299  10.372  20.457  0.00  0.00    +0.000 N 
ATOM     10  C   UNL     1       1.052   9.622  19.562  0.00  0.00    +0.000 A 
ATOM     11  C   UNL     1       1.415   9.897  18.268  0.00  0.00    +0.000 A 
ATOM     12  C   UNL     1       2.227   8.948  17.635  0.00  0.00    +0.000 A 
ATOM     13  C   UNL     1       2.661   7.750  18.283  0.00  0.00    +0.000 A 
ATOM     14  C   UNL     1       2.248   7.511  19.608  0.00  0.00    +0.000 A 
ATOM     15  C   UNL     1       1.455   8.459  20.211  0.00  0.00    +0.000 A 
ATOM     16  N   UNL     1       0.948   8.491  21.504  0.00  0.00    +0.000 N 
ATOM     17  H   UNL     1      -0.120  11.274  20.298  0.00  0.00    +0.000 HD
ATOM     18  H   UNL     1       1.078   7.807  22.229  0.00  0.00    +0.000 HD
ENDBRANCH   1  13
BRANCH   5  19
ATOM     19  O   UNL     1       4.177   3.287  17.776  0.00  0.00    +0.000 OA
BRANCH  19  20
ATOM     20  C   UNL     1       3.333   2.986  18.825  0.00  0.00    +0.000 A 
ATOM     21  C   UNL     1       3.931   2.830  20.082  0.00  0.00    +0.000 A 
ATOM     22  C   UNL     1       3.143   2.561  21.205  0.00  0.00    +0.000 A 
ATOM     23  C   UNL     1       1.765   2.456  21.061  0.00  0.00    +0.000 A 
ATOM     24  F   UNL     1       0.999   2.196  22.130  0.00  0.00    +0.000 F 
ATOM     25  C   UNL     1       1.166   2.628  19.818  0.00  0.00    +0.000 A 
ATOM     26  C   UNL     1       1.939   2.912  18.700  0.00  0.00    +0.000 A 
BRANCH  25  27
ATOM     27  O   UNL     1      -0.189   2.529  19.666  0.00  0.00    +0.000 OA
ATOM     28  H   UNL     1      -0.416   3.008  18.847  0.00  0.00    +0.000 HD
ENDBRANCH  25  27
ENDBRANCH  19  20
ENDBRANCH   5  19
TORSDOF 4
ENDMDL
MODEL 9
REMARK VINA RESULT:      -8.5      0.930      1.338
REMARK  Name = 
REMARK  4 active torsions:
REMARK  status: ('A' for Active; 'I' for Inactive)
REMARK    1  A    between atoms: C_7  and  C_8
REMARK    2  A    between atoms: C_12  and  O_13
REMARK    3  A    between atoms: O_13  and  C_14
REMARK    4  A    between atoms: C_19  and  O_20
REMARK                            x       y       z     vdW  Elec       q    Type
REMARK                         _______ _______ _______ _____ _____    ______ ____
ROOT
ATOM      1  C   UNL     1       2.305   7.399  19.141  0.00  0.00    +0.000 A 
ATOM      2  C   UNL     1       1.963   7.031  20.443  0.00  0.00    +0.000 A 
ATOM      3  C   UNL     1       1.145   7.872  21.195  0.00  0.00    +0.000 A 
ATOM      4  C   UNL     1       0.712   9.072  20.645  0.00  0.00    +0.000 A 
ATOM      5  C   UNL     1       1.135   9.388  19.367  0.00  0.00    +0.000 A 
ATOM      6  N   UNL     1       1.887   8.566  18.604  0.00  0.00    +0.000 NA
ENDROOT
BRANCH   1  13
ATOM      7  O   UNL     1       7.462   5.160  14.663  0.00  0.00    +0.000 OA
ATOM      8  C   UNL     1       6.501   5.303  15.395  0.00  0.00    +0.000 A 
ATOM      9  N   UNL     1       5.635   4.299  15.848  0.00  0.00    +0.000 N 
ATOM     10  C   UNL     1       4.676   4.875  16.671  0.00  0.00    +0.000 A 
ATOM     11  C   UNL     1       3.644   4.295  17.363  0.00  0.00    +0.000 A 
ATOM     12  C   UNL     1       2.865   5.151  18.153  0.00  0.00    +0.000 A 
ATOM     13  C   UNL     1       3.115   6.555  18.242  0.00  0.00    +0.000 A 
ATOM     14  C   UNL     1       4.179   7.102  17.499  0.00  0.00    +0.000 A 
ATOM     15  C   UNL     1       4.933   6.241  16.736  0.00  0.00    +0.000 A 
ATOM     16  N   UNL     1       6.048   6.507  15.950  0.00  0.00    +0.000 N 
ATOM     17  H   UNL     1       5.735   3.324  15.615  0.00  0.00    +0.000 HD
ATOM     18  H   UNL     1       6.496   7.395  15.805  0.00  0.00    +0.000 HD
ENDBRANCH   1  13
BRANCH   5  19
ATOM     19  O   UNL     1       0.744  10.616  18.852  0.00  0.00    +0.000 OA
BRANCH  19  20
ATOM     20  C   UNL     1      -0.592  10.784  18.548  0.00  0.00    +0.000 A 
ATOM     21  C   UNL     1      -1.285  11.745  19.294  0.00  0.00    +0.000 A 
ATOM     22  C   UNL     1      -2.633  12.003  19.024  0.00  0.00    +0.000 A 
ATOM     23  C   UNL     1      -3.271  11.301  18.009  0.00  0.00    +0.000 A 
ATOM     24  F   UNL     1      -4.564  11.539  17.742  0.00  0.00    +0.000 F 
ATOM     25  C   UNL     1      -2.581  10.359  17.254  0.00  0.00    +0.000 A 
ATOM     26  C   UNL     1      -1.238  10.108  17.504  0.00  0.00    +0.000 A 
BRANCH  25  27
ATOM     27  O   UNL     1      -3.199   9.665  16.252  0.00  0.00    +0.000 OA
ATOM     28  H   UNL     1      -4.055  10.104  16.092  0.00  0.00    +0.000 HD
ENDBRANCH  25  27
ENDBRANCH  19  20
ENDBRANCH   5  19
TORSDOF 4
ENDMDL
