MODEL 1
REMARK VINA RESULT:      -6.1      0.000      0.000
REMARK  Name = 
REMARK  4 active torsions:
REMARK  status: ('A' for Active; 'I' for Inactive)
REMARK    1  A    between atoms: C_1  and  N_2
REMARK    2  A    between atoms: C_5  and  O_6
REMARK    3  A    between atoms: O_6  and  C_7
REMARK    4  A    between atoms: C_7  and  C_9
REMARK                            x       y       z     vdW  Elec       q    Type
REMARK                         _______ _______ _______ _____ _____    ______ ____
ROOT
ATOM      1  O   UNL     1       5.710   5.490  16.723  0.00  0.00    +0.000 OA
ENDROOT
BRANCH   1   6
ATOM      2  C   UNL     1       1.206   3.567  19.417  0.00  0.00    +0.000 C 
ATOM      3  N   UNL     1       2.213   4.147  18.519  0.00  0.00    +0.000 NA
ATOM      4  C   UNL     1       2.904   5.277  19.176  0.00  0.00    +0.000 C 
ATOM      5  C   UNL     1       3.883   5.939  18.196  0.00  0.00    +0.000 C 
ATOM      6  C   UNL     1       4.904   4.910  17.692  0.00  0.00    +0.000 C 
ATOM      7  C   UNL     1       4.173   3.707  17.086  0.00  0.00    +0.000 C 
ATOM      8  C   UNL     1       3.187   3.117  18.102  0.00  0.00    +0.000 C 
ENDBRANCH   1   6
BRANCH   1   9
ATOM      9  C   UNL     1       6.838   4.941  16.195  0.00  0.00    +0.000 C 
ATOM     10  O   UNL     1       7.749   4.569  16.916  0.00  0.00    +0.000 OA
BRANCH   9  11
ATOM     11  C   UNL     1       6.961   4.765  14.737  0.00  0.00    +0.000 A 
ATOM     12  C   UNL     1       6.221   3.908  13.944  0.00  0.00    +0.000 A 
ATOM     13  C   UNL     1       6.694   4.084  12.661  0.00  0.00    +0.000 A 
ATOM     14  C   UNL     1       7.689   5.035  12.746  0.00  0.00    +0.000 A 
ATOM     15  O   UNL     1       7.825   5.424  13.995  0.00  0.00    +0.000 OA
ENDBRANCH   9  11
ENDBRANCH   1   9
TORSDOF 3
ENDMDL
MODEL 2
REMARK VINA RESULT:      -6.1      1.366      1.550
REMARK  Name = 
REMARK  4 active torsions:
REMARK  status: ('A' for Active; 'I' for Inactive)
REMARK    1  A    between atoms: C_1  and  N_2
REMARK    2  A    between atoms: C_5  and  O_6
REMARK    3  A    between atoms: O_6  and  C_7
REMARK    4  A    between atoms: C_7  and  C_9
REMARK                            x       y       z     vdW  Elec       q    Type
REMARK                         _______ _______ _______ _____ _____    ______ ____
ROOT
ATOM      1  O   UNL     1       6.148   3.892  18.264  0.00  0.00    +0.000 OA
ENDROOT
BRANCH   1   6
ATOM      2  C   UNL     1       0.951   4.122  20.310  0.00  0.00    +0.000 C 
ATOM      3  N   UNL     1       2.206   3.917  19.573  0.00  0.00    +0.000 NA
ATOM      4  C   UNL     1       2.767   5.213  19.135  0.00  0.00    +0.000 C 
ATOM      5  C   UNL     1       4.023   4.984  18.282  0.00  0.00    +0.000 C 
ATOM      6  C   UNL     1       5.067   4.192  19.081  0.00  0.00    +0.000 C 
ATOM      7  C   UNL     1       4.447   2.889  19.598  0.00  0.00    +0.000 C 
ATOM      8  C   UNL     1       3.180   3.187  20.409  0.00  0.00    +0.000 C 
ENDBRANCH   1   6
BRANCH   1   9
ATOM      9  C   UNL     1       6.828   4.780  17.490  0.00  0.00    +0.000 C 
ATOM     10  O   UNL     1       7.492   5.671  17.993  0.00  0.00    +0.000 OA
BRANCH   9  11
ATOM     11  C   UNL     1       6.788   4.660  16.021  0.00  0.00    +0.000 A 
ATOM     12  C   UNL     1       6.003   3.792  15.286  0.00  0.00    +0.000 A 
ATOM     13  C   UNL     1       6.313   4.036  13.965  0.00  0.00    +0.000 A 
ATOM     14  C   UNL     1       7.265   5.034  13.971  0.00  0.00    +0.000 A 
ATOM     15  O   UNL     1       7.527   5.387  15.211  0.00  0.00    +0.000 OA
ENDBRANCH   9  11
ENDBRANCH   1   9
TORSDOF 3
ENDMDL
MODEL 3
REMARK VINA RESULT:      -6.1      1.575      1.892
REMARK  Name = 
REMARK  4 active torsions:
REMARK  status: ('A' for Active; 'I' for Inactive)
REMARK    1  A    between atoms: C_1  and  N_2
REMARK    2  A    between atoms: C_5  and  O_6
REMARK    3  A    between atoms: O_6  and  C_7
REMARK    4  A    between atoms: C_7  and  C_9
REMARK                            x       y       z     vdW  Elec       q    Type
REMARK                         _______ _______ _______ _____ _____    ______ ____
ROOT
ATOM      1  O   UNL     1       4.811   5.737  18.198  0.00  0.00    +0.000 OA
ENDROOT
BRANCH   1   6
ATOM      2  C   UNL     1       1.500   2.694  21.518  0.00  0.00    +0.000 C 
ATOM      3  N   UNL     1       2.186   3.440  20.455  0.00  0.00    +0.000 NA
ATOM      4  C   UNL     1       2.287   4.872  20.810  0.00  0.00    +0.000 C 
ATOM      5  C   UNL     1       2.916   5.660  19.652  0.00  0.00    +0.000 C 
ATOM      6  C   UNL     1       4.302   5.094  19.317  0.00  0.00    +0.000 C 
ATOM      7  C   UNL     1       4.195   3.592  19.031  0.00  0.00    +0.000 C 
ATOM      8  C   UNL     1       3.528   2.872  20.210  0.00  0.00    +0.000 C 
ENDBRANCH   1   6
BRANCH   1   9
ATOM      9  C   UNL     1       6.070   5.594  17.704  0.00  0.00    +0.000 C 
ATOM     10  O   UNL     1       7.045   5.835  18.396  0.00  0.00    +0.000 OA
BRANCH   9  11
ATOM     11  C   UNL     1       6.272   5.118  16.323  0.00  0.00    +0.000 A 
ATOM     12  C   UNL     1       5.507   4.181  15.654  0.00  0.00    +0.000 A 
ATOM     13  C   UNL     1       6.078   4.056  14.405  0.00  0.00    +0.000 A 
ATOM     14  C   UNL     1       7.153   4.921  14.386  0.00  0.00    +0.000 A 
ATOM     15  O   UNL     1       7.242   5.541  15.542  0.00  0.00    +0.000 OA
ENDBRANCH   9  11
ENDBRANCH   1   9
TORSDOF 3
ENDMDL
MODEL 4
REMARK VINA RESULT:      -6.1      2.253      3.211
REMARK  Name = 
REMARK  4 active torsions:
REMARK  status: ('A' for Active; 'I' for Inactive)
REMARK    1  A    between atoms: C_1  and  N_2
REMARK    2  A    between atoms: C_5  and  O_6
REMARK    3  A    between atoms: O_6  and  C_7
REMARK    4  A    between atoms: C_7  and  C_9
REMARK                            x       y       z     vdW  Elec       q    Type
REMARK                         _______ _______ _______ _____ _____    ______ ____
ROOT
ATOM      1  O   UNL     1       4.629   4.990  16.821  0.00  0.00    +0.000 OA
ENDROOT
BRANCH   1   6
ATOM      2  C   UNL     1       1.454   2.689  20.806  0.00  0.00    +0.000 C 
ATOM      3  N   UNL     1       2.287   3.511  19.918  0.00  0.00    +0.000 NA
ATOM      4  C   UNL     1       3.622   2.899  19.746  0.00  0.00    +0.000 C 
ATOM      5  C   UNL     1       4.518   3.814  18.899  0.00  0.00    +0.000 C 
ATOM      6  C   UNL     1       3.869   4.072  17.532  0.00  0.00    +0.000 C 
ATOM      7  C   UNL     1       2.454   4.631  17.726  0.00  0.00    +0.000 C 
ATOM      8  C   UNL     1       1.626   3.689  18.609  0.00  0.00    +0.000 C 
ENDBRANCH   1   6
BRANCH   1   9
ATOM      9  C   UNL     1       5.984   4.968  16.694  0.00  0.00    +0.000 C 
ATOM     10  O   UNL     1       6.542   4.063  16.098  0.00  0.00    +0.000 OA
BRANCH   9  11
ATOM     11  C   UNL     1       6.796   6.060  17.261  0.00  0.00    +0.000 A 
ATOM     12  C   UNL     1       7.582   5.999  18.396  0.00  0.00    +0.000 A 
ATOM     13  C   UNL     1       8.137   7.254  18.534  0.00  0.00    +0.000 A 
ATOM     14  C   UNL     1       7.658   8.004  17.480  0.00  0.00    +0.000 A 
ATOM     15  O   UNL     1       6.862   7.265  16.738  0.00  0.00    +0.000 OA
ENDBRANCH   9  11
ENDBRANCH   1   9
TORSDOF 3
ENDMDL
MODEL 5
REMARK VINA RESULT:      -6.1      0.864      1.187
REMARK  Name = 
REMARK  4 active torsions:
REMARK  status: ('A' for Active; 'I' for Inactive)
REMARK    1  A    between atoms: C_1  and  N_2
REMARK    2  A    between atoms: C_5  and  O_6
REMARK    3  A    between atoms: O_6  and  C_7
REMARK    4  A    between atoms: C_7  and  C_9
REMARK                            x       y       z     vdW  Elec       q    Type
REMARK                         _______ _______ _______ _____ _____    ______ ____
ROOT
ATOM      1  O   UNL     1       5.685   5.343  17.112  0.00  0.00    +0.000 OA
ENDROOT
BRANCH   1   6
ATOM      2  C   UNL     1       1.449   3.655  20.346  0.00  0.00    +0.000 C 
ATOM      3  N   UNL     1       2.587   4.299  19.675  0.00  0.00    +0.000 NA
ATOM      4  C   UNL     1       3.749   3.386  19.634  0.00  0.00    +0.000 C 
ATOM      5  C   UNL     1       4.961   4.101  19.021  0.00  0.00    +0.000 C 
ATOM      6  C   UNL     1       4.624   4.600  17.609  0.00  0.00    +0.000 C 
ATOM      7  C   UNL     1       3.369   5.480  17.656  0.00  0.00    +0.000 C 
ATOM      8  C   UNL     1       2.209   4.719  18.310  0.00  0.00    +0.000 C 
ENDBRANCH   1   6
BRANCH   1   9
ATOM      9  C   UNL     1       6.801   4.835  16.523  0.00  0.00    +0.000 C 
ATOM     10  O   UNL     1       7.767   4.505  17.191  0.00  0.00    +0.000 OA
BRANCH   9  11
ATOM     11  C   UNL     1       6.848   4.655  15.060  0.00  0.00    +0.000 A 
ATOM     12  C   UNL     1       6.106   3.757  14.317  0.00  0.00    +0.000 A 
ATOM     13  C   UNL     1       6.494   3.947  13.007  0.00  0.00    +0.000 A 
ATOM     14  C   UNL     1       7.445   4.946  13.029  0.00  0.00    +0.000 A 
ATOM     15  O   UNL     1       7.634   5.349  14.266  0.00  0.00    +0.000 OA
ENDBRANCH   9  11
ENDBRANCH   1   9
TORSDOF 3
ENDMDL
MODEL 6
REMARK VINA RESULT:      -6.0      3.437      6.391
REMARK  Name = 
REMARK  4 active torsions:
REMARK  status: ('A' for Active; 'I' for Inactive)
REMARK    1  A    between atoms: C_1  and  N_2
REMARK    2  A    between atoms: C_5  and  O_6
REMARK    3  A    between atoms: O_6  and  C_7
REMARK    4  A    between atoms: C_7  and  C_9
REMARK                            x       y       z     vdW  Elec       q    Type
REMARK                         _______ _______ _______ _____ _____    ______ ____
ROOT
ATOM      1  O   UNL     1       3.489   3.974  17.581  0.00  0.00    +0.000 OA
ENDROOT
BRANCH   1   6
ATOM      2  C   UNL     1       7.902   7.383  17.974  0.00  0.00    +0.000 C 
ATOM      3  N   UNL     1       6.896   6.348  17.697  0.00  0.00    +0.000 NA
ATOM      4  C   UNL     1       6.562   5.607  18.933  0.00  0.00    +0.000 C 
ATOM      5  C   UNL     1       5.586   4.465  18.616  0.00  0.00    +0.000 C 
ATOM      6  C   UNL     1       4.312   5.023  17.966  0.00  0.00    +0.000 C 
ATOM      7  C   UNL     1       4.680   5.856  16.733  0.00  0.00    +0.000 C 
ATOM      8  C   UNL     1       5.682   6.953  17.112  0.00  0.00    +0.000 C 
ENDBRANCH   1   6
BRANCH   1   9
ATOM      9  C   UNL     1       2.253   3.710  18.084  0.00  0.00    +0.000 C 
ATOM     10  O   UNL     1       1.261   3.782  17.378  0.00  0.00    +0.000 OA
BRANCH   9  11
ATOM     11  C   UNL     1       2.101   3.306  19.494  0.00  0.00    +0.000 A 
ATOM     12  C   UNL     1       0.967   3.444  20.273  0.00  0.00    +0.000 A 
ATOM     13  C   UNL     1       1.302   2.939  21.511  0.00  0.00    +0.000 A 
ATOM     14  C   UNL     1       2.614   2.525  21.416  0.00  0.00    +0.000 A 
ATOM     15  O   UNL     1       3.063   2.755  20.201  0.00  0.00    +0.000 OA
ENDBRANCH   9  11
ENDBRANCH   1   9
TORSDOF 3
ENDMDL
MODEL 7
REMARK VINA RESULT:      -6.0      2.155      3.203
REMARK  Name = 
REMARK  4 active torsions:
REMARK  status: ('A' for Active; 'I' for Inactive)
REMARK    1  A    between atoms: C_1  and  N_2
REMARK    2  A    between atoms: C_5  and  O_6
REMARK    3  A    between atoms: O_6  and  C_7
REMARK    4  A    between atoms: C_7  and  C_9
REMARK                            x       y       z     vdW  Elec       q    Type
REMARK                         _______ _______ _______ _____ _____    ______ ____
ROOT
ATOM      1  O   UNL     1       4.630   3.619  16.679  0.00  0.00    +0.000 OA
ENDROOT
BRANCH   1   6
ATOM      2  C   UNL     1       1.245   3.119  21.099  0.00  0.00    +0.000 C 
ATOM      3  N   UNL     1       2.011   3.027  19.848  0.00  0.00    +0.000 NA
ATOM      4  C   UNL     1       1.777   4.222  19.009  0.00  0.00    +0.000 C 
ATOM      5  C   UNL     1       2.501   4.073  17.663  0.00  0.00    +0.000 C 
ATOM      6  C   UNL     1       4.005   3.867  17.892  0.00  0.00    +0.000 C 
ATOM      7  C   UNL     1       4.229   2.675  18.829  0.00  0.00    +0.000 C 
ATOM      8  C   UNL     1       3.451   2.872  20.136  0.00  0.00    +0.000 C 
ENDBRANCH   1   6
BRANCH   1   9
ATOM      9  C   UNL     1       5.849   4.093  16.303  0.00  0.00    +0.000 C 
ATOM     10  O   UNL     1       6.316   3.823  15.209  0.00  0.00    +0.000 OA
BRANCH   9  11
ATOM     11  C   UNL     1       6.615   4.965  17.213  0.00  0.00    +0.000 A 
ATOM     12  C   UNL     1       6.792   6.330  17.090  0.00  0.00    +0.000 A 
ATOM     13  C   UNL     1       7.580   6.702  18.159  0.00  0.00    +0.000 A 
ATOM     14  C   UNL     1       7.835   5.546  18.868  0.00  0.00    +0.000 A 
ATOM     15  O   UNL     1       7.245   4.527  18.281  0.00  0.00    +0.000 OA
ENDBRANCH   9  11
ENDBRANCH   1   9
TORSDOF 3
ENDMDL
MODEL 8
REMARK VINA RESULT:      -6.0      1.898      2.846
REMARK  Name = 
REMARK  4 active torsions:
REMARK  status: ('A' for Active; 'I' for Inactive)
REMARK    1  A    between atoms: C_1  and  N_2
REMARK    2  A    between atoms: C_5  and  O_6
REMARK    3  A    between atoms: O_6  and  C_7
REMARK    4  A    between atoms: C_7  and  C_9
REMARK                            x       y       z     vdW  Elec       q    Type
REMARK                         _______ _______ _______ _____ _____    ______ ____
ROOT
ATOM      1  O   UNL     1       4.717   4.032  16.323  0.00  0.00    +0.000 OA
ENDROOT
BRANCH   1   6
ATOM      2  C   UNL     1       1.019   3.302  20.452  0.00  0.00    +0.000 C 
ATOM      3  N   UNL     1       1.781   3.445  19.204  0.00  0.00    +0.000 NA
ATOM      4  C   UNL     1       2.330   4.813  19.086  0.00  0.00    +0.000 C 
ATOM      5  C   UNL     1       3.039   4.983  17.734  0.00  0.00    +0.000 C 
ATOM      6  C   UNL     1       4.160   3.945  17.591  0.00  0.00    +0.000 C 
ATOM      7  C   UNL     1       3.592   2.536  17.797  0.00  0.00    +0.000 C 
ATOM      8  C   UNL     1       2.868   2.446  19.146  0.00  0.00    +0.000 C 
ENDBRANCH   1   6
BRANCH   1   9
ATOM      9  C   UNL     1       6.000   4.386  16.043  0.00  0.00    +0.000 C 
ATOM     10  O   UNL     1       6.599   3.880  15.109  0.00  0.00    +0.000 OA
BRANCH   9  11
ATOM     11  C   UNL     1       6.679   5.409  16.859  0.00  0.00    +0.000 A 
ATOM     12  C   UNL     1       7.361   5.200  18.043  0.00  0.00    +0.000 A 
ATOM     13  C   UNL     1       7.812   6.442  18.438  0.00  0.00    +0.000 A 
ATOM     14  C   UNL     1       7.380   7.331  17.476  0.00  0.00    +0.000 A 
ATOM     15  O   UNL     1       6.709   6.687  16.547  0.00  0.00    +0.000 OA
ENDBRANCH   9  11
ENDBRANCH   1   9
TORSDOF 3
ENDMDL
MODEL 9
REMARK VINA RESULT:      -6.0      2.726      6.074
REMARK  Name = 
REMARK  4 active torsions:
REMARK  status: ('A' for Active; 'I' for Inactive)
REMARK    1  A    between atoms: C_1  and  N_2
REMARK    2  A    between atoms: C_5  and  O_6
REMARK    3  A    between atoms: O_6  and  C_7
REMARK    4  A    between atoms: C_7  and  C_9
REMARK                            x       y       z     vdW  Elec       q    Type
REMARK                         _______ _______ _______ _____ _____    ______ ____
ROOT
ATOM      1  O   UNL     1       5.384   3.949  19.515  0.00  0.00    +0.000 OA
ENDROOT
BRANCH   1   6
ATOM      2  C   UNL     1       6.790   4.764  14.166  0.00  0.00    +0.000 C 
ATOM      3  N   UNL     1       6.551   4.315  15.545  0.00  0.00    +0.000 NA
ATOM      4  C   UNL     1       7.179   5.244  16.508  0.00  0.00    +0.000 C 
ATOM      5  C   UNL     1       7.009   4.715  17.939  0.00  0.00    +0.000 C 
ATOM      6  C   UNL     1       5.520   4.535  18.264  0.00  0.00    +0.000 C 
ATOM      7  C   UNL     1       4.864   3.635  17.211  0.00  0.00    +0.000 C 
ATOM      8  C   UNL     1       5.101   4.200  15.805  0.00  0.00    +0.000 C 
ENDBRANCH   1   6
BRANCH   1   9
ATOM      9  C   UNL     1       4.483   2.984  19.845  0.00  0.00    +0.000 C 
ATOM     10  O   UNL     1       4.838   1.830  20.020  0.00  0.00    +0.000 OA
BRANCH   9  11
ATOM     11  C   UNL     1       3.061   3.330  20.018  0.00  0.00    +0.000 A 
ATOM     12  C   UNL     1       1.974   2.579  19.611  0.00  0.00    +0.000 A 
ATOM     13  C   UNL     1       0.860   3.304  19.977  0.00  0.00    +0.000 A 
ATOM     14  C   UNL     1       1.331   4.450  20.584  0.00  0.00    +0.000 A 
ATOM     15  O   UNL     1       2.646   4.437  20.596  0.00  0.00    +0.000 OA
ENDBRANCH   9  11
ENDBRANCH   1   9
TORSDOF 3
ENDMDL
