MODEL 1
REMARK VINA RESULT:      -7.5      0.000      0.000
REMARK  Name = 
REMARK  3 active torsions:
REMARK  status: ('A' for Active; 'I' for Inactive)
REMARK    1  A    between atoms: C_8  and  C_9
REMARK    2  A    between atoms: C_12  and  O_13
REMARK    3  A    between atoms: C_15  and  O_16
REMARK                            x       y       z     vdW  Elec       q    Type
REMARK                         _______ _______ _______ _____ _____    ______ ____
ROOT
ATOM      1  O   UNL     1       6.660   3.952  14.502  0.00  0.00    +0.000 OA
ATOM      2  C   UNL     1       6.565   4.665  15.481  0.00  0.00    +0.000 C 
ATOM      3  N   UNL     1       7.344   5.741  15.819  0.00  0.00    +0.000 N 
ATOM      4  C   UNL     1       6.925   6.308  16.993  0.00  0.00    +0.000 C 
ATOM      5  S   UNL     1       7.603   7.618  17.730  0.00  0.00    +0.000 S 
ATOM      6  N   UNL     1       5.833   5.597  17.454  0.00  0.00    +0.000 N 
ATOM      7  C   UNL     1       5.557   4.577  16.585  0.00  0.00    +0.000 C 
ATOM      8  C   UNL     1       4.589   3.661  16.664  0.00  0.00    +0.000 C 
ATOM      9  H   UNL     1       8.122   6.059  15.266  0.00  0.00    +0.000 HD
ATOM     10  H   UNL     1       5.335   5.779  18.315  0.00  0.00    +0.000 HD
ENDROOT
BRANCH   8  11
ATOM     11  C   UNL     1       3.616   3.588  17.756  0.00  0.00    +0.000 A 
ATOM     12  C   UNL     1       2.271   3.887  17.500  0.00  0.00    +0.000 A 
ATOM     13  C   UNL     1       1.321   3.805  18.523  0.00  0.00    +0.000 A 
ATOM     14  C   UNL     1       1.722   3.424  19.800  0.00  0.00    +0.000 A 
ATOM     15  C   UNL     1       3.053   3.128  20.075  0.00  0.00    +0.000 A 
ATOM     16  C   UNL     1       3.995   3.214  19.052  0.00  0.00    +0.000 A 
BRANCH  14  17
ATOM     17  O   UNL     1       0.828   3.324  20.824  0.00  0.00    +0.000 OA
ATOM     18  H   UNL     1       1.251   3.631  21.643  0.00  0.00    +0.000 HD
ENDBRANCH  14  17
BRANCH  16  19
ATOM     19  O   UNL     1       5.309   2.928  19.306  0.00  0.00    +0.000 OA
ATOM     20  H   UNL     1       5.719   3.694  19.742  0.00  0.00    +0.000 HD
ENDBRANCH  16  19
ENDBRANCH   8  11
TORSDOF 3
ENDMDL
MODEL 2
REMARK VINA RESULT:      -7.4      2.105      2.258
REMARK  Name = 
REMARK  3 active torsions:
REMARK  status: ('A' for Active; 'I' for Inactive)
REMARK    1  A    between atoms: C_8  and  C_9
REMARK    2  A    between atoms: C_12  and  O_13
REMARK    3  A    between atoms: C_15  and  O_16
REMARK                            x       y       z     vdW  Elec       q    Type
REMARK                         _______ _______ _______ _____ _____    ______ ____
ROOT
ATOM      1  O   UNL     1       7.584   6.533  17.488  0.00  0.00    +0.000 OA
ATOM      2  C   UNL     1       7.008   5.798  16.711  0.00  0.00    +0.000 C 
ATOM      3  N   UNL     1       7.368   5.479  15.427  0.00  0.00    +0.000 N 
ATOM      4  C   UNL     1       6.477   4.604  14.865  0.00  0.00    +0.000 C 
ATOM      5  S   UNL     1       6.562   3.986  13.339  0.00  0.00    +0.000 S 
ATOM      6  N   UNL     1       5.495   4.324  15.797  0.00  0.00    +0.000 N 
ATOM      7  C   UNL     1       5.750   5.020  16.947  0.00  0.00    +0.000 C 
ATOM      8  C   UNL     1       5.046   5.031  18.081  0.00  0.00    +0.000 C 
ATOM      9  H   UNL     1       8.184   5.851  14.971  0.00  0.00    +0.000 HD
ATOM     10  H   UNL     1       4.694   3.726  15.643  0.00  0.00    +0.000 HD
ENDROOT
BRANCH   8  11
ATOM     11  C   UNL     1       3.814   4.267  18.290  0.00  0.00    +0.000 A 
ATOM     12  C   UNL     1       2.600   4.774  17.808  0.00  0.00    +0.000 A 
ATOM     13  C   UNL     1       1.414   4.054  17.980  0.00  0.00    +0.000 A 
ATOM     14  C   UNL     1       1.449   2.825  18.635  0.00  0.00    +0.000 A 
ATOM     15  C   UNL     1       2.643   2.308  19.125  0.00  0.00    +0.000 A 
ATOM     16  C   UNL     1       3.821   3.033  18.952  0.00  0.00    +0.000 A 
BRANCH  14  17
ATOM     17  O   UNL     1       0.318   2.087  18.817  0.00  0.00    +0.000 OA
ATOM     18  H   UNL     1      -0.333   2.621  19.302  0.00  0.00    +0.000 HD
ENDBRANCH  14  17
BRANCH  16  19
ATOM     19  O   UNL     1       5.005   2.539  19.430  0.00  0.00    +0.000 OA
ATOM     20  H   UNL     1       4.906   1.585  19.589  0.00  0.00    +0.000 HD
ENDBRANCH  16  19
ENDBRANCH   8  11
TORSDOF 3
ENDMDL
MODEL 3
REMARK VINA RESULT:      -7.4      2.242      2.436
REMARK  Name = 
REMARK  3 active torsions:
REMARK  status: ('A' for Active; 'I' for Inactive)
REMARK    1  A    between atoms: C_8  and  C_9
REMARK    2  A    between atoms: C_12  and  O_13
REMARK    3  A    between atoms: C_15  and  O_16
REMARK                            x       y       z     vdW  Elec       q    Type
REMARK                         _______ _______ _______ _____ _____    ______ ____
ROOT
ATOM      1  O   UNL     1       8.096   5.033  18.755  0.00  0.00    +0.000 OA
ATOM      2  C   UNL     1       7.312   4.720  17.881  0.00  0.00    +0.000 C 
ATOM      3  N   UNL     1       7.535   4.660  16.530  0.00  0.00    +0.000 N 
ATOM      4  C   UNL     1       6.413   4.250  15.859  0.00  0.00    +0.000 C 
ATOM      5  S   UNL     1       6.280   4.054  14.228  0.00  0.00    +0.000 S 
ATOM      6  N   UNL     1       5.412   4.024  16.785  0.00  0.00    +0.000 N 
ATOM      7  C   UNL     1       5.885   4.293  18.040  0.00  0.00    +0.000 C 
ATOM      8  C   UNL     1       5.240   4.205  19.205  0.00  0.00    +0.000 C 
ATOM      9  H   UNL     1       8.415   4.893  16.102  0.00  0.00    +0.000 HD
ATOM     10  H   UNL     1       4.467   3.738  16.568  0.00  0.00    +0.000 HD
ENDROOT
BRANCH   8  11
ATOM     11  C   UNL     1       3.841   3.792  19.339  0.00  0.00    +0.000 A 
ATOM     12  C   UNL     1       2.875   4.740  19.704  0.00  0.00    +0.000 A 
ATOM     13  C   UNL     1       1.531   4.372  19.821  0.00  0.00    +0.000 A 
ATOM     14  C   UNL     1       1.158   3.055  19.569  0.00  0.00    +0.000 A 
ATOM     15  C   UNL     1       2.103   2.098  19.211  0.00  0.00    +0.000 A 
ATOM     16  C   UNL     1       3.441   2.471  19.100  0.00  0.00    +0.000 A 
BRANCH  14  17
ATOM     17  O   UNL     1      -0.141   2.655  19.664  0.00  0.00    +0.000 OA
ATOM     18  H   UNL     1      -0.392   2.615  20.602  0.00  0.00    +0.000 HD
ENDBRANCH  14  17
BRANCH  16  19
ATOM     19  O   UNL     1       4.383   1.542  18.749  0.00  0.00    +0.000 OA
ATOM     20  H   UNL     1       5.148   1.999  18.363  0.00  0.00    +0.000 HD
ENDBRANCH  16  19
ENDBRANCH   8  11
TORSDOF 3
ENDMDL
MODEL 4
REMARK VINA RESULT:      -7.3      2.366      2.632
REMARK  Name = 
REMARK  3 active torsions:
REMARK  status: ('A' for Active; 'I' for Inactive)
REMARK    1  A    between atoms: C_8  and  C_9
REMARK    2  A    between atoms: C_12  and  O_13
REMARK    3  A    between atoms: C_15  and  O_16
REMARK                            x       y       z     vdW  Elec       q    Type
REMARK                         _______ _______ _______ _____ _____    ______ ____
ROOT
ATOM      1  O   UNL     1       8.150   5.001  18.729  0.00  0.00    +0.000 OA
ATOM      2  C   UNL     1       7.358   4.709  17.856  0.00  0.00    +0.000 C 
ATOM      3  N   UNL     1       7.572   4.662  16.503  0.00  0.00    +0.000 N 
ATOM      4  C   UNL     1       6.441   4.275  15.834  0.00  0.00    +0.000 C 
ATOM      5  S   UNL     1       6.297   4.100  14.201  0.00  0.00    +0.000 S 
ATOM      6  N   UNL     1       5.442   4.053  16.762  0.00  0.00    +0.000 N 
ATOM      7  C   UNL     1       5.926   4.301  18.018  0.00  0.00    +0.000 C 
ATOM      8  C   UNL     1       5.285   4.209  19.185  0.00  0.00    +0.000 C 
ATOM      9  H   UNL     1       8.454   4.887  16.072  0.00  0.00    +0.000 HD
ATOM     10  H   UNL     1       4.492   3.782  16.548  0.00  0.00    +0.000 HD
ENDROOT
BRANCH   8  11
ATOM     11  C   UNL     1       3.881   3.814  19.322  0.00  0.00    +0.000 A 
ATOM     12  C   UNL     1       3.504   2.499  19.017  0.00  0.00    +0.000 A 
ATOM     13  C   UNL     1       2.173   2.094  19.158  0.00  0.00    +0.000 A 
ATOM     14  C   UNL     1       1.224   3.009  19.606  0.00  0.00    +0.000 A 
ATOM     15  C   UNL     1       1.578   4.319  19.909  0.00  0.00    +0.000 A 
ATOM     16  C   UNL     1       2.906   4.717  19.764  0.00  0.00    +0.000 A 
BRANCH  14  17
ATOM     17  O   UNL     1      -0.083   2.655  19.765  0.00  0.00    +0.000 OA
ATOM     18  H   UNL     1      -0.151   2.021  20.498  0.00  0.00    +0.000 HD
ENDBRANCH  14  17
BRANCH  16  19
ATOM     19  O   UNL     1       3.271   6.004  20.056  0.00  0.00    +0.000 OA
ATOM     20  H   UNL     1       4.228   6.030  20.222  0.00  0.00    +0.000 HD
ENDBRANCH  16  19
ENDBRANCH   8  11
TORSDOF 3
ENDMDL
MODEL 5
REMARK VINA RESULT:      -7.2      2.139      2.385
REMARK  Name = 
REMARK  3 active torsions:
REMARK  status: ('A' for Active; 'I' for Inactive)
REMARK    1  A    between atoms: C_8  and  C_9
REMARK    2  A    between atoms: C_12  and  O_13
REMARK    3  A    between atoms: C_15  and  O_16
REMARK                            x       y       z     vdW  Elec       q    Type
REMARK                         _______ _______ _______ _____ _____    ______ ____
ROOT
ATOM      1  O   UNL     1       7.866   6.939  17.940  0.00  0.00    +0.000 OA
ATOM      2  C   UNL     1       7.161   6.176  17.310  0.00  0.00    +0.000 C 
ATOM      3  N   UNL     1       7.329   5.743  16.021  0.00  0.00    +0.000 N 
ATOM      4  C   UNL     1       6.337   4.871  15.657  0.00  0.00    +0.000 C 
ATOM      5  S   UNL     1       6.188   4.134  14.189  0.00  0.00    +0.000 S 
ATOM      6  N   UNL     1       5.482   4.713  16.731  0.00  0.00    +0.000 N 
ATOM      7  C   UNL     1       5.920   5.481  17.776  0.00  0.00    +0.000 C 
ATOM      8  C   UNL     1       5.379   5.614  18.989  0.00  0.00    +0.000 C 
ATOM      9  H   UNL     1       8.089   6.038  15.430  0.00  0.00    +0.000 HD
ATOM     10  H   UNL     1       4.646   4.145  16.736  0.00  0.00    +0.000 HD
ENDROOT
BRANCH   8  11
ATOM     11  C   UNL     1       4.159   4.929  19.423  0.00  0.00    +0.000 A 
ATOM     12  C   UNL     1       2.995   5.676  19.651  0.00  0.00    +0.000 A 
ATOM     13  C   UNL     1       1.814   5.042  20.049  0.00  0.00    +0.000 A 
ATOM     14  C   UNL     1       1.802   3.660  20.216  0.00  0.00    +0.000 A 
ATOM     15  C   UNL     1       2.949   2.902  20.000  0.00  0.00    +0.000 A 
ATOM     16  C   UNL     1       4.123   3.541  19.606  0.00  0.00    +0.000 A 
BRANCH  14  17
ATOM     17  O   UNL     1       0.671   3.000  20.595  0.00  0.00    +0.000 OA
ATOM     18  H   UNL     1       0.871   2.053  20.677  0.00  0.00    +0.000 HD
ENDBRANCH  14  17
BRANCH  16  19
ATOM     19  O   UNL     1       5.260   2.810  19.391  0.00  0.00    +0.000 OA
ATOM     20  H   UNL     1       5.264   2.048  19.995  0.00  0.00    +0.000 HD
ENDBRANCH  16  19
ENDBRANCH   8  11
TORSDOF 3
ENDMDL
MODEL 6
REMARK VINA RESULT:      -7.1      2.586      2.855
REMARK  Name = 
REMARK  3 active torsions:
REMARK  status: ('A' for Active; 'I' for Inactive)
REMARK    1  A    between atoms: C_8  and  C_9
REMARK    2  A    between atoms: C_12  and  O_13
REMARK    3  A    between atoms: C_15  and  O_16
REMARK                            x       y       z     vdW  Elec       q    Type
REMARK                         _______ _______ _______ _____ _____    ______ ____
ROOT
ATOM      1  O   UNL     1       7.658   6.218  16.698  0.00  0.00    +0.000 OA
ATOM      2  C   UNL     1       7.004   5.509  15.960  0.00  0.00    +0.000 C 
ATOM      3  N   UNL     1       7.278   5.162  14.662  0.00  0.00    +0.000 N 
ATOM      4  C   UNL     1       6.315   4.330  14.156  0.00  0.00    +0.000 C 
ATOM      5  S   UNL     1       6.286   3.698  12.634  0.00  0.00    +0.000 S 
ATOM      6  N   UNL     1       5.371   4.109  15.141  0.00  0.00    +0.000 N 
ATOM      7  C   UNL     1       5.723   4.798  16.270  0.00  0.00    +0.000 C 
ATOM      8  C   UNL     1       5.082   4.855  17.439  0.00  0.00    +0.000 C 
ATOM      9  H   UNL     1       8.087   5.487  14.160  0.00  0.00    +0.000 HD
ATOM     10  H   UNL     1       4.533   3.553  15.037  0.00  0.00    +0.000 HD
ENDROOT
BRANCH   8  11
ATOM     11  C   UNL     1       3.825   4.158  17.721  0.00  0.00    +0.000 A 
ATOM     12  C   UNL     1       3.809   2.757  17.761  0.00  0.00    +0.000 A 
ATOM     13  C   UNL     1       2.624   2.070  18.046  0.00  0.00    +0.000 A 
ATOM     14  C   UNL     1       1.459   2.791  18.291  0.00  0.00    +0.000 A 
ATOM     15  C   UNL     1       1.453   4.181  18.251  0.00  0.00    +0.000 A 
ATOM     16  C   UNL     1       2.637   4.859  17.963  0.00  0.00    +0.000 A 
BRANCH  14  17
ATOM     17  O   UNL     1       0.284   2.162  18.580  0.00  0.00    +0.000 OA
ATOM     18  H   UNL     1       0.421   1.570  19.338  0.00  0.00    +0.000 HD
ENDBRANCH  14  17
BRANCH  16  19
ATOM     19  O   UNL     1       2.647   6.227  17.919  0.00  0.00    +0.000 OA
ATOM     20  H   UNL     1       3.549   6.528  17.714  0.00  0.00    +0.000 HD
ENDBRANCH  16  19
ENDBRANCH   8  11
TORSDOF 3
ENDMDL
MODEL 7
REMARK VINA RESULT:      -6.8      1.373      1.866
REMARK  Name = 
REMARK  3 active torsions:
REMARK  status: ('A' for Active; 'I' for Inactive)
REMARK    1  A    between atoms: C_8  and  C_9
REMARK    2  A    between atoms: C_12  and  O_13
REMARK    3  A    between atoms: C_15  and  O_16
REMARK                            x       y       z     vdW  Elec       q    Type
REMARK                         _______ _______ _______ _____ _____    ______ ____
ROOT
ATOM      1  O   UNL     1       5.339   4.263  14.277  0.00  0.00    +0.000 OA
ATOM      2  C   UNL     1       5.587   4.791  15.343  0.00  0.00    +0.000 C 
ATOM      3  N   UNL     1       6.510   5.770  15.605  0.00  0.00    +0.000 N 
ATOM      4  C   UNL     1       6.493   6.126  16.927  0.00  0.00    +0.000 C 
ATOM      5  S   UNL     1       7.454   7.266  17.633  0.00  0.00    +0.000 S 
ATOM      6  N   UNL     1       5.531   5.370  17.570  0.00  0.00    +0.000 N 
ATOM      7  C   UNL     1       4.938   4.530  16.667  0.00  0.00    +0.000 C 
ATOM      8  C   UNL     1       3.969   3.638  16.880  0.00  0.00    +0.000 C 
ATOM      9  H   UNL     1       7.116   6.164  14.905  0.00  0.00    +0.000 HD
ATOM     10  H   UNL     1       5.320   5.406  18.557  0.00  0.00    +0.000 HD
ENDROOT
BRANCH   8  11
ATOM     11  C   UNL     1       3.351   3.392  18.185  0.00  0.00    +0.000 A 
ATOM     12  C   UNL     1       4.125   2.856  19.223  0.00  0.00    +0.000 A 
ATOM     13  C   UNL     1       3.561   2.630  20.483  0.00  0.00    +0.000 A 
ATOM     14  C   UNL     1       2.222   2.944  20.699  0.00  0.00    +0.000 A 
ATOM     15  C   UNL     1       1.436   3.471  19.680  0.00  0.00    +0.000 A 
ATOM     16  C   UNL     1       2.004   3.691  18.426  0.00  0.00    +0.000 A 
BRANCH  14  17
ATOM     17  O   UNL     1       1.634   2.747  21.913  0.00  0.00    +0.000 OA
ATOM     18  H   UNL     1       0.751   3.152  21.905  0.00  0.00    +0.000 HD
ENDBRANCH  14  17
BRANCH  16  19
ATOM     19  O   UNL     1       1.243   4.209  17.412  0.00  0.00    +0.000 OA
ATOM     20  H   UNL     1       1.546   3.833  16.568  0.00  0.00    +0.000 HD
ENDBRANCH  16  19
ENDBRANCH   8  11
TORSDOF 3
ENDMDL
MODEL 8
REMARK VINA RESULT:      -6.7      2.757      5.514
REMARK  Name = 
REMARK  3 active torsions:
REMARK  status: ('A' for Active; 'I' for Inactive)
REMARK    1  A    between atoms: C_8  and  C_9
REMARK    2  A    between atoms: C_12  and  O_13
REMARK    3  A    between atoms: C_15  and  O_16
REMARK                            x       y       z     vdW  Elec       q    Type
REMARK                         _______ _______ _______ _____ _____    ______ ____
ROOT
ATOM      1  O   UNL     1       2.295   3.700  21.401  0.00  0.00    +0.000 OA
ATOM      2  C   UNL     1       2.423   4.727  20.765  0.00  0.00    +0.000 C 
ATOM      3  N   UNL     1       1.753   5.911  20.932  0.00  0.00    +0.000 N 
ATOM      4  C   UNL     1       2.178   6.853  20.032  0.00  0.00    +0.000 C 
ATOM      5  S   UNL     1       1.617   8.398  19.913  0.00  0.00    +0.000 S 
ATOM      6  N   UNL     1       3.162   6.287  19.243  0.00  0.00    +0.000 N 
ATOM      7  C   UNL     1       3.363   4.990  19.630  0.00  0.00    +0.000 C 
ATOM      8  C   UNL     1       4.218   4.099  19.124  0.00  0.00    +0.000 C 
ATOM      9  H   UNL     1       1.042   6.054  21.629  0.00  0.00    +0.000 HD
ATOM     10  H   UNL     1       3.637   6.747  18.478  0.00  0.00    +0.000 HD
ENDROOT
BRANCH   8  11
ATOM     11  C   UNL     1       5.126   4.374  18.007  0.00  0.00    +0.000 A 
ATOM     12  C   UNL     1       4.682   4.171  16.694  0.00  0.00    +0.000 A 
ATOM     13  C   UNL     1       5.525   4.444  15.612  0.00  0.00    +0.000 A 
ATOM     14  C   UNL     1       6.811   4.921  15.850  0.00  0.00    +0.000 A 
ATOM     15  C   UNL     1       7.271   5.123  17.147  0.00  0.00    +0.000 A 
ATOM     16  C   UNL     1       6.427   4.847  18.221  0.00  0.00    +0.000 A 
BRANCH  14  17
ATOM     17  O   UNL     1       7.663   5.207  14.826  0.00  0.00    +0.000 OA
ATOM     18  H   UNL     1       8.557   5.333  15.184  0.00  0.00    +0.000 HD
ENDBRANCH  14  17
BRANCH  16  19
ATOM     19  O   UNL     1       6.866   5.039  19.503  0.00  0.00    +0.000 OA
ATOM     20  H   UNL     1       7.157   4.186  19.868  0.00  0.00    +0.000 HD
ENDBRANCH  16  19
ENDBRANCH   8  11
TORSDOF 3
ENDMDL
MODEL 9
REMARK VINA RESULT:      -6.7      2.437      2.798
REMARK  Name = 
REMARK  3 active torsions:
REMARK  status: ('A' for Active; 'I' for Inactive)
REMARK    1  A    between atoms: C_8  and  C_9
REMARK    2  A    between atoms: C_12  and  O_13
REMARK    3  A    between atoms: C_15  and  O_16
REMARK                            x       y       z     vdW  Elec       q    Type
REMARK                         _______ _______ _______ _____ _____    ______ ____
ROOT
ATOM      1  O   UNL     1       7.780   6.875  18.056  0.00  0.00    +0.000 OA
ATOM      2  C   UNL     1       7.086   6.114  17.413  0.00  0.00    +0.000 C 
ATOM      3  N   UNL     1       7.265   5.699  16.119  0.00  0.00    +0.000 N 
ATOM      4  C   UNL     1       6.283   4.822  15.738  0.00  0.00    +0.000 C 
ATOM      5  S   UNL     1       6.149   4.103  14.261  0.00  0.00    +0.000 S 
ATOM      6  N   UNL     1       5.425   4.640  16.807  0.00  0.00    +0.000 N 
ATOM      7  C   UNL     1       5.849   5.399  17.864  0.00  0.00    +0.000 C 
ATOM      8  C   UNL     1       5.301   5.511  19.075  0.00  0.00    +0.000 C 
ATOM      9  H   UNL     1       8.024   6.009  15.536  0.00  0.00    +0.000 HD
ATOM     10  H   UNL     1       4.595   4.064  16.800  0.00  0.00    +0.000 HD
ENDROOT
BRANCH   8  11
ATOM     11  C   UNL     1       4.086   4.808  19.495  0.00  0.00    +0.000 A 
ATOM     12  C   UNL     1       4.095   3.409  19.580  0.00  0.00    +0.000 A 
ATOM     13  C   UNL     1       2.953   2.718  19.996  0.00  0.00    +0.000 A 
ATOM     14  C   UNL     1       1.804   3.432  20.326  0.00  0.00    +0.000 A 
ATOM     15  C   UNL     1       1.774   4.820  20.243  0.00  0.00    +0.000 A 
ATOM     16  C   UNL     1       2.916   5.503  19.825  0.00  0.00    +0.000 A 
BRANCH  14  17
ATOM     17  O   UNL     1       0.671   2.800  20.743  0.00  0.00    +0.000 OA
ATOM     18  H   UNL     1       0.761   1.847  20.573  0.00  0.00    +0.000 HD
ENDBRANCH  14  17
BRANCH  16  19
ATOM     19  O   UNL     1       2.902   6.869  19.736  0.00  0.00    +0.000 OA
ATOM     20  H   UNL     1       3.462   7.141  18.990  0.00  0.00    +0.000 HD
ENDBRANCH  16  19
ENDBRANCH   8  11
TORSDOF 3
ENDMDL
