MODEL 1
REMARK VINA RESULT:      -7.6      0.000      0.000
REMARK  Name = 
REMARK  6 active torsions:
REMARK  status: ('A' for Active; 'I' for Inactive)
REMARK    1  A    between atoms: N_3  and  C_4
REMARK    2  A    between atoms: C_4  and  C_5
REMARK    3  A    between atoms: C_5  and  C_6
REMARK    4  A    between atoms: C_6  and  C_7
REMARK    5  A    between atoms: N_18  and  C_19
REMARK    6  A    between atoms: C_19  and  C_20
REMARK                            x       y       z     vdW  Elec       q    Type
REMARK                         _______ _______ _______ _____ _____    ______ ____
ROOT
ATOM      1  C   UNL     1       1.992   3.292  21.609  0.00  0.00    +0.000 C 
ENDROOT
BRANCH   1   4
ATOM      2  O   UNL     1       0.634   5.362  20.212  0.00  0.00    +0.000 OA
ATOM      3  C   UNL     1       1.753   5.559  20.667  0.00  0.00    +0.000 C 
ATOM      4  N   UNL     1       2.476   4.635  21.366  0.00  0.00    +0.000 N 
ATOM      5  N   UNL     1       2.429   6.733  20.515  0.00  0.00    +0.000 N 
ATOM      6  H   UNL     1       3.409   4.872  21.666  0.00  0.00    +0.000 HD
ATOM      7  H   UNL     1       3.271   6.914  21.044  0.00  0.00    +0.000 HD
BRANCH   5   8
ATOM      8  C   UNL     1       1.836   7.863  19.833  0.00  0.00    +0.000 C 
BRANCH   8   9
ATOM      9  C   UNL     1       1.141   8.736  20.838  0.00  0.00    +0.000 A 
ATOM     10  N   UNL     1       1.305   8.655  22.148  0.00  0.00    +0.000 NA
ATOM     11  C   UNL     1       0.515   9.601  22.773  0.00  0.00    +0.000 A 
ATOM     12  C   UNL     1      -0.248  10.387  21.937  0.00  0.00    +0.000 A 
ATOM     13  S   UNL     1       0.030   9.938  20.307  0.00  0.00    +0.000 S 
ENDBRANCH   8   9
ENDBRANCH   5   8
ENDBRANCH   1   4
BRANCH   1  14
ATOM     14  C   UNL     1       1.611   2.579  20.312  0.00  0.00    +0.000 C 
BRANCH  14  15
ATOM     15  C   UNL     1       2.837   2.285  19.447  0.00  0.00    +0.000 C 
BRANCH  15  16
ATOM     16  C   UNL     1       2.964   3.229  18.260  0.00  0.00    +0.000 C 
ATOM     17  O   UNL     1       2.123   3.244  17.361  0.00  0.00    +0.000 OA
ATOM     18  N   UNL     1       4.026   4.101  18.269  0.00  0.00    +0.000 N 
ATOM     19  C   UNL     1       4.170   5.110  17.220  0.00  0.00    +0.000 C 
ATOM     20  C   UNL     1       5.463   5.784  17.556  0.00  0.00    +0.000 A 
ATOM     21  C   UNL     1       6.081   6.842  16.912  0.00  0.00    +0.000 A 
ATOM     22  C   UNL     1       7.311   7.287  17.404  0.00  0.00    +0.000 A 
ATOM     23  C   UNL     1       7.902   6.671  18.520  0.00  0.00    +0.000 A 
ATOM     24  C   UNL     1       7.266   5.609  19.168  0.00  0.00    +0.000 A 
ATOM     25  C   UNL     1       6.045   5.182  18.678  0.00  0.00    +0.000 A 
ATOM     26  C   UNL     1       5.169   4.081  19.183  0.00  0.00    +0.000 C 
ENDBRANCH  15  16
ENDBRANCH  14  15
ENDBRANCH   1  14
TORSDOF 6
ENDMDL
MODEL 2
REMARK VINA RESULT:      -7.5      4.774      7.452
REMARK  Name = 
REMARK  6 active torsions:
REMARK  status: ('A' for Active; 'I' for Inactive)
REMARK    1  A    between atoms: N_3  and  C_4
REMARK    2  A    between atoms: C_4  and  C_5
REMARK    3  A    between atoms: C_5  and  C_6
REMARK    4  A    between atoms: C_6  and  C_7
REMARK    5  A    between atoms: N_18  and  C_19
REMARK    6  A    between atoms: C_19  and  C_20
REMARK                            x       y       z     vdW  Elec       q    Type
REMARK                         _______ _______ _______ _____ _____    ______ ____
ROOT
ATOM      1  C   UNL     1       6.515   6.929  17.220  0.00  0.00    +0.000 C 
ENDROOT
BRANCH   1   4
ATOM      2  O   UNL     1       8.555   7.726  19.031  0.00  0.00    +0.000 OA
ATOM      3  C   UNL     1       8.158   8.502  18.173  0.00  0.00    +0.000 C 
ATOM      4  N   UNL     1       7.197   8.206  17.249  0.00  0.00    +0.000 N 
ATOM      5  N   UNL     1       8.620   9.778  18.043  0.00  0.00    +0.000 N 
ATOM      6  H   UNL     1       6.901   8.924  16.606  0.00  0.00    +0.000 HD
ATOM      7  H   UNL     1       8.392  10.326  17.225  0.00  0.00    +0.000 HD
BRANCH   5   8
ATOM      8  C   UNL     1       9.666  10.293  18.899  0.00  0.00    +0.000 C 
BRANCH   8   9
ATOM      9  C   UNL     1      10.288  11.496  18.249  0.00  0.00    +0.000 A 
ATOM     10  N   UNL     1      11.579  11.632  17.993  0.00  0.00    +0.000 NA
ATOM     11  C   UNL     1      11.805  12.857  17.395  0.00  0.00    +0.000 A 
ATOM     12  C   UNL     1      10.691  13.644  17.209  0.00  0.00    +0.000 A 
ATOM     13  S   UNL     1       9.302  12.831  17.795  0.00  0.00    +0.000 S 
ENDBRANCH   8   9
ENDBRANCH   5   8
ENDBRANCH   1   4
BRANCH   1  14
ATOM     14  C   UNL     1       7.296   5.880  16.429  0.00  0.00    +0.000 C 
BRANCH  14  15
ATOM     15  C   UNL     1       6.869   4.459  16.799  0.00  0.00    +0.000 C 
BRANCH  15  16
ATOM     16  C   UNL     1       5.453   4.131  16.351  0.00  0.00    +0.000 C 
ATOM     17  O   UNL     1       5.164   4.036  15.158  0.00  0.00    +0.000 OA
ATOM     18  N   UNL     1       4.528   3.891  17.339  0.00  0.00    +0.000 N 
ATOM     19  C   UNL     1       3.169   3.471  16.999  0.00  0.00    +0.000 C 
ATOM     20  C   UNL     1       2.484   3.390  18.327  0.00  0.00    +0.000 A 
ATOM     21  C   UNL     1       1.183   3.011  18.610  0.00  0.00    +0.000 A 
ATOM     22  C   UNL     1       0.761   3.039  19.941  0.00  0.00    +0.000 A 
ATOM     23  C   UNL     1       1.636   3.445  20.962  0.00  0.00    +0.000 A 
ATOM     24  C   UNL     1       2.950   3.818  20.668  0.00  0.00    +0.000 A 
ATOM     25  C   UNL     1       3.361   3.779  19.347  0.00  0.00    +0.000 A 
ATOM     26  C   UNL     1       4.697   4.122  18.773  0.00  0.00    +0.000 C 
ENDBRANCH  15  16
ENDBRANCH  14  15
ENDBRANCH   1  14
TORSDOF 6
ENDMDL
MODEL 3
REMARK VINA RESULT:      -7.5      5.616      8.207
REMARK  Name = 
REMARK  6 active torsions:
REMARK  status: ('A' for Active; 'I' for Inactive)
REMARK    1  A    between atoms: N_3  and  C_4
REMARK    2  A    between atoms: C_4  and  C_5
REMARK    3  A    between atoms: C_5  and  C_6
REMARK    4  A    between atoms: C_6  and  C_7
REMARK    5  A    between atoms: N_18  and  C_19
REMARK    6  A    between atoms: C_19  and  C_20
REMARK                            x       y       z     vdW  Elec       q    Type
REMARK                         _______ _______ _______ _____ _____    ______ ____
ROOT
ATOM      1  C   UNL     1       8.171   8.005  18.200  0.00  0.00    +0.000 C 
ENDROOT
BRANCH   1   4
ATOM      2  O   UNL     1       9.318  10.073  19.777  0.00  0.00    +0.000 OA
ATOM      3  C   UNL     1       8.834  10.331  18.684  0.00  0.00    +0.000 C 
ATOM      4  N   UNL     1       8.278   9.406  17.847  0.00  0.00    +0.000 N 
ATOM      5  N   UNL     1       8.776  11.592  18.167  0.00  0.00    +0.000 N 
ATOM      6  H   UNL     1       7.864   9.717  16.982  0.00  0.00    +0.000 HD
ATOM      7  H   UNL     1       8.526  11.739  17.200  0.00  0.00    +0.000 HD
BRANCH   5   8
ATOM      8  C   UNL     1       9.337  12.723  18.873  0.00  0.00    +0.000 C 
BRANCH   8   9
ATOM      9  C   UNL     1      10.496  13.268  18.088  0.00  0.00    +0.000 A 
ATOM     10  N   UNL     1      11.413  12.530  17.486  0.00  0.00    +0.000 NA
ATOM     11  C   UNL     1      12.331  13.350  16.861  0.00  0.00    +0.000 A 
ATOM     12  C   UNL     1      12.113  14.703  16.998  0.00  0.00    +0.000 A 
ATOM     13  S   UNL     1      10.705  14.970  17.938  0.00  0.00    +0.000 S 
ENDBRANCH   8   9
ENDBRANCH   5   8
ENDBRANCH   1   4
BRANCH   1  14
ATOM     14  C   UNL     1       7.471   7.193  17.111  0.00  0.00    +0.000 C 
BRANCH  14  15
ATOM     15  C   UNL     1       5.957   7.147  17.327  0.00  0.00    +0.000 C 
BRANCH  15  16
ATOM     16  C   UNL     1       5.319   5.879  16.777  0.00  0.00    +0.000 C 
ATOM     17  O   UNL     1       5.704   5.375  15.722  0.00  0.00    +0.000 OA
ATOM     18  N   UNL     1       4.337   5.296  17.541  0.00  0.00    +0.000 N 
ATOM     19  C   UNL     1       3.741   4.022  17.139  0.00  0.00    +0.000 C 
ATOM     20  C   UNL     1       2.692   3.783  18.179  0.00  0.00    +0.000 A 
ATOM     21  C   UNL     1       1.833   2.704  18.311  0.00  0.00    +0.000 A 
ATOM     22  C   UNL     1       0.914   2.718  19.362  0.00  0.00    +0.000 A 
ATOM     23  C   UNL     1       0.862   3.800  20.256  0.00  0.00    +0.000 A 
ATOM     24  C   UNL     1       1.738   4.880  20.120  0.00  0.00    +0.000 A 
ATOM     25  C   UNL     1       2.651   4.853  19.080  0.00  0.00    +0.000 A 
ATOM     26  C   UNL     1       3.685   5.869  18.718  0.00  0.00    +0.000 C 
ENDBRANCH  15  16
ENDBRANCH  14  15
ENDBRANCH   1  14
TORSDOF 6
ENDMDL
MODEL 4
REMARK VINA RESULT:      -7.4      5.923      8.269
REMARK  Name = 
REMARK  6 active torsions:
REMARK  status: ('A' for Active; 'I' for Inactive)
REMARK    1  A    between atoms: N_3  and  C_4
REMARK    2  A    between atoms: C_4  and  C_5
REMARK    3  A    between atoms: C_5  and  C_6
REMARK    4  A    between atoms: C_6  and  C_7
REMARK    5  A    between atoms: N_18  and  C_19
REMARK    6  A    between atoms: C_19  and  C_20
REMARK                            x       y       z     vdW  Elec       q    Type
REMARK                         _______ _______ _______ _____ _____    ______ ____
ROOT
ATOM      1  C   UNL     1       8.412   8.341  18.474  0.00  0.00    +0.000 C 
ENDROOT
BRANCH   1   4
ATOM      2  O   UNL     1       9.328  10.468  20.121  0.00  0.00    +0.000 OA
ATOM      3  C   UNL     1       9.002  10.686  18.962  0.00  0.00    +0.000 C 
ATOM      4  N   UNL     1       8.567   9.729  18.090  0.00  0.00    +0.000 N 
ATOM      5  N   UNL     1       9.017  11.927  18.398  0.00  0.00    +0.000 N 
ATOM      6  H   UNL     1       8.278  10.007  17.165  0.00  0.00    +0.000 HD
ATOM      7  H   UNL     1       8.904  12.039  17.400  0.00  0.00    +0.000 HD
BRANCH   5   8
ATOM      8  C   UNL     1       9.475  13.085  19.134  0.00  0.00    +0.000 C 
BRANCH   8   9
ATOM      9  C   UNL     1      10.426  13.869  18.277  0.00  0.00    +0.000 A 
ATOM     10  N   UNL     1      10.178  15.070  17.779  0.00  0.00    +0.000 NA
ATOM     11  C   UNL     1      11.263  15.497  17.037  0.00  0.00    +0.000 A 
ATOM     12  C   UNL     1      12.321  14.618  16.969  0.00  0.00    +0.000 A 
ATOM     13  S   UNL     1      11.959  13.204  17.867  0.00  0.00    +0.000 S 
ENDBRANCH   8   9
ENDBRANCH   5   8
ENDBRANCH   1   4
BRANCH   1  14
ATOM     14  C   UNL     1       7.555   7.564  17.476  0.00  0.00    +0.000 C 
BRANCH  14  15
ATOM     15  C   UNL     1       6.987   6.285  18.095  0.00  0.00    +0.000 C 
BRANCH  15  16
ATOM     16  C   UNL     1       5.861   5.678  17.270  0.00  0.00    +0.000 C 
ATOM     17  O   UNL     1       5.932   5.608  16.044  0.00  0.00    +0.000 OA
ATOM     18  N   UNL     1       4.791   5.164  17.963  0.00  0.00    +0.000 N 
ATOM     19  C   UNL     1       3.712   4.473  17.257  0.00  0.00    +0.000 C 
ATOM     20  C   UNL     1       2.738   4.143  18.344  0.00  0.00    +0.000 A 
ATOM     21  C   UNL     1       1.537   3.459  18.254  0.00  0.00    +0.000 A 
ATOM     22  C   UNL     1       0.782   3.293  19.417  0.00  0.00    +0.000 A 
ATOM     23  C   UNL     1       1.231   3.812  20.643  0.00  0.00    +0.000 A 
ATOM     24  C   UNL     1       2.447   4.493  20.726  0.00  0.00    +0.000 A 
ATOM     25  C   UNL     1       3.192   4.645  19.570  0.00  0.00    +0.000 A 
ATOM     26  C   UNL     1       4.511   5.322  19.390  0.00  0.00    +0.000 C 
ENDBRANCH  15  16
ENDBRANCH  14  15
ENDBRANCH   1  14
TORSDOF 6
ENDMDL
MODEL 5
REMARK VINA RESULT:      -7.4      5.283      7.196
REMARK  Name = 
REMARK  6 active torsions:
REMARK  status: ('A' for Active; 'I' for Inactive)
REMARK    1  A    between atoms: N_3  and  C_4
REMARK    2  A    between atoms: C_4  and  C_5
REMARK    3  A    between atoms: C_5  and  C_6
REMARK    4  A    between atoms: C_6  and  C_7
REMARK    5  A    between atoms: N_18  and  C_19
REMARK    6  A    between atoms: C_19  and  C_20
REMARK                            x       y       z     vdW  Elec       q    Type
REMARK                         _______ _______ _______ _____ _____    ______ ____
ROOT
ATOM      1  C   UNL     1       8.302   8.054  18.385  0.00  0.00    +0.000 C 
ENDROOT
BRANCH   1   4
ATOM      2  O   UNL     1       9.720  10.289  19.421  0.00  0.00    +0.000 OA
ATOM      3  C   UNL     1       8.998  10.420  18.442  0.00  0.00    +0.000 C 
ATOM      4  N   UNL     1       8.292   9.405  17.862  0.00  0.00    +0.000 N 
ATOM      5  N   UNL     1       8.794  11.612  17.814  0.00  0.00    +0.000 N 
ATOM      6  H   UNL     1       7.687   9.614  17.083  0.00  0.00    +0.000 HD
ATOM      7  H   UNL     1       8.330  11.648  16.917  0.00  0.00    +0.000 HD
BRANCH   5   8
ATOM      8  C   UNL     1       9.470  12.817  18.244  0.00  0.00    +0.000 C 
BRANCH   8   9
ATOM      9  C   UNL     1       8.499  13.688  18.989  0.00  0.00    +0.000 A 
ATOM     10  N   UNL     1       7.569  14.438  18.421  0.00  0.00    +0.000 NA
ATOM     11  C   UNL     1       6.857  15.109  19.396  0.00  0.00    +0.000 A 
ATOM     12  C   UNL     1       7.253  14.872  20.694  0.00  0.00    +0.000 A 
ATOM     13  S   UNL     1       8.561  13.766  20.707  0.00  0.00    +0.000 S 
ENDBRANCH   8   9
ENDBRANCH   5   8
ENDBRANCH   1   4
BRANCH   1  14
ATOM     14  C   UNL     1       7.424   7.114  17.559  0.00  0.00    +0.000 C 
BRANCH  14  15
ATOM     15  C   UNL     1       7.272   5.748  18.230  0.00  0.00    +0.000 C 
BRANCH  15  16
ATOM     16  C   UNL     1       6.300   4.835  17.498  0.00  0.00    +0.000 C 
ATOM     17  O   UNL     1       6.586   4.335  16.410  0.00  0.00    +0.000 OA
ATOM     18  N   UNL     1       5.116   4.550  18.135  0.00  0.00    +0.000 N 
ATOM     19  C   UNL     1       4.166   3.602  17.551  0.00  0.00    +0.000 C 
ATOM     20  C   UNL     1       3.010   3.635  18.499  0.00  0.00    +0.000 A 
ATOM     21  C   UNL     1       1.832   2.907  18.456  0.00  0.00    +0.000 A 
ATOM     22  C   UNL     1       0.881   3.131  19.453  0.00  0.00    +0.000 A 
ATOM     23  C   UNL     1       1.114   4.073  20.469  0.00  0.00    +0.000 A 
ATOM     24  C   UNL     1       2.308   4.796  20.510  0.00  0.00    +0.000 A 
ATOM     25  C   UNL     1       3.248   4.561  19.521  0.00  0.00    +0.000 A 
ATOM     26  C   UNL     1       4.590   5.193  19.339  0.00  0.00    +0.000 C 
ENDBRANCH  15  16
ENDBRANCH  14  15
ENDBRANCH   1  14
TORSDOF 6
ENDMDL
MODEL 6
REMARK VINA RESULT:      -7.3      5.327      7.486
REMARK  Name = 
REMARK  6 active torsions:
REMARK  status: ('A' for Active; 'I' for Inactive)
REMARK    1  A    between atoms: N_3  and  C_4
REMARK    2  A    between atoms: C_4  and  C_5
REMARK    3  A    between atoms: C_5  and  C_6
REMARK    4  A    between atoms: C_6  and  C_7
REMARK    5  A    between atoms: N_18  and  C_19
REMARK    6  A    between atoms: C_19  and  C_20
REMARK                            x       y       z     vdW  Elec       q    Type
REMARK                         _______ _______ _______ _____ _____    ______ ____
ROOT
ATOM      1  C   UNL     1       8.055   7.891  18.265  0.00  0.00    +0.000 C 
ENDROOT
BRANCH   1   4
ATOM      2  O   UNL     1       9.463   9.937  19.646  0.00  0.00    +0.000 OA
ATOM      3  C   UNL     1       8.970  10.164  18.549  0.00  0.00    +0.000 C 
ATOM      4  N   UNL     1       8.292   9.243  17.803  0.00  0.00    +0.000 N 
ATOM      5  N   UNL     1       9.022  11.382  17.939  0.00  0.00    +0.000 N 
ATOM      6  H   UNL     1       7.881   9.531  16.928  0.00  0.00    +0.000 HD
ATOM      7  H   UNL     1       8.754  11.483  16.971  0.00  0.00    +0.000 HD
BRANCH   5   8
ATOM      8  C   UNL     1       9.722  12.497  18.540  0.00  0.00    +0.000 C 
BRANCH   8   9
ATOM      9  C   UNL     1       8.948  13.758  18.285  0.00  0.00    +0.000 A 
ATOM     10  N   UNL     1       9.403  14.981  18.507  0.00  0.00    +0.000 NA
ATOM     11  C   UNL     1       8.434  15.905  18.167  0.00  0.00    +0.000 A 
ATOM     12  C   UNL     1       7.249  15.381  17.698  0.00  0.00    +0.000 A 
ATOM     13  S   UNL     1       7.342  13.671  17.673  0.00  0.00    +0.000 S 
ENDBRANCH   8   9
ENDBRANCH   5   8
ENDBRANCH   1   4
BRANCH   1  14
ATOM     14  C   UNL     1       7.409   7.022  17.187  0.00  0.00    +0.000 C 
BRANCH  14  15
ATOM     15  C   UNL     1       5.883   7.113  17.227  0.00  0.00    +0.000 C 
BRANCH  15  16
ATOM     16  C   UNL     1       5.201   5.871  16.670  0.00  0.00    +0.000 C 
ATOM     17  O   UNL     1       5.530   5.393  15.584  0.00  0.00    +0.000 OA
ATOM     18  N   UNL     1       4.246   5.279  17.460  0.00  0.00    +0.000 N 
ATOM     19  C   UNL     1       3.611   4.027  17.049  0.00  0.00    +0.000 C 
ATOM     20  C   UNL     1       2.607   3.772  18.128  0.00  0.00    +0.000 A 
ATOM     21  C   UNL     1       1.738   2.703  18.267  0.00  0.00    +0.000 A 
ATOM     22  C   UNL     1       0.867   2.698  19.359  0.00  0.00    +0.000 A 
ATOM     23  C   UNL     1       0.872   3.754  20.286  0.00  0.00    +0.000 A 
ATOM     24  C   UNL     1       1.758   4.825  20.141  0.00  0.00    +0.000 A 
ATOM     25  C   UNL     1       2.623   4.816  19.060  0.00  0.00    +0.000 A 
ATOM     26  C   UNL     1       3.656   5.827  18.682  0.00  0.00    +0.000 C 
ENDBRANCH  15  16
ENDBRANCH  14  15
ENDBRANCH   1  14
TORSDOF 6
ENDMDL
MODEL 7
REMARK VINA RESULT:      -7.3      6.234      8.150
REMARK  Name = 
REMARK  6 active torsions:
REMARK  status: ('A' for Active; 'I' for Inactive)
REMARK    1  A    between atoms: N_3  and  C_4
REMARK    2  A    between atoms: C_4  and  C_5
REMARK    3  A    between atoms: C_5  and  C_6
REMARK    4  A    between atoms: C_6  and  C_7
REMARK    5  A    between atoms: N_18  and  C_19
REMARK    6  A    between atoms: C_19  and  C_20
REMARK                            x       y       z     vdW  Elec       q    Type
REMARK                         _______ _______ _______ _____ _____    ______ ____
ROOT
ATOM      1  C   UNL     1       8.555   9.102  18.474  0.00  0.00    +0.000 C 
ENDROOT
BRANCH   1   4
ATOM      2  O   UNL     1      10.635  10.993  18.888  0.00  0.00    +0.000 OA
ATOM      3  C   UNL     1       9.608  11.326  18.312  0.00  0.00    +0.000 C 
ATOM      4  N   UNL     1       8.563  10.487  18.051  0.00  0.00    +0.000 N 
ATOM      5  N   UNL     1       9.372  12.594  17.870  0.00  0.00    +0.000 N 
ATOM      6  H   UNL     1       7.736  10.859  17.610  0.00  0.00    +0.000 HD
ATOM      7  H   UNL     1       8.593  12.787  17.256  0.00  0.00    +0.000 HD
BRANCH   5   8
ATOM      8  C   UNL     1      10.362  13.640  18.013  0.00  0.00    +0.000 C 
BRANCH   8   9
ATOM      9  C   UNL     1       9.667  14.939  18.303  0.00  0.00    +0.000 A 
ATOM     10  N   UNL     1       8.454  15.256  17.882  0.00  0.00    +0.000 NA
ATOM     11  C   UNL     1       8.125  16.522  18.325  0.00  0.00    +0.000 A 
ATOM     12  C   UNL     1       9.090  17.161  19.072  0.00  0.00    +0.000 A 
ATOM     13  S   UNL     1      10.462  16.147  19.236  0.00  0.00    +0.000 S 
ENDBRANCH   8   9
ENDBRANCH   5   8
ENDBRANCH   1   4
BRANCH   1  14
ATOM     14  C   UNL     1       7.861   8.197  17.457  0.00  0.00    +0.000 C 
BRANCH  14  15
ATOM     15  C   UNL     1       7.594   6.804  18.029  0.00  0.00    +0.000 C 
BRANCH  15  16
ATOM     16  C   UNL     1       6.821   5.909  17.072  0.00  0.00    +0.000 C 
ATOM     17  O   UNL     1       7.259   5.639  15.953  0.00  0.00    +0.000 OA
ATOM     18  N   UNL     1       5.643   5.373  17.535  0.00  0.00    +0.000 N 
ATOM     19  C   UNL     1       4.886   4.423  16.720  0.00  0.00    +0.000 C 
ATOM     20  C   UNL     1       3.667   4.149  17.542  0.00  0.00    +0.000 A 
ATOM     21  C   UNL     1       2.612   3.295  17.269  0.00  0.00    +0.000 A 
ATOM     22  C   UNL     1       1.563   3.226  18.189  0.00  0.00    +0.000 A 
ATOM     23  C   UNL     1       1.581   4.007  19.357  0.00  0.00    +0.000 A 
ATOM     24  C   UNL     1       2.653   4.859  19.627  0.00  0.00    +0.000 A 
ATOM     25  C   UNL     1       3.691   4.915  18.714  0.00  0.00    +0.000 A 
ATOM     26  C   UNL     1       4.940   5.733  18.766  0.00  0.00    +0.000 C 
ENDBRANCH  15  16
ENDBRANCH  14  15
ENDBRANCH   1  14
TORSDOF 6
ENDMDL
MODEL 8
REMARK VINA RESULT:      -7.2      4.405      7.085
REMARK  Name = 
REMARK  6 active torsions:
REMARK  status: ('A' for Active; 'I' for Inactive)
REMARK    1  A    between atoms: N_3  and  C_4
REMARK    2  A    between atoms: C_4  and  C_5
REMARK    3  A    between atoms: C_5  and  C_6
REMARK    4  A    between atoms: C_6  and  C_7
REMARK    5  A    between atoms: N_18  and  C_19
REMARK    6  A    between atoms: C_19  and  C_20
REMARK                            x       y       z     vdW  Elec       q    Type
REMARK                         _______ _______ _______ _____ _____    ______ ____
ROOT
ATOM      1  C   UNL     1       7.296   5.382  18.359  0.00  0.00    +0.000 C 
ENDROOT
BRANCH   1   4
ATOM      2  O   UNL     1       7.496   7.882  17.022  0.00  0.00    +0.000 OA
ATOM      3  C   UNL     1       8.017   7.728  18.119  0.00  0.00    +0.000 C 
ATOM      4  N   UNL     1       7.960   6.573  18.845  0.00  0.00    +0.000 N 
ATOM      5  N   UNL     1       8.739   8.697  18.749  0.00  0.00    +0.000 N 
ATOM      6  H   UNL     1       8.457   6.523  19.721  0.00  0.00    +0.000 HD
ATOM      7  H   UNL     1       9.007   8.590  19.718  0.00  0.00    +0.000 HD
BRANCH   5   8
ATOM      8  C   UNL     1       8.901  10.014  18.172  0.00  0.00    +0.000 C 
BRANCH   8   9
ATOM      9  C   UNL     1       9.735  10.856  19.093  0.00  0.00    +0.000 A 
ATOM     10  N   UNL     1      10.917  11.367  18.786  0.00  0.00    +0.000 NA
ATOM     11  C   UNL     1      11.406  12.083  19.861  0.00  0.00    +0.000 A 
ATOM     12  C   UNL     1      10.600  12.107  20.978  0.00  0.00    +0.000 A 
ATOM     13  S   UNL     1       9.173  11.206  20.681  0.00  0.00    +0.000 S 
ENDBRANCH   8   9
ENDBRANCH   5   8
ENDBRANCH   1   4
BRANCH   1  14
ATOM     14  C   UNL     1       5.929   5.181  19.013  0.00  0.00    +0.000 C 
BRANCH  14  15
ATOM     15  C   UNL     1       4.823   5.011  17.971  0.00  0.00    +0.000 C 
BRANCH  15  16
ATOM     16  C   UNL     1       4.300   6.338  17.441  0.00  0.00    +0.000 C 
ATOM     17  O   UNL     1       4.687   6.794  16.365  0.00  0.00    +0.000 OA
ATOM     18  N   UNL     1       3.338   6.971  18.190  0.00  0.00    +0.000 N 
ATOM     19  C   UNL     1       2.708   8.200  17.707  0.00  0.00    +0.000 C 
ATOM     20  C   UNL     1       1.796   8.590  18.826  0.00  0.00    +0.000 A 
ATOM     21  C   UNL     1       0.927   9.666  18.901  0.00  0.00    +0.000 A 
ATOM     22  C   UNL     1       0.188   9.837  20.074  0.00  0.00    +0.000 A 
ATOM     23  C   UNL     1       0.329   8.943  21.148  0.00  0.00    +0.000 A 
ATOM     24  C   UNL     1       1.203   7.856  21.060  0.00  0.00    +0.000 A 
ATOM     25  C   UNL     1       1.924   7.690  19.891  0.00  0.00    +0.000 A 
ATOM     26  C   UNL     1       2.912   6.624  19.545  0.00  0.00    +0.000 C 
ENDBRANCH  15  16
ENDBRANCH  14  15
ENDBRANCH   1  14
TORSDOF 6
ENDMDL
MODEL 9
REMARK VINA RESULT:      -7.2      4.826      7.043
REMARK  Name = 
REMARK  6 active torsions:
REMARK  status: ('A' for Active; 'I' for Inactive)
REMARK    1  A    between atoms: N_3  and  C_4
REMARK    2  A    between atoms: C_4  and  C_5
REMARK    3  A    between atoms: C_5  and  C_6
REMARK    4  A    between atoms: C_6  and  C_7
REMARK    5  A    between atoms: N_18  and  C_19
REMARK    6  A    between atoms: C_19  and  C_20
REMARK                            x       y       z     vdW  Elec       q    Type
REMARK                         _______ _______ _______ _____ _____    ______ ____
ROOT
ATOM      1  C   UNL     1       7.360   7.094  17.890  0.00  0.00    +0.000 C 
ENDROOT
BRANCH   1   4
ATOM      2  O   UNL     1       9.063   8.984  19.158  0.00  0.00    +0.000 OA
ATOM      3  C   UNL     1       8.444   9.295  18.149  0.00  0.00    +0.000 C 
ATOM      4  N   UNL     1       7.617   8.453  17.461  0.00  0.00    +0.000 N 
ATOM      5  N   UNL     1       8.490  10.539  17.593  0.00  0.00    +0.000 N 
ATOM      6  H   UNL     1       7.112   8.810  16.664  0.00  0.00    +0.000 HD
ATOM      7  H   UNL     1       8.102  10.706  16.675  0.00  0.00    +0.000 HD
BRANCH   5   8
ATOM      8  C   UNL     1       9.331  11.580  18.143  0.00  0.00    +0.000 C 
BRANCH   8   9
ATOM      9  C   UNL     1       8.552  12.863  18.200  0.00  0.00    +0.000 A 
ATOM     10  N   UNL     1       7.602  13.207  17.346  0.00  0.00    +0.000 NA
ATOM     11  C   UNL     1       7.098  14.447  17.689  0.00  0.00    +0.000 A 
ATOM     12  C   UNL     1       7.671  15.039  18.793  0.00  0.00    +0.000 A 
ATOM     13  S   UNL     1       8.883  14.013  19.436  0.00  0.00    +0.000 S 
ENDBRANCH   8   9
ENDBRANCH   5   8
ENDBRANCH   1   4
BRANCH   1  14
ATOM     14  C   UNL     1       7.229   6.136  16.707  0.00  0.00    +0.000 C 
BRANCH  14  15
ATOM     15  C   UNL     1       5.811   6.137  16.133  0.00  0.00    +0.000 C 
BRANCH  15  16
ATOM     16  C   UNL     1       5.155   4.765  16.176  0.00  0.00    +0.000 C 
ATOM     17  O   UNL     1       5.460   3.884  15.372  0.00  0.00    +0.000 OA
ATOM     18  N   UNL     1       4.252   4.539  17.187  0.00  0.00    +0.000 N 
ATOM     19  C   UNL     1       3.649   3.218  17.364  0.00  0.00    +0.000 C 
ATOM     20  C   UNL     1       2.696   3.417  18.500  0.00  0.00    +0.000 A 
ATOM     21  C   UNL     1       1.872   2.488  19.113  0.00  0.00    +0.000 A 
ATOM     22  C   UNL     1       1.044   2.923  20.150  0.00  0.00    +0.000 A 
ATOM     23  C   UNL     1       1.046   4.268  20.554  0.00  0.00    +0.000 A 
ATOM     24  C   UNL     1       1.886   5.197  19.935  0.00  0.00    +0.000 A 
ATOM     25  C   UNL     1       2.709   4.754  18.914  0.00  0.00    +0.000 A 
ATOM     26  C   UNL     1       3.690   5.534  18.099  0.00  0.00    +0.000 C 
ENDBRANCH  15  16
ENDBRANCH  14  15
ENDBRANCH   1  14
TORSDOF 6
ENDMDL
