MODEL 1
REMARK VINA RESULT:      -5.4      0.000      0.000
REMARK  Name = 
REMARK  5 active torsions:
REMARK  status: ('A' for Active; 'I' for Inactive)
REMARK    1  A    between atoms: C_1  and  O_2
REMARK    2  A    between atoms: O_2  and  C_3
REMARK    3  A    between atoms: C_3  and  C_5
REMARK    4  A    between atoms: C_5  and  C_6
REMARK    5  A    between atoms: C_11  and  C_12
REMARK                            x       y       z     vdW  Elec       q    Type
REMARK                         _______ _______ _______ _____ _____    ______ ____
ROOT
ATOM      1  C   UNL     1       5.412   4.978  16.995  0.00  0.00    +0.000 A 
ATOM      2  S   UNL     1       4.158   3.873  17.380  0.00  0.00    +0.000 S 
ATOM      3  C   UNL     1       4.837   3.653  18.939  0.00  0.00    +0.000 A 
ATOM      4  N   UNL     1       4.318   2.776  19.813  0.00  0.00    +0.000 N 
ATOM      5  N   UNL     1       5.898   4.376  19.195  0.00  0.00    +0.000 NA
ATOM      6  C   UNL     1       6.242   5.139  18.092  0.00  0.00    +0.000 A 
ATOM      7  C   UNL     1       7.446   6.006  18.178  0.00  0.00    +0.000 C 
ATOM      8  H   UNL     1       3.771   2.016  19.429  0.00  0.00    +0.000 HD
ATOM      9  H   UNL     1       4.956   2.490  20.547  0.00  0.00    +0.000 HD
ENDROOT
BRANCH   1  10
ATOM     10  C   UNL     1       5.512   5.583  15.631  0.00  0.00    +0.000 C 
BRANCH  10  11
ATOM     11  C   UNL     1       6.624   4.919  14.844  0.00  0.00    +0.000 C 
ATOM     12  O   UNL     1       7.737   5.382  14.628  0.00  0.00    +0.000 OA
BRANCH  11  14
ATOM     13  C   UNL     1       6.181   3.622  12.954  0.00  0.00    +0.000 C 
ATOM     14  O   UNL     1       6.196   3.707  14.382  0.00  0.00    +0.000 OA
ENDBRANCH  11  14
ENDBRANCH  10  11
ENDBRANCH   1  10
TORSDOF 3
ENDMDL
MODEL 2
REMARK VINA RESULT:      -5.3      1.533      2.279
REMARK  Name = 
REMARK  5 active torsions:
REMARK  status: ('A' for Active; 'I' for Inactive)
REMARK    1  A    between atoms: C_1  and  O_2
REMARK    2  A    between atoms: O_2  and  C_3
REMARK    3  A    between atoms: C_3  and  C_5
REMARK    4  A    between atoms: C_5  and  C_6
REMARK    5  A    between atoms: C_11  and  C_12
REMARK                            x       y       z     vdW  Elec       q    Type
REMARK                         _______ _______ _______ _____ _____    ______ ____
ROOT
ATOM      1  C   UNL     1       6.057   5.283  16.825  0.00  0.00    +0.000 A 
ATOM      2  S   UNL     1       7.382   6.117  17.528  0.00  0.00    +0.000 S 
ATOM      3  C   UNL     1       7.085   5.323  19.017  0.00  0.00    +0.000 A 
ATOM      4  N   UNL     1       7.806   5.601  20.116  0.00  0.00    +0.000 N 
ATOM      5  N   UNL     1       6.103   4.458  19.006  0.00  0.00    +0.000 NA
ATOM      6  C   UNL     1       5.501   4.425  17.759  0.00  0.00    +0.000 A 
ATOM      7  C   UNL     1       4.338   3.522  17.557  0.00  0.00    +0.000 C 
ATOM      8  H   UNL     1       8.260   6.505  20.150  0.00  0.00    +0.000 HD
ATOM      9  H   UNL     1       7.360   5.335  20.986  0.00  0.00    +0.000 HD
ENDROOT
BRANCH   1  10
ATOM     10  C   UNL     1       5.636   5.558  15.417  0.00  0.00    +0.000 C 
BRANCH  10  11
ATOM     11  C   UNL     1       6.612   4.924  14.445  0.00  0.00    +0.000 C 
ATOM     12  O   UNL     1       7.663   5.412  14.051  0.00  0.00    +0.000 OA
BRANCH  11  14
ATOM     13  C   UNL     1       6.203   3.511  12.632  0.00  0.00    +0.000 C 
ATOM     14  O   UNL     1       6.134   3.707  14.047  0.00  0.00    +0.000 OA
ENDBRANCH  11  14
ENDBRANCH  10  11
ENDBRANCH   1  10
TORSDOF 3
ENDMDL
MODEL 3
REMARK VINA RESULT:      -5.3      4.166      5.471
REMARK  Name = 
REMARK  5 active torsions:
REMARK  status: ('A' for Active; 'I' for Inactive)
REMARK    1  A    between atoms: C_1  and  O_2
REMARK    2  A    between atoms: O_2  and  C_3
REMARK    3  A    between atoms: C_3  and  C_5
REMARK    4  A    between atoms: C_5  and  C_6
REMARK    5  A    between atoms: C_11  and  C_12
REMARK                            x       y       z     vdW  Elec       q    Type
REMARK                         _______ _______ _______ _____ _____    ______ ____
ROOT
ATOM      1  C   UNL     1       2.876   4.530  18.069  0.00  0.00    +0.000 A 
ATOM      2  S   UNL     1       4.068   3.301  18.173  0.00  0.00    +0.000 S 
ATOM      3  C   UNL     1       5.279   4.500  18.364  0.00  0.00    +0.000 A 
ATOM      4  N   UNL     1       6.580   4.175  18.446  0.00  0.00    +0.000 N 
ATOM      5  N   UNL     1       4.846   5.734  18.397  0.00  0.00    +0.000 NA
ATOM      6  C   UNL     1       3.472   5.770  18.227  0.00  0.00    +0.000 A 
ATOM      7  C   UNL     1       2.795   7.093  18.203  0.00  0.00    +0.000 C 
ATOM      8  H   UNL     1       6.858   3.289  18.044  0.00  0.00    +0.000 HD
ATOM      9  H   UNL     1       7.214   4.937  18.234  0.00  0.00    +0.000 HD
ENDROOT
BRANCH   1  10
ATOM     10  C   UNL     1       1.443   4.191  17.804  0.00  0.00    +0.000 C 
BRANCH  10  11
ATOM     11  C   UNL     1       0.911   3.279  18.892  0.00  0.00    +0.000 C 
ATOM     12  O   UNL     1       0.411   2.173  18.731  0.00  0.00    +0.000 OA
BRANCH  11  14
ATOM     13  C   UNL     1       1.375   2.971  21.159  0.00  0.00    +0.000 C 
ATOM     14  O   UNL     1       1.055   3.886  20.107  0.00  0.00    +0.000 OA
ENDBRANCH  11  14
ENDBRANCH  10  11
ENDBRANCH   1  10
TORSDOF 3
ENDMDL
MODEL 4
REMARK VINA RESULT:      -5.2      3.302      4.512
REMARK  Name = 
REMARK  5 active torsions:
REMARK  status: ('A' for Active; 'I' for Inactive)
REMARK    1  A    between atoms: C_1  and  O_2
REMARK    2  A    between atoms: O_2  and  C_3
REMARK    3  A    between atoms: C_3  and  C_5
REMARK    4  A    between atoms: C_5  and  C_6
REMARK    5  A    between atoms: C_11  and  C_12
REMARK                            x       y       z     vdW  Elec       q    Type
REMARK                         _______ _______ _______ _____ _____    ______ ____
ROOT
ATOM      1  C   UNL     1       5.615   5.318  18.015  0.00  0.00    +0.000 A 
ATOM      2  S   UNL     1       6.993   4.575  17.313  0.00  0.00    +0.000 S 
ATOM      3  C   UNL     1       6.778   5.523  15.901  0.00  0.00    +0.000 A 
ATOM      4  N   UNL     1       7.571   5.371  14.827  0.00  0.00    +0.000 N 
ATOM      5  N   UNL     1       5.784   6.373  15.942  0.00  0.00    +0.000 NA
ATOM      6  C   UNL     1       5.106   6.267  17.145  0.00  0.00    +0.000 A 
ATOM      7  C   UNL     1       3.918   7.133  17.367  0.00  0.00    +0.000 C 
ATOM      8  H   UNL     1       8.039   4.480  14.726  0.00  0.00    +0.000 HD
ATOM      9  H   UNL     1       7.175   5.725  13.964  0.00  0.00    +0.000 HD
ENDROOT
BRANCH   1  10
ATOM     10  C   UNL     1       5.110   4.890  19.356  0.00  0.00    +0.000 C 
BRANCH  10  11
ATOM     11  C   UNL     1       4.623   3.455  19.299  0.00  0.00    +0.000 C 
ATOM     12  O   UNL     1       5.007   2.530  20.003  0.00  0.00    +0.000 OA
BRANCH  11  14
ATOM     13  C   UNL     1       3.340   1.971  18.033  0.00  0.00    +0.000 C 
ATOM     14  O   UNL     1       3.686   3.330  18.313  0.00  0.00    +0.000 OA
ENDBRANCH  11  14
ENDBRANCH  10  11
ENDBRANCH   1  10
TORSDOF 3
ENDMDL
MODEL 5
REMARK VINA RESULT:      -5.1      3.041      4.259
REMARK  Name = 
REMARK  5 active torsions:
REMARK  status: ('A' for Active; 'I' for Inactive)
REMARK    1  A    between atoms: C_1  and  O_2
REMARK    2  A    between atoms: O_2  and  C_3
REMARK    3  A    between atoms: C_3  and  C_5
REMARK    4  A    between atoms: C_5  and  C_6
REMARK    5  A    between atoms: C_11  and  C_12
REMARK                            x       y       z     vdW  Elec       q    Type
REMARK                         _______ _______ _______ _____ _____    ______ ____
ROOT
ATOM      1  C   UNL     1       5.317   4.513  17.434  0.00  0.00    +0.000 A 
ATOM      2  S   UNL     1       5.615   5.003  19.051  0.00  0.00    +0.000 S 
ATOM      3  C   UNL     1       7.282   5.170  18.687  0.00  0.00    +0.000 A 
ATOM      4  N   UNL     1       8.177   5.502  19.632  0.00  0.00    +0.000 N 
ATOM      5  N   UNL     1       7.611   4.928  17.444  0.00  0.00    +0.000 NA
ATOM      6  C   UNL     1       6.498   4.548  16.713  0.00  0.00    +0.000 A 
ATOM      7  C   UNL     1       6.678   4.198  15.279  0.00  0.00    +0.000 C 
ATOM      8  H   UNL     1       7.924   5.302  20.592  0.00  0.00    +0.000 HD
ATOM      9  H   UNL     1       9.134   5.262  19.403  0.00  0.00    +0.000 HD
ENDROOT
BRANCH   1  10
ATOM     10  C   UNL     1       3.948   4.096  16.997  0.00  0.00    +0.000 C 
BRANCH  10  11
ATOM     11  C   UNL     1       3.409   3.022  17.922  0.00  0.00    +0.000 C 
ATOM     12  O   UNL     1       3.802   1.866  17.998  0.00  0.00    +0.000 OA
BRANCH  11  14
ATOM     13  C   UNL     1       1.186   2.758  18.584  0.00  0.00    +0.000 C 
ATOM     14  O   UNL     1       2.384   3.534  18.666  0.00  0.00    +0.000 OA
ENDBRANCH  11  14
ENDBRANCH  10  11
ENDBRANCH   1  10
TORSDOF 3
ENDMDL
MODEL 6
REMARK VINA RESULT:      -5.1      4.271      5.538
REMARK  Name = 
REMARK  5 active torsions:
REMARK  status: ('A' for Active; 'I' for Inactive)
REMARK    1  A    between atoms: C_1  and  O_2
REMARK    2  A    between atoms: O_2  and  C_3
REMARK    3  A    between atoms: C_3  and  C_5
REMARK    4  A    between atoms: C_5  and  C_6
REMARK    5  A    between atoms: C_11  and  C_12
REMARK                            x       y       z     vdW  Elec       q    Type
REMARK                         _______ _______ _______ _____ _____    ______ ____
ROOT
ATOM      1  C   UNL     1       3.301   4.749  18.490  0.00  0.00    +0.000 A 
ATOM      2  S   UNL     1       4.491   3.539  18.745  0.00  0.00    +0.000 S 
ATOM      3  C   UNL     1       5.716   4.665  18.332  0.00  0.00    +0.000 A 
ATOM      4  N   UNL     1       7.009   4.303  18.269  0.00  0.00    +0.000 N 
ATOM      5  N   UNL     1       5.299   5.875  18.064  0.00  0.00    +0.000 NA
ATOM      6  C   UNL     1       3.918   5.941  18.147  0.00  0.00    +0.000 A 
ATOM      7  C   UNL     1       3.250   7.234  17.843  0.00  0.00    +0.000 C 
ATOM      8  H   UNL     1       7.202   3.322  18.114  0.00  0.00    +0.000 HD
ATOM      9  H   UNL     1       7.589   4.925  17.720  0.00  0.00    +0.000 HD
ENDROOT
BRANCH   1  10
ATOM     10  C   UNL     1       1.845   4.433  18.611  0.00  0.00    +0.000 C 
BRANCH  10  11
ATOM     11  C   UNL     1       1.415   4.490  20.064  0.00  0.00    +0.000 C 
ATOM     12  O   UNL     1       1.507   5.456  20.810  0.00  0.00    +0.000 OA
BRANCH  11  14
ATOM     13  C   UNL     1       1.597   2.707  21.561  0.00  0.00    +0.000 C 
ATOM     14  O   UNL     1       0.914   3.276  20.440  0.00  0.00    +0.000 OA
ENDBRANCH  11  14
ENDBRANCH  10  11
ENDBRANCH   1  10
TORSDOF 3
ENDMDL
MODEL 7
REMARK VINA RESULT:      -5.1      3.332      4.704
REMARK  Name = 
REMARK  5 active torsions:
REMARK  status: ('A' for Active; 'I' for Inactive)
REMARK    1  A    between atoms: C_1  and  O_2
REMARK    2  A    between atoms: O_2  and  C_3
REMARK    3  A    between atoms: C_3  and  C_5
REMARK    4  A    between atoms: C_5  and  C_6
REMARK    5  A    between atoms: C_11  and  C_12
REMARK                            x       y       z     vdW  Elec       q    Type
REMARK                         _______ _______ _______ _____ _____    ______ ____
ROOT
ATOM      1  C   UNL     1       4.761   4.559  16.719  0.00  0.00    +0.000 A 
ATOM      2  S   UNL     1       5.934   3.790  15.731  0.00  0.00    +0.000 S 
ATOM      3  C   UNL     1       6.566   5.323  15.297  0.00  0.00    +0.000 A 
ATOM      4  N   UNL     1       7.566   5.443  14.408  0.00  0.00    +0.000 N 
ATOM      5  N   UNL     1       5.991   6.349  15.869  0.00  0.00    +0.000 NA
ATOM      6  C   UNL     1       4.953   5.930  16.685  0.00  0.00    +0.000 A 
ATOM      7  C   UNL     1       4.154   6.960  17.400  0.00  0.00    +0.000 C 
ATOM      8  H   UNL     1       7.690   4.682  13.752  0.00  0.00    +0.000 HD
ATOM      9  H   UNL     1       7.643   6.362  13.988  0.00  0.00    +0.000 HD
ENDROOT
BRANCH   1  10
ATOM     10  C   UNL     1       3.712   3.764  17.429  0.00  0.00    +0.000 C 
BRANCH  10  11
ATOM     11  C   UNL     1       4.104   3.560  18.880  0.00  0.00    +0.000 C 
ATOM     12  O   UNL     1       5.243   3.529  19.327  0.00  0.00    +0.000 OA
BRANCH  11  14
ATOM     13  C   UNL     1       2.208   2.249  19.256  0.00  0.00    +0.000 C 
ATOM     14  O   UNL     1       2.979   3.392  19.637  0.00  0.00    +0.000 OA
ENDBRANCH  11  14
ENDBRANCH  10  11
ENDBRANCH   1  10
TORSDOF 3
ENDMDL
MODEL 8
REMARK VINA RESULT:      -5.1      2.225      2.657
REMARK  Name = 
REMARK  5 active torsions:
REMARK  status: ('A' for Active; 'I' for Inactive)
REMARK    1  A    between atoms: C_1  and  O_2
REMARK    2  A    between atoms: O_2  and  C_3
REMARK    3  A    between atoms: C_3  and  C_5
REMARK    4  A    between atoms: C_5  and  C_6
REMARK    5  A    between atoms: C_11  and  C_12
REMARK                            x       y       z     vdW  Elec       q    Type
REMARK                         _______ _______ _______ _____ _____    ______ ____
ROOT
ATOM      1  C   UNL     1       4.690   4.645  17.957  0.00  0.00    +0.000 A 
ATOM      2  S   UNL     1       4.101   3.697  19.259  0.00  0.00    +0.000 S 
ATOM      3  C   UNL     1       3.248   5.058  19.859  0.00  0.00    +0.000 A 
ATOM      4  N   UNL     1       2.558   5.002  21.010  0.00  0.00    +0.000 N 
ATOM      5  N   UNL     1       3.343   6.143  19.133  0.00  0.00    +0.000 NA
ATOM      6  C   UNL     1       4.167   5.925  18.041  0.00  0.00    +0.000 A 
ATOM      7  C   UNL     1       4.425   7.055  17.111  0.00  0.00    +0.000 C 
ATOM      8  H   UNL     1       2.835   4.293  21.676  0.00  0.00    +0.000 HD
ATOM      9  H   UNL     1       2.373   5.906  21.429  0.00  0.00    +0.000 HD
ENDROOT
BRANCH   1  10
ATOM     10  C   UNL     1       5.652   4.075  16.964  0.00  0.00    +0.000 C 
BRANCH  10  11
ATOM     11  C   UNL     1       7.071   4.474  17.322  0.00  0.00    +0.000 C 
ATOM     12  O   UNL     1       7.501   4.689  18.447  0.00  0.00    +0.000 OA
BRANCH  11  14
ATOM     13  C   UNL     1       7.031   4.844  15.017  0.00  0.00    +0.000 C 
ATOM     14  O   UNL     1       7.817   4.579  16.183  0.00  0.00    +0.000 OA
ENDBRANCH  11  14
ENDBRANCH  10  11
ENDBRANCH   1  10
TORSDOF 3
ENDMDL
MODEL 9
REMARK VINA RESULT:      -5.1      3.245      4.211
REMARK  Name = 
REMARK  5 active torsions:
REMARK  status: ('A' for Active; 'I' for Inactive)
REMARK    1  A    between atoms: C_1  and  O_2
REMARK    2  A    between atoms: O_2  and  C_3
REMARK    3  A    between atoms: C_3  and  C_5
REMARK    4  A    between atoms: C_5  and  C_6
REMARK    5  A    between atoms: C_11  and  C_12
REMARK                            x       y       z     vdW  Elec       q    Type
REMARK                         _______ _______ _______ _____ _____    ______ ____
ROOT
ATOM      1  C   UNL     1       3.435   3.362  18.860  0.00  0.00    +0.000 A 
ATOM      2  S   UNL     1       3.746   2.583  20.356  0.00  0.00    +0.000 S 
ATOM      3  C   UNL     1       2.117   2.843  20.824  0.00  0.00    +0.000 A 
ATOM      4  N   UNL     1       1.672   2.488  22.041  0.00  0.00    +0.000 N 
ATOM      5  N   UNL     1       1.363   3.426  19.928  0.00  0.00    +0.000 NA
ATOM      6  C   UNL     1       2.103   3.733  18.798  0.00  0.00    +0.000 A 
ATOM      7  C   UNL     1       1.424   4.433  17.676  0.00  0.00    +0.000 C 
ATOM      8  H   UNL     1       2.363   2.406  22.775  0.00  0.00    +0.000 HD
ATOM      9  H   UNL     1       0.824   2.961  22.328  0.00  0.00    +0.000 HD
ENDROOT
BRANCH   1  10
ATOM     10  C   UNL     1       4.531   3.586  17.867  0.00  0.00    +0.000 C 
BRANCH  10  11
ATOM     11  C   UNL     1       5.351   4.800  18.258  0.00  0.00    +0.000 C 
ATOM     12  O   UNL     1       4.981   5.966  18.226  0.00  0.00    +0.000 OA
BRANCH  11  14
ATOM     13  C   UNL     1       7.594   4.613  17.636  0.00  0.00    +0.000 C 
ATOM     14  O   UNL     1       6.600   4.403  18.643  0.00  0.00    +0.000 OA
ENDBRANCH  11  14
ENDBRANCH  10  11
ENDBRANCH   1  10
TORSDOF 3
ENDMDL
