MODEL 1
REMARK VINA RESULT:      -6.7      0.000      0.000
REMARK  Name = 
REMARK  4 active torsions:
REMARK  status: ('A' for Active; 'I' for Inactive)
REMARK    1  A    between atoms: C_1  and  N_2
REMARK    2  A    between atoms: C_3  and  C_5
REMARK    3  A    between atoms: C_9  and  O_10
REMARK    4  A    between atoms: O_10  and  C_11
REMARK                            x       y       z     vdW  Elec       q    Type
REMARK                         _______ _______ _______ _____ _____    ______ ____
ROOT
ATOM      1  C   UNL     1       6.062   3.932  13.585  0.00  0.00    +0.000 A 
ATOM      2  C   UNL     1       7.120   4.817  13.672  0.00  0.00    +0.000 A 
ATOM      3  N   UNL     1       7.386   5.557  14.779  0.00  0.00    +0.000 NA
ATOM      4  C   UNL     1       6.589   5.428  15.871  0.00  0.00    +0.000 A 
ATOM      5  C   UNL     1       6.809   6.171  17.049  0.00  0.00    +0.000 A 
ATOM      6  C   UNL     1       5.969   6.022  18.163  0.00  0.00    +0.000 A 
ATOM      7  C   UNL     1       4.899   5.133  18.124  0.00  0.00    +0.000 A 
ATOM      8  C   UNL     1       4.659   4.394  16.973  0.00  0.00    +0.000 A 
ATOM      9  C   UNL     1       5.491   4.537  15.853  0.00  0.00    +0.000 A 
ATOM     10  C   UNL     1       5.239   3.792  14.696  0.00  0.00    +0.000 A 
ENDROOT
BRANCH   1  13
ATOM     11  C   UNL     1       6.658   1.459  10.798  0.00  0.00    +0.000 C 
ATOM     12  N   UNL     1       6.816   2.289  11.965  0.00  0.00    +0.000 N 
ATOM     13  C   UNL     1       5.808   3.159  12.346  0.00  0.00    +0.000 C 
ATOM     14  O   UNL     1       4.761   3.291  11.740  0.00  0.00    +0.000 OA
ATOM     15  H   UNL     1       7.567   2.072  12.603  0.00  0.00    +0.000 HD
ENDBRANCH   1  13
BRANCH   5  16
ATOM     16  O   UNL     1       7.884   7.035  17.020  0.00  0.00    +0.000 OA
ATOM     17  C   UNL     1       7.724   8.312  17.622  0.00  0.00    +0.000 C 
ENDBRANCH   5  16
TORSDOF 2
ENDMDL
MODEL 2
REMARK VINA RESULT:      -6.6      3.402      5.031
REMARK  Name = 
REMARK  4 active torsions:
REMARK  status: ('A' for Active; 'I' for Inactive)
REMARK    1  A    between atoms: C_1  and  N_2
REMARK    2  A    between atoms: C_3  and  C_5
REMARK    3  A    between atoms: C_9  and  O_10
REMARK    4  A    between atoms: O_10  and  C_11
REMARK                            x       y       z     vdW  Elec       q    Type
REMARK                         _______ _______ _______ _____ _____    ______ ____
ROOT
ATOM      1  C   UNL     1       5.328   4.439  17.273  0.00  0.00    +0.000 A 
ATOM      2  C   UNL     1       5.240   5.288  18.360  0.00  0.00    +0.000 A 
ATOM      3  N   UNL     1       4.219   5.257  19.253  0.00  0.00    +0.000 NA
ATOM      4  C   UNL     1       3.226   4.346  19.094  0.00  0.00    +0.000 A 
ATOM      5  C   UNL     1       2.135   4.265  19.984  0.00  0.00    +0.000 A 
ATOM      6  C   UNL     1       1.119   3.315  19.796  0.00  0.00    +0.000 A 
ATOM      7  C   UNL     1       1.172   2.431  18.721  0.00  0.00    +0.000 A 
ATOM      8  C   UNL     1       2.233   2.495  17.828  0.00  0.00    +0.000 A 
ATOM      9  C   UNL     1       3.252   3.441  18.006  0.00  0.00    +0.000 A 
ATOM     10  C   UNL     1       4.316   3.501  17.099  0.00  0.00    +0.000 A 
ENDROOT
BRANCH   1  13
ATOM     11  C   UNL     1       7.130   4.794  13.978  0.00  0.00    +0.000 C 
ATOM     12  N   UNL     1       6.111   4.661  14.987  0.00  0.00    +0.000 N 
ATOM     13  C   UNL     1       6.458   4.525  16.320  0.00  0.00    +0.000 C 
ATOM     14  O   UNL     1       7.608   4.494  16.721  0.00  0.00    +0.000 OA
ATOM     15  H   UNL     1       5.159   4.881  14.730  0.00  0.00    +0.000 HD
ENDBRANCH   1  13
BRANCH   5  16
ATOM     16  O   UNL     1       2.142   5.170  21.024  0.00  0.00    +0.000 OA
ATOM     17  C   UNL     1       1.459   6.402  20.836  0.00  0.00    +0.000 C 
ENDBRANCH   5  16
TORSDOF 2
ENDMDL
MODEL 3
REMARK VINA RESULT:      -6.6      2.866      4.036
REMARK  Name = 
REMARK  4 active torsions:
REMARK  status: ('A' for Active; 'I' for Inactive)
REMARK    1  A    between atoms: C_1  and  N_2
REMARK    2  A    between atoms: C_3  and  C_5
REMARK    3  A    between atoms: C_9  and  O_10
REMARK    4  A    between atoms: O_10  and  C_11
REMARK                            x       y       z     vdW  Elec       q    Type
REMARK                         _______ _______ _______ _____ _____    ______ ____
ROOT
ATOM      1  C   UNL     1       5.671   4.825  15.561  0.00  0.00    +0.000 A 
ATOM      2  C   UNL     1       5.289   3.687  16.246  0.00  0.00    +0.000 A 
ATOM      3  N   UNL     1       4.436   3.701  17.302  0.00  0.00    +0.000 NA
ATOM      4  C   UNL     1       3.912   4.882  17.717  0.00  0.00    +0.000 A 
ATOM      5  C   UNL     1       3.024   4.963  18.810  0.00  0.00    +0.000 A 
ATOM      6  C   UNL     1       2.498   6.198  19.221  0.00  0.00    +0.000 A 
ATOM      7  C   UNL     1       2.846   7.369  18.553  0.00  0.00    +0.000 A 
ATOM      8  C   UNL     1       3.723   7.314  17.478  0.00  0.00    +0.000 A 
ATOM      9  C   UNL     1       4.255   6.087  17.059  0.00  0.00    +0.000 A 
ATOM     10  C   UNL     1       5.141   6.041  15.978  0.00  0.00    +0.000 A 
ENDROOT
BRANCH   1  13
ATOM     11  C   UNL     1       7.051   3.845  12.190  0.00  0.00    +0.000 C 
ATOM     12  N   UNL     1       6.226   3.955  13.365  0.00  0.00    +0.000 N 
ATOM     13  C   UNL     1       6.617   4.756  14.424  0.00  0.00    +0.000 C 
ATOM     14  O   UNL     1       7.655   5.393  14.444  0.00  0.00    +0.000 OA
ATOM     15  H   UNL     1       5.277   3.612  13.311  0.00  0.00    +0.000 HD
ENDBRANCH   1  13
BRANCH   5  16
ATOM     16  O   UNL     1       2.724   3.768  19.427  0.00  0.00    +0.000 OA
ATOM     17  C   UNL     1       1.376   3.322  19.390  0.00  0.00    +0.000 C 
ENDBRANCH   5  16
TORSDOF 2
ENDMDL
MODEL 4
REMARK VINA RESULT:      -6.6      2.844      3.821
REMARK  Name = 
REMARK  4 active torsions:
REMARK  status: ('A' for Active; 'I' for Inactive)
REMARK    1  A    between atoms: C_1  and  N_2
REMARK    2  A    between atoms: C_3  and  C_5
REMARK    3  A    between atoms: C_9  and  O_10
REMARK    4  A    between atoms: O_10  and  C_11
REMARK                            x       y       z     vdW  Elec       q    Type
REMARK                         _______ _______ _______ _____ _____    ______ ____
ROOT
ATOM      1  C   UNL     1       5.346   5.137  15.795  0.00  0.00    +0.000 A 
ATOM      2  C   UNL     1       5.119   6.440  16.192  0.00  0.00    +0.000 A 
ATOM      3  N   UNL     1       4.259   6.780  17.186  0.00  0.00    +0.000 NA
ATOM      4  C   UNL     1       3.584   5.803  17.843  0.00  0.00    +0.000 A 
ATOM      5  C   UNL     1       2.673   6.091  18.881  0.00  0.00    +0.000 A 
ATOM      6  C   UNL     1       1.986   5.062  19.543  0.00  0.00    +0.000 A 
ATOM      7  C   UNL     1       2.192   3.733  19.184  0.00  0.00    +0.000 A 
ATOM      8  C   UNL     1       3.080   3.425  18.161  0.00  0.00    +0.000 A 
ATOM      9  C   UNL     1       3.771   4.445  17.493  0.00  0.00    +0.000 A 
ATOM     10  C   UNL     1       4.660   4.127  16.460  0.00  0.00    +0.000 A 
ENDROOT
BRANCH   1  13
ATOM     11  C   UNL     1       6.602   3.661  12.558  0.00  0.00    +0.000 C 
ATOM     12  N   UNL     1       5.787   4.000  13.697  0.00  0.00    +0.000 N 
ATOM     13  C   UNL     1       6.285   4.821  14.694  0.00  0.00    +0.000 C 
ATOM     14  O   UNL     1       7.410   5.288  14.689  0.00  0.00    +0.000 OA
ATOM     15  H   UNL     1       4.798   3.806  13.646  0.00  0.00    +0.000 HD
ENDBRANCH   1  13
BRANCH   5  16
ATOM     16  O   UNL     1       2.513   7.427  19.183  0.00  0.00    +0.000 OA
ATOM     17  C   UNL     1       1.767   7.758  20.346  0.00  0.00    +0.000 C 
ENDBRANCH   5  16
TORSDOF 2
ENDMDL
MODEL 5
REMARK VINA RESULT:      -6.6      3.624      5.759
REMARK  Name = 
REMARK  4 active torsions:
REMARK  status: ('A' for Active; 'I' for Inactive)
REMARK    1  A    between atoms: C_1  and  N_2
REMARK    2  A    between atoms: C_3  and  C_5
REMARK    3  A    between atoms: C_9  and  O_10
REMARK    4  A    between atoms: O_10  and  C_11
REMARK                            x       y       z     vdW  Elec       q    Type
REMARK                         _______ _______ _______ _____ _____    ______ ____
ROOT
ATOM      1  C   UNL     1       3.678   3.538  18.743  0.00  0.00    +0.000 A 
ATOM      2  C   UNL     1       3.566   3.646  17.370  0.00  0.00    +0.000 A 
ATOM      3  N   UNL     1       4.433   4.354  16.602  0.00  0.00    +0.000 NA
ATOM      4  C   UNL     1       5.476   4.989  17.193  0.00  0.00    +0.000 A 
ATOM      5  C   UNL     1       6.409   5.745  16.452  0.00  0.00    +0.000 A 
ATOM      6  C   UNL     1       7.478   6.395  17.088  0.00  0.00    +0.000 A 
ATOM      7  C   UNL     1       7.636   6.305  18.468  0.00  0.00    +0.000 A 
ATOM      8  C   UNL     1       6.728   5.571  19.219  0.00  0.00    +0.000 A 
ATOM      9  C   UNL     1       5.656   4.919  18.595  0.00  0.00    +0.000 A 
ATOM     10  C   UNL     1       4.742   4.186  19.360  0.00  0.00    +0.000 A 
ENDROOT
BRANCH   1  13
ATOM     11  C   UNL     1       1.499   2.568  21.666  0.00  0.00    +0.000 C 
ATOM     12  N   UNL     1       2.464   3.223  20.820  0.00  0.00    +0.000 N 
ATOM     13  C   UNL     1       2.695   2.764  19.535  0.00  0.00    +0.000 C 
ATOM     14  O   UNL     1       2.130   1.801  19.048  0.00  0.00    +0.000 OA
ATOM     15  H   UNL     1       2.803   4.131  21.103  0.00  0.00    +0.000 HD
ENDBRANCH   1  13
BRANCH   5  16
ATOM     16  O   UNL     1       6.192   5.796  15.092  0.00  0.00    +0.000 OA
ATOM     17  C   UNL     1       6.899   4.875  14.272  0.00  0.00    +0.000 C 
ENDBRANCH   5  16
TORSDOF 2
ENDMDL
MODEL 6
REMARK VINA RESULT:      -6.6      3.552      5.566
REMARK  Name = 
REMARK  4 active torsions:
REMARK  status: ('A' for Active; 'I' for Inactive)
REMARK    1  A    between atoms: C_1  and  N_2
REMARK    2  A    between atoms: C_3  and  C_5
REMARK    3  A    between atoms: C_9  and  O_10
REMARK    4  A    between atoms: O_10  and  C_11
REMARK                            x       y       z     vdW  Elec       q    Type
REMARK                         _______ _______ _______ _____ _____    ______ ____
ROOT
ATOM      1  C   UNL     1       3.855   3.471  18.765  0.00  0.00    +0.000 A 
ATOM      2  C   UNL     1       4.751   4.293  19.422  0.00  0.00    +0.000 A 
ATOM      3  N   UNL     1       5.763   4.946  18.797  0.00  0.00    +0.000 NA
ATOM      4  C   UNL     1       5.915   4.807  17.456  0.00  0.00    +0.000 A 
ATOM      5  C   UNL     1       6.949   5.455  16.749  0.00  0.00    +0.000 A 
ATOM      6  C   UNL     1       7.086   5.292  15.361  0.00  0.00    +0.000 A 
ATOM      7  C   UNL     1       6.199   4.483  14.656  0.00  0.00    +0.000 A 
ATOM      8  C   UNL     1       5.176   3.830  15.332  0.00  0.00    +0.000 A 
ATOM      9  C   UNL     1       5.031   3.985  16.717  0.00  0.00    +0.000 A 
ATOM     10  C   UNL     1       4.000   3.320  17.391  0.00  0.00    +0.000 A 
ENDROOT
BRANCH   1  13
ATOM     11  C   UNL     1       1.464   2.650  21.566  0.00  0.00    +0.000 C 
ATOM     12  N   UNL     1       2.519   3.233  20.777  0.00  0.00    +0.000 N 
ATOM     13  C   UNL     1       2.775   2.770  19.498  0.00  0.00    +0.000 C 
ATOM     14  O   UNL     1       2.161   1.860  18.971  0.00  0.00    +0.000 OA
ATOM     15  H   UNL     1       2.915   4.109  21.089  0.00  0.00    +0.000 HD
ENDBRANCH   1  13
BRANCH   5  16
ATOM     16  O   UNL     1       7.794   6.237  17.507  0.00  0.00    +0.000 OA
ATOM     17  C   UNL     1       7.581   7.642  17.499  0.00  0.00    +0.000 C 
ENDBRANCH   5  16
TORSDOF 2
ENDMDL
MODEL 7
REMARK VINA RESULT:      -6.5      1.284      1.284
REMARK  Name = 
REMARK  4 active torsions:
REMARK  status: ('A' for Active; 'I' for Inactive)
REMARK    1  A    between atoms: C_1  and  N_2
REMARK    2  A    between atoms: C_3  and  C_5
REMARK    3  A    between atoms: C_9  and  O_10
REMARK    4  A    between atoms: O_10  and  C_11
REMARK                            x       y       z     vdW  Elec       q    Type
REMARK                         _______ _______ _______ _____ _____    ______ ____
ROOT
ATOM      1  C   UNL     1       6.158   4.134  14.082  0.00  0.00    +0.000 A 
ATOM      2  C   UNL     1       7.207   5.007  14.299  0.00  0.00    +0.000 A 
ATOM      3  N   UNL     1       7.483   5.559  15.508  0.00  0.00    +0.000 NA
ATOM      4  C   UNL     1       6.706   5.244  16.575  0.00  0.00    +0.000 A 
ATOM      5  C   UNL     1       6.937   5.787  17.855  0.00  0.00    +0.000 A 
ATOM      6  C   UNL     1       6.116   5.446  18.942  0.00  0.00    +0.000 A 
ATOM      7  C   UNL     1       5.055   4.562  18.773  0.00  0.00    +0.000 A 
ATOM      8  C   UNL     1       4.804   4.018  17.520  0.00  0.00    +0.000 A 
ATOM      9  C   UNL     1       5.616   4.352  16.427  0.00  0.00    +0.000 A 
ATOM     10  C   UNL     1       5.354   3.803  15.167  0.00  0.00    +0.000 A 
ENDROOT
BRANCH   1  13
ATOM     11  C   UNL     1       4.188   2.988  11.075  0.00  0.00    +0.000 C 
ATOM     12  N   UNL     1       4.559   3.484  12.376  0.00  0.00    +0.000 N 
ATOM     13  C   UNL     1       5.892   3.570  12.738  0.00  0.00    +0.000 C 
ATOM     14  O   UNL     1       6.814   3.233  12.017  0.00  0.00    +0.000 OA
ATOM     15  H   UNL     1       3.853   3.958  12.922  0.00  0.00    +0.000 HD
ENDBRANCH   1  13
BRANCH   5  16
ATOM     16  O   UNL     1       8.001   6.658  17.953  0.00  0.00    +0.000 OA
ATOM     17  C   UNL     1       7.745   8.042  17.758  0.00  0.00    +0.000 C 
ENDBRANCH   5  16
TORSDOF 2
ENDMDL
MODEL 8
REMARK VINA RESULT:      -6.5      3.623      5.220
REMARK  Name = 
REMARK  4 active torsions:
REMARK  status: ('A' for Active; 'I' for Inactive)
REMARK    1  A    between atoms: C_1  and  N_2
REMARK    2  A    between atoms: C_3  and  C_5
REMARK    3  A    between atoms: C_9  and  O_10
REMARK    4  A    between atoms: O_10  and  C_11
REMARK                            x       y       z     vdW  Elec       q    Type
REMARK                         _______ _______ _______ _____ _____    ______ ____
ROOT
ATOM      1  C   UNL     1       4.546   5.009  16.755  0.00  0.00    +0.000 A 
ATOM      2  C   UNL     1       4.203   3.724  17.127  0.00  0.00    +0.000 A 
ATOM      3  N   UNL     1       3.387   3.442  18.175  0.00  0.00    +0.000 NA
ATOM      4  C   UNL     1       2.863   4.461  18.902  0.00  0.00    +0.000 A 
ATOM      5  C   UNL     1       2.014   4.234  20.004  0.00  0.00    +0.000 A 
ATOM      6  C   UNL     1       1.487   5.306  20.742  0.00  0.00    +0.000 A 
ATOM      7  C   UNL     1       1.796   6.618  20.395  0.00  0.00    +0.000 A 
ATOM      8  C   UNL     1       2.635   6.866  19.317  0.00  0.00    +0.000 A 
ATOM      9  C   UNL     1       3.168   5.803  18.574  0.00  0.00    +0.000 A 
ATOM     10  C   UNL     1       4.016   6.062  17.492  0.00  0.00    +0.000 A 
ENDROOT
BRANCH   1  13
ATOM     11  C   UNL     1       6.644   4.285  13.704  0.00  0.00    +0.000 C 
ATOM     12  N   UNL     1       5.799   4.149  14.863  0.00  0.00    +0.000 N 
ATOM     13  C   UNL     1       5.452   5.262  15.610  0.00  0.00    +0.000 C 
ATOM     14  O   UNL     1       5.832   6.391  15.361  0.00  0.00    +0.000 OA
ATOM     15  H   UNL     1       5.303   3.278  14.988  0.00  0.00    +0.000 HD
ENDBRANCH   1  13
BRANCH   5  16
ATOM     16  O   UNL     1       1.751   2.912  20.295  0.00  0.00    +0.000 OA
ATOM     17  C   UNL     1       1.619   2.547  21.662  0.00  0.00    +0.000 C 
ENDBRANCH   5  16
TORSDOF 2
ENDMDL
MODEL 9
REMARK VINA RESULT:      -6.5      3.247      4.706
REMARK  Name = 
REMARK  4 active torsions:
REMARK  status: ('A' for Active; 'I' for Inactive)
REMARK    1  A    between atoms: C_1  and  N_2
REMARK    2  A    between atoms: C_3  and  C_5
REMARK    3  A    between atoms: C_9  and  O_10
REMARK    4  A    between atoms: O_10  and  C_11
REMARK                            x       y       z     vdW  Elec       q    Type
REMARK                         _______ _______ _______ _____ _____    ______ ____
ROOT
ATOM      1  C   UNL     1       5.358   5.011  16.744  0.00  0.00    +0.000 A 
ATOM      2  C   UNL     1       5.081   4.137  17.778  0.00  0.00    +0.000 A 
ATOM      3  N   UNL     1       4.212   4.419  18.783  0.00  0.00    +0.000 NA
ATOM      4  C   UNL     1       3.564   5.612  18.785  0.00  0.00    +0.000 A 
ATOM      5  C   UNL     1       2.654   5.967  19.801  0.00  0.00    +0.000 A 
ATOM      6  C   UNL     1       1.998   7.208  19.781  0.00  0.00    +0.000 A 
ATOM      7  C   UNL     1       2.238   8.115  18.753  0.00  0.00    +0.000 A 
ATOM      8  C   UNL     1       3.135   7.790  17.743  0.00  0.00    +0.000 A 
ATOM      9  C   UNL     1       3.796   6.553  17.754  0.00  0.00    +0.000 A 
ATOM     10  C   UNL     1       4.701   6.236  16.736  0.00  0.00    +0.000 A 
ENDROOT
BRANCH   1  13
ATOM     11  C   UNL     1       6.626   3.993  13.340  0.00  0.00    +0.000 C 
ATOM     12  N   UNL     1       5.776   4.316  14.457  0.00  0.00    +0.000 N 
ATOM     13  C   UNL     1       6.326   4.658  15.680  0.00  0.00    +0.000 C 
ATOM     14  O   UNL     1       7.524   4.696  15.897  0.00  0.00    +0.000 OA
ATOM     15  H   UNL     1       4.798   4.492  14.273  0.00  0.00    +0.000 HD
ENDBRANCH   1  13
BRANCH   5  16
ATOM     16  O   UNL     1       2.465   5.026  20.791  0.00  0.00    +0.000 OA
ATOM     17  C   UNL     1       1.351   4.152  20.671  0.00  0.00    +0.000 C 
ENDBRANCH   5  16
TORSDOF 2
ENDMDL
