MODEL 1
REMARK VINA RESULT:      -7.5      0.000      0.000
REMARK  Name = 
REMARK  8 active torsions:
REMARK  status: ('A' for Active; 'I' for Inactive)
REMARK    1  A    between atoms: C_1  and  C_2
REMARK    2  A    between atoms: N_4  and  C_5
REMARK    3  A    between atoms: C_7  and  S_8
REMARK    4  A    between atoms: S_8  and  C_9
REMARK    5  A    between atoms: C_9  and  C_10
REMARK    6  A    between atoms: C_10  and  O_12
REMARK    7  A    between atoms: C_13  and  C_14
REMARK    8  A    between atoms: C_14  and  O_15
REMARK                            x       y       z     vdW  Elec       q    Type
REMARK                         _______ _______ _______ _____ _____    ______ ____
ROOT
ATOM      1  C   UNL     1       5.707   4.464  18.709  0.00  0.00    +0.000 C 
ATOM      2  C   UNL     1       4.575   5.380  19.165  0.00  0.00    +0.000 C 
ATOM      3  C   UNL     1       3.346   4.662  18.654  0.00  0.00    +0.000 C 
ATOM      4  C   UNL     1       3.726   3.202  18.897  0.00  0.00    +0.000 C 
ATOM      5  O   UNL     1       5.171   3.123  18.782  0.00  0.00    +0.000 OA
ENDROOT
BRANCH   1   9
ATOM      6  C   UNL     1       5.698   3.490  13.825  0.00  0.00    +0.000 C 
ATOM      7  C   UNL     1       6.181   4.251  15.017  0.00  0.00    +0.000 A 
ATOM      8  C   UNL     1       5.762   4.014  16.264  0.00  0.00    +0.000 A 
ATOM      9  N   UNL     1       6.194   4.747  17.355  0.00  0.00    +0.000 N 
ATOM     10  C   UNL     1       7.183   5.720  17.217  0.00  0.00    +0.000 A 
ATOM     11  O   UNL     1       7.663   6.345  18.156  0.00  0.00    +0.000 OA
ATOM     12  N   UNL     1       7.609   5.957  15.936  0.00  0.00    +0.000 N 
ATOM     13  C   UNL     1       7.175   5.325  14.807  0.00  0.00    +0.000 A 
ATOM     14  O   UNL     1       7.591   5.615  13.691  0.00  0.00    +0.000 OA
ATOM     15  H   UNL     1       8.301   6.681  15.815  0.00  0.00    +0.000 HD
ENDBRANCH   1   9
BRANCH   3  16
ATOM     16  S   UNL     1       1.801   5.156  19.506  0.00  0.00    +0.000 S 
BRANCH  16  17
ATOM     17  C   UNL     1       2.233   4.703  21.223  0.00  0.00    +0.000 C 
BRANCH  17  18
ATOM     18  C   UNL     1       1.855   3.268  21.507  0.00  0.00    +0.000 C 
ATOM     19  O   UNL     1       2.508   2.516  22.215  0.00  0.00    +0.000 OA
BRANCH  18  20
ATOM     20  O   UNL     1       0.701   2.886  20.911  0.00  0.00    +0.000 OA
ATOM     21  H   UNL     1       0.227   3.640  20.503  0.00  0.00    +0.000 HD
ENDBRANCH  18  20
ENDBRANCH  17  18
ENDBRANCH  16  17
ENDBRANCH   3  16
BRANCH   4  22
ATOM     22  C   UNL     1       3.086   2.245  17.887  0.00  0.00    +0.000 C 
BRANCH  22  23
ATOM     23  O   UNL     1       2.043   1.495  18.504  0.00  0.00    +0.000 OA
ATOM     24  H   UNL     1       2.224   1.504  19.462  0.00  0.00    +0.000 HD
ENDBRANCH  22  23
ENDBRANCH   4  22
TORSDOF 7
ENDMDL
MODEL 2
REMARK VINA RESULT:      -7.1      1.069      1.278
REMARK  Name = 
REMARK  8 active torsions:
REMARK  status: ('A' for Active; 'I' for Inactive)
REMARK    1  A    between atoms: C_1  and  C_2
REMARK    2  A    between atoms: N_4  and  C_5
REMARK    3  A    between atoms: C_7  and  S_8
REMARK    4  A    between atoms: S_8  and  C_9
REMARK    5  A    between atoms: C_9  and  C_10
REMARK    6  A    between atoms: C_10  and  O_12
REMARK    7  A    between atoms: C_13  and  C_14
REMARK    8  A    between atoms: C_14  and  O_15
REMARK                            x       y       z     vdW  Elec       q    Type
REMARK                         _______ _______ _______ _____ _____    ______ ____
ROOT
ATOM      1  C   UNL     1       5.134   4.742  18.487  0.00  0.00    +0.000 C 
ATOM      2  C   UNL     1       3.657   5.122  18.446  0.00  0.00    +0.000 C 
ATOM      3  C   UNL     1       2.999   3.835  18.003  0.00  0.00    +0.000 C 
ATOM      4  C   UNL     1       3.832   2.797  18.752  0.00  0.00    +0.000 C 
ATOM      5  O   UNL     1       5.165   3.356  18.895  0.00  0.00    +0.000 OA
ENDROOT
BRANCH   1   9
ATOM      6  C   UNL     1       5.570   3.693  13.637  0.00  0.00    +0.000 C 
ATOM      7  C   UNL     1       6.023   4.382  14.883  0.00  0.00    +0.000 A 
ATOM      8  C   UNL     1       5.417   4.244  16.067  0.00  0.00    +0.000 A 
ATOM      9  N   UNL     1       5.829   4.913  17.205  0.00  0.00    +0.000 N 
ATOM     10  C   UNL     1       6.980   5.699  17.197  0.00  0.00    +0.000 A 
ATOM     11  O   UNL     1       7.439   6.250  18.191  0.00  0.00    +0.000 OA
ATOM     12  N   UNL     1       7.597   5.836  15.980  0.00  0.00    +0.000 N 
ATOM     13  C   UNL     1       7.205   5.266  14.804  0.00  0.00    +0.000 A 
ATOM     14  O   UNL     1       7.801   5.460  13.750  0.00  0.00    +0.000 OA
ATOM     15  H   UNL     1       8.413   6.428  15.950  0.00  0.00    +0.000 HD
ENDBRANCH   1   9
BRANCH   3  16
ATOM     16  S   UNL     1       1.212   3.750  18.403  0.00  0.00    +0.000 S 
BRANCH  16  17
ATOM     17  C   UNL     1       1.286   2.791  19.957  0.00  0.00    +0.000 C 
BRANCH  17  18
ATOM     18  C   UNL     1       1.630   3.689  21.122  0.00  0.00    +0.000 C 
ATOM     19  O   UNL     1       1.564   4.909  21.089  0.00  0.00    +0.000 OA
BRANCH  18  20
ATOM     20  O   UNL     1       2.011   3.012  22.232  0.00  0.00    +0.000 OA
ATOM     21  H   UNL     1       2.983   3.009  22.349  0.00  0.00    +0.000 HD
ENDBRANCH  18  20
ENDBRANCH  17  18
ENDBRANCH  16  17
ENDBRANCH   3  16
BRANCH   4  22
ATOM     22  C   UNL     1       3.923   1.460  18.011  0.00  0.00    +0.000 C 
BRANCH  22  23
ATOM     23  O   UNL     1       4.547   0.476  18.832  0.00  0.00    +0.000 OA
ATOM     24  H   UNL     1       5.157  -0.020  18.255  0.00  0.00    +0.000 HD
ENDBRANCH  22  23
ENDBRANCH   4  22
TORSDOF 7
ENDMDL
MODEL 3
REMARK VINA RESULT:      -7.0      2.961      6.569
REMARK  Name = 
REMARK  8 active torsions:
REMARK  status: ('A' for Active; 'I' for Inactive)
REMARK    1  A    between atoms: C_1  and  C_2
REMARK    2  A    between atoms: N_4  and  C_5
REMARK    3  A    between atoms: C_7  and  S_8
REMARK    4  A    between atoms: S_8  and  C_9
REMARK    5  A    between atoms: C_9  and  C_10
REMARK    6  A    between atoms: C_10  and  O_12
REMARK    7  A    between atoms: C_13  and  C_14
REMARK    8  A    between atoms: C_14  and  O_15
REMARK                            x       y       z     vdW  Elec       q    Type
REMARK                         _______ _______ _______ _____ _____    ______ ____
ROOT
ATOM      1  C   UNL     1       4.346   4.005  17.978  0.00  0.00    +0.000 C 
ATOM      2  C   UNL     1       4.660   4.225  16.501  0.00  0.00    +0.000 C 
ATOM      3  C   UNL     1       5.950   5.012  16.554  0.00  0.00    +0.000 C 
ATOM      4  C   UNL     1       6.663   4.344  17.729  0.00  0.00    +0.000 C 
ATOM      5  O   UNL     1       5.629   3.870  18.630  0.00  0.00    +0.000 OA
ENDROOT
BRANCH   1   9
ATOM      6  C   UNL     1       2.459   8.609  17.772  0.00  0.00    +0.000 C 
ATOM      7  C   UNL     1       2.689   7.309  18.471  0.00  0.00    +0.000 A 
ATOM      8  C   UNL     1       3.393   6.301  17.945  0.00  0.00    +0.000 A 
ATOM      9  N   UNL     1       3.572   5.091  18.590  0.00  0.00    +0.000 N 
ATOM     10  C   UNL     1       3.104   4.896  19.888  0.00  0.00    +0.000 A 
ATOM     11  O   UNL     1       3.300   3.877  20.540  0.00  0.00    +0.000 OA
ATOM     12  N   UNL     1       2.384   5.933  20.422  0.00  0.00    +0.000 N 
ATOM     13  C   UNL     1       2.106   7.124  19.817  0.00  0.00    +0.000 A 
ATOM     14  O   UNL     1       1.431   7.993  20.357  0.00  0.00    +0.000 OA
ATOM     15  H   UNL     1       2.010   5.795  21.349  0.00  0.00    +0.000 HD
ENDBRANCH   1   9
BRANCH   3  16
ATOM     16  S   UNL     1       6.912   4.948  14.996  0.00  0.00    +0.000 S 
BRANCH  16  17
ATOM     17  C   UNL     1       5.757   3.988  13.954  0.00  0.00    +0.000 C 
BRANCH  17  18
ATOM     18  C   UNL     1       6.405   3.621  12.640  0.00  0.00    +0.000 C 
ATOM     19  O   UNL     1       7.217   4.323  12.057  0.00  0.00    +0.000 OA
BRANCH  18  20
ATOM     20  O   UNL     1       6.010   2.416  12.161  0.00  0.00    +0.000 OA
ATOM     21  H   UNL     1       5.775   2.453  11.212  0.00  0.00    +0.000 HD
ENDBRANCH  18  20
ENDBRANCH  17  18
ENDBRANCH  16  17
ENDBRANCH   3  16
BRANCH   4  22
ATOM     22  C   UNL     1       7.590   5.301  18.483  0.00  0.00    +0.000 C 
BRANCH  22  23
ATOM     23  O   UNL     1       7.160   5.449  19.834  0.00  0.00    +0.000 OA
ATOM     24  H   UNL     1       6.544   6.205  19.848  0.00  0.00    +0.000 HD
ENDBRANCH  22  23
ENDBRANCH   4  22
TORSDOF 7
ENDMDL
MODEL 4
REMARK VINA RESULT:      -6.8      2.331      2.574
REMARK  Name = 
REMARK  8 active torsions:
REMARK  status: ('A' for Active; 'I' for Inactive)
REMARK    1  A    between atoms: C_1  and  C_2
REMARK    2  A    between atoms: N_4  and  C_5
REMARK    3  A    between atoms: C_7  and  S_8
REMARK    4  A    between atoms: S_8  and  C_9
REMARK    5  A    between atoms: C_9  and  C_10
REMARK    6  A    between atoms: C_10  and  O_12
REMARK    7  A    between atoms: C_13  and  C_14
REMARK    8  A    between atoms: C_14  and  O_15
REMARK                            x       y       z     vdW  Elec       q    Type
REMARK                         _______ _______ _______ _____ _____    ______ ____
ROOT
ATOM      1  C   UNL     1       5.180   3.907  19.075  0.00  0.00    +0.000 C 
ATOM      2  C   UNL     1       4.439   5.042  19.777  0.00  0.00    +0.000 C 
ATOM      3  C   UNL     1       3.074   4.993  19.128  0.00  0.00    +0.000 C 
ATOM      4  C   UNL     1       2.864   3.486  18.981  0.00  0.00    +0.000 C 
ATOM      5  O   UNL     1       4.180   2.896  18.815  0.00  0.00    +0.000 OA
ENDROOT
BRANCH   1   9
ATOM      6  C   UNL     1       5.216   4.165  14.102  0.00  0.00    +0.000 C 
ATOM      7  C   UNL     1       5.837   4.407  15.439  0.00  0.00    +0.000 A 
ATOM      8  C   UNL     1       5.267   4.050  16.594  0.00  0.00    +0.000 A 
ATOM      9  N   UNL     1       5.839   4.308  17.827  0.00  0.00    +0.000 N 
ATOM     10  C   UNL     1       7.109   4.872  17.923  0.00  0.00    +0.000 A 
ATOM     11  O   UNL     1       7.701   5.051  18.981  0.00  0.00    +0.000 OA
ATOM     12  N   UNL     1       7.689   5.236  16.735  0.00  0.00    +0.000 N 
ATOM     13  C   UNL     1       7.153   5.079  15.489  0.00  0.00    +0.000 A 
ATOM     14  O   UNL     1       7.729   5.455  14.475  0.00  0.00    +0.000 OA
ATOM     15  H   UNL     1       8.595   5.676  16.788  0.00  0.00    +0.000 HD
ENDBRANCH   1   9
BRANCH   3  16
ATOM     16  S   UNL     1       1.764   5.810  20.116  0.00  0.00    +0.000 S 
BRANCH  16  17
ATOM     17  C   UNL     1       2.154   7.561  19.763  0.00  0.00    +0.000 C 
BRANCH  17  18
ATOM     18  C   UNL     1       1.370   8.475  20.675  0.00  0.00    +0.000 C 
ATOM     19  O   UNL     1       0.420   9.154  20.312  0.00  0.00    +0.000 OA
BRANCH  18  20
ATOM     20  O   UNL     1       1.809   8.467  21.957  0.00  0.00    +0.000 OA
ATOM     21  H   UNL     1       2.779   8.345  22.015  0.00  0.00    +0.000 HD
ENDBRANCH  18  20
ENDBRANCH  17  18
ENDBRANCH  16  17
ENDBRANCH   3  16
BRANCH   4  22
ATOM     22  C   UNL     1       1.992   3.123  17.776  0.00  0.00    +0.000 C 
BRANCH  22  23
ATOM     23  O   UNL     1       2.103   1.733  17.482  0.00  0.00    +0.000 OA
ATOM     24  H   UNL     1       2.512   1.316  18.263  0.00  0.00    +0.000 HD
ENDBRANCH  22  23
ENDBRANCH   4  22
TORSDOF 7
ENDMDL
MODEL 5
REMARK VINA RESULT:      -6.6      1.825      2.033
REMARK  Name = 
REMARK  8 active torsions:
REMARK  status: ('A' for Active; 'I' for Inactive)
REMARK    1  A    between atoms: C_1  and  C_2
REMARK    2  A    between atoms: N_4  and  C_5
REMARK    3  A    between atoms: C_7  and  S_8
REMARK    4  A    between atoms: S_8  and  C_9
REMARK    5  A    between atoms: C_9  and  C_10
REMARK    6  A    between atoms: C_10  and  O_12
REMARK    7  A    between atoms: C_13  and  C_14
REMARK    8  A    between atoms: C_14  and  O_15
REMARK                            x       y       z     vdW  Elec       q    Type
REMARK                         _______ _______ _______ _____ _____    ______ ____
ROOT
ATOM      1  C   UNL     1       5.584   4.489  18.956  0.00  0.00    +0.000 C 
ATOM      2  C   UNL     1       4.333   5.294  19.294  0.00  0.00    +0.000 C 
ATOM      3  C   UNL     1       3.224   4.417  18.758  0.00  0.00    +0.000 C 
ATOM      4  C   UNL     1       3.746   3.024  19.106  0.00  0.00    +0.000 C 
ATOM      5  O   UNL     1       5.195   3.102  19.076  0.00  0.00    +0.000 OA
ENDROOT
BRANCH   1   9
ATOM      6  C   UNL     1       5.633   3.567  14.062  0.00  0.00    +0.000 C 
ATOM      7  C   UNL     1       6.132   4.285  15.273  0.00  0.00    +0.000 A 
ATOM      8  C   UNL     1       5.670   4.062  16.508  0.00  0.00    +0.000 A 
ATOM      9  N   UNL     1       6.120   4.756  17.616  0.00  0.00    +0.000 N 
ATOM     10  C   UNL     1       7.169   5.668  17.513  0.00  0.00    +0.000 A 
ATOM     11  O   UNL     1       7.664   6.253  18.469  0.00  0.00    +0.000 OA
ATOM     12  N   UNL     1       7.639   5.891  16.244  0.00  0.00    +0.000 N 
ATOM     13  C   UNL     1       7.194   5.298  15.098  0.00  0.00    +0.000 A 
ATOM     14  O   UNL     1       7.654   5.573  13.996  0.00  0.00    +0.000 OA
ATOM     15  H   UNL     1       8.377   6.573  16.148  0.00  0.00    +0.000 HD
ENDBRANCH   1   9
BRANCH   3  16
ATOM     16  S   UNL     1       1.584   4.777  19.493  0.00  0.00    +0.000 S 
BRANCH  16  17
ATOM     17  C   UNL     1       2.085   5.921  20.827  0.00  0.00    +0.000 C 
BRANCH  17  18
ATOM     18  C   UNL     1       1.593   7.321  20.541  0.00  0.00    +0.000 C 
ATOM     19  O   UNL     1       0.885   7.967  21.301  0.00  0.00    +0.000 OA
BRANCH  18  20
ATOM     20  O   UNL     1       2.025   7.813  19.355  0.00  0.00    +0.000 OA
ATOM     21  H   UNL     1       2.895   7.445  19.097  0.00  0.00    +0.000 HD
ENDBRANCH  18  20
ENDBRANCH  17  18
ENDBRANCH  16  17
ENDBRANCH   3  16
BRANCH   4  22
ATOM     22  C   UNL     1       3.278   1.951  18.119  0.00  0.00    +0.000 C 
BRANCH  22  23
ATOM     23  O   UNL     1       4.037   0.755  18.285  0.00  0.00    +0.000 OA
ATOM     24  H   UNL     1       3.625   0.084  17.710  0.00  0.00    +0.000 HD
ENDBRANCH  22  23
ENDBRANCH   4  22
TORSDOF 7
ENDMDL
MODEL 6
REMARK VINA RESULT:      -6.6      2.838      3.127
REMARK  Name = 
REMARK  8 active torsions:
REMARK  status: ('A' for Active; 'I' for Inactive)
REMARK    1  A    between atoms: C_1  and  C_2
REMARK    2  A    between atoms: N_4  and  C_5
REMARK    3  A    between atoms: C_7  and  S_8
REMARK    4  A    between atoms: S_8  and  C_9
REMARK    5  A    between atoms: C_9  and  C_10
REMARK    6  A    between atoms: C_10  and  O_12
REMARK    7  A    between atoms: C_13  and  C_14
REMARK    8  A    between atoms: C_14  and  O_15
REMARK                            x       y       z     vdW  Elec       q    Type
REMARK                         _______ _______ _______ _____ _____    ______ ____
ROOT
ATOM      1  C   UNL     1       5.138   4.235  18.786  0.00  0.00    +0.000 C 
ATOM      2  C   UNL     1       4.687   5.542  19.431  0.00  0.00    +0.000 C 
ATOM      3  C   UNL     1       3.329   5.765  18.806  0.00  0.00    +0.000 C 
ATOM      4  C   UNL     1       2.785   4.338  18.747  0.00  0.00    +0.000 C 
ATOM      5  O   UNL     1       3.932   3.461  18.597  0.00  0.00    +0.000 OA
ENDROOT
BRANCH   1   9
ATOM      6  C   UNL     1       5.118   4.160  13.806  0.00  0.00    +0.000 C 
ATOM      7  C   UNL     1       5.804   4.356  15.118  0.00  0.00    +0.000 A 
ATOM      8  C   UNL     1       5.198   4.197  16.300  0.00  0.00    +0.000 A 
ATOM      9  N   UNL     1       5.837   4.413  17.508  0.00  0.00    +0.000 N 
ATOM     10  C   UNL     1       7.198   4.713  17.554  0.00  0.00    +0.000 A 
ATOM     11  O   UNL     1       7.836   4.835  18.593  0.00  0.00    +0.000 OA
ATOM     12  N   UNL     1       7.812   4.873  16.340  0.00  0.00    +0.000 N 
ATOM     13  C   UNL     1       7.229   4.749  15.112  0.00  0.00    +0.000 A 
ATOM     14  O   UNL     1       7.846   4.934  14.070  0.00  0.00    +0.000 OA
ATOM     15  H   UNL     1       8.790   5.123  16.356  0.00  0.00    +0.000 HD
ENDBRANCH   1   9
BRANCH   3  16
ATOM     16  S   UNL     1       2.260   6.905  19.763  0.00  0.00    +0.000 S 
BRANCH  16  17
ATOM     17  C   UNL     1       2.121   8.280  18.567  0.00  0.00    +0.000 C 
BRANCH  17  18
ATOM     18  C   UNL     1       1.173   9.339  19.081  0.00  0.00    +0.000 C 
ATOM     19  O   UNL     1       0.797   9.417  20.241  0.00  0.00    +0.000 OA
BRANCH  18  20
ATOM     20  O   UNL     1       0.781  10.220  18.129  0.00  0.00    +0.000 OA
ATOM     21  H   UNL     1       0.450   9.772  17.323  0.00  0.00    +0.000 HD
ENDBRANCH  18  20
ENDBRANCH  17  18
ENDBRANCH  16  17
ENDBRANCH   3  16
BRANCH   4  22
ATOM     22  C   UNL     1       1.824   4.116  17.577  0.00  0.00    +0.000 C 
BRANCH  22  23
ATOM     23  O   UNL     1       0.842   3.140  17.916  0.00  0.00    +0.000 OA
ATOM     24  H   UNL     1      -0.006   3.465  17.562  0.00  0.00    +0.000 HD
ENDBRANCH  22  23
ENDBRANCH   4  22
TORSDOF 7
ENDMDL
MODEL 7
REMARK VINA RESULT:      -6.5      3.014      6.599
REMARK  Name = 
REMARK  8 active torsions:
REMARK  status: ('A' for Active; 'I' for Inactive)
REMARK    1  A    between atoms: C_1  and  C_2
REMARK    2  A    between atoms: N_4  and  C_5
REMARK    3  A    between atoms: C_7  and  S_8
REMARK    4  A    between atoms: S_8  and  C_9
REMARK    5  A    between atoms: C_9  and  C_10
REMARK    6  A    between atoms: C_10  and  O_12
REMARK    7  A    between atoms: C_13  and  C_14
REMARK    8  A    between atoms: C_14  and  O_15
REMARK                            x       y       z     vdW  Elec       q    Type
REMARK                         _______ _______ _______ _____ _____    ______ ____
ROOT
ATOM      1  C   UNL     1       3.168   4.074  18.858  0.00  0.00    +0.000 C 
ATOM      2  C   UNL     1       3.291   3.880  17.350  0.00  0.00    +0.000 C 
ATOM      3  C   UNL     1       4.674   4.418  17.061  0.00  0.00    +0.000 C 
ATOM      4  C   UNL     1       5.449   3.930  18.285  0.00  0.00    +0.000 C 
ATOM      5  O   UNL     1       4.500   3.873  19.382  0.00  0.00    +0.000 OA
ENDROOT
BRANCH   1   9
ATOM      6  C   UNL     1       2.273   8.852  17.777  0.00  0.00    +0.000 C 
ATOM      7  C   UNL     1       2.251   7.685  18.709  0.00  0.00    +0.000 A 
ATOM      8  C   UNL     1       2.713   6.473  18.387  0.00  0.00    +0.000 A 
ATOM      9  N   UNL     1       2.658   5.393  19.249  0.00  0.00    +0.000 N 
ATOM     10  C   UNL     1       2.203   5.545  20.558  0.00  0.00    +0.000 A 
ATOM     11  O   UNL     1       2.206   4.646  21.392  0.00  0.00    +0.000 OA
ATOM     12  N   UNL     1       1.732   6.791  20.883  0.00  0.00    +0.000 N 
ATOM     13  C   UNL     1       1.688   7.880  20.062  0.00  0.00    +0.000 A 
ATOM     14  O   UNL     1       1.227   8.956  20.424  0.00  0.00    +0.000 OA
ATOM     15  H   UNL     1       1.369   6.909  21.817  0.00  0.00    +0.000 HD
ENDBRANCH   1   9
BRANCH   3  16
ATOM     16  S   UNL     1       5.377   3.819  15.478  0.00  0.00    +0.000 S 
BRANCH  16  17
ATOM     17  C   UNL     1       6.316   5.304  14.972  0.00  0.00    +0.000 C 
BRANCH  17  18
ATOM     18  C   UNL     1       7.165   5.009  13.758  0.00  0.00    +0.000 C 
ATOM     19  O   UNL     1       8.201   5.600  13.487  0.00  0.00    +0.000 OA
BRANCH  18  20
ATOM     20  O   UNL     1       6.679   4.006  12.989  0.00  0.00    +0.000 OA
ATOM     21  H   UNL     1       6.755   3.133  13.427  0.00  0.00    +0.000 HD
ENDBRANCH  18  20
ENDBRANCH  17  18
ENDBRANCH  16  17
ENDBRANCH   3  16
BRANCH   4  22
ATOM     22  C   UNL     1       6.605   4.860  18.665  0.00  0.00    +0.000 C 
BRANCH  22  23
ATOM     23  O   UNL     1       7.846   4.319  18.220  0.00  0.00    +0.000 OA
ATOM     24  H   UNL     1       7.828   4.349  17.246  0.00  0.00    +0.000 HD
ENDBRANCH  22  23
ENDBRANCH   4  22
TORSDOF 7
ENDMDL
MODEL 8
REMARK VINA RESULT:      -6.5      2.218      2.702
REMARK  Name = 
REMARK  8 active torsions:
REMARK  status: ('A' for Active; 'I' for Inactive)
REMARK    1  A    between atoms: C_1  and  C_2
REMARK    2  A    between atoms: N_4  and  C_5
REMARK    3  A    between atoms: C_7  and  S_8
REMARK    4  A    between atoms: S_8  and  C_9
REMARK    5  A    between atoms: C_9  and  C_10
REMARK    6  A    between atoms: C_10  and  O_12
REMARK    7  A    between atoms: C_13  and  C_14
REMARK    8  A    between atoms: C_14  and  O_15
REMARK                            x       y       z     vdW  Elec       q    Type
REMARK                         _______ _______ _______ _____ _____    ______ ____
ROOT
ATOM      1  C   UNL     1       5.141   3.986  19.032  0.00  0.00    +0.000 C 
ATOM      2  C   UNL     1       4.400   5.156  19.673  0.00  0.00    +0.000 C 
ATOM      3  C   UNL     1       3.042   5.085  19.011  0.00  0.00    +0.000 C 
ATOM      4  C   UNL     1       2.824   3.574  18.931  0.00  0.00    +0.000 C 
ATOM      5  O   UNL     1       4.139   2.970  18.807  0.00  0.00    +0.000 OA
ENDROOT
BRANCH   1   9
ATOM      6  C   UNL     1       5.208   4.075  14.053  0.00  0.00    +0.000 C 
ATOM      7  C   UNL     1       5.829   4.344  15.385  0.00  0.00    +0.000 A 
ATOM      8  C   UNL     1       5.244   4.042  16.548  0.00  0.00    +0.000 A 
ATOM      9  N   UNL     1       5.817   4.326  17.775  0.00  0.00    +0.000 N 
ATOM     10  C   UNL     1       7.102   4.859  17.858  0.00  0.00    +0.000 A 
ATOM     11  O   UNL     1       7.694   5.057  18.914  0.00  0.00    +0.000 OA
ATOM     12  N   UNL     1       7.697   5.165  16.662  0.00  0.00    +0.000 N 
ATOM     13  C   UNL     1       7.163   4.981  15.419  0.00  0.00    +0.000 A 
ATOM     14  O   UNL     1       7.754   5.306  14.396  0.00  0.00    +0.000 OA
ATOM     15  H   UNL     1       8.615   5.582  16.706  0.00  0.00    +0.000 HD
ENDBRANCH   1   9
BRANCH   3  16
ATOM     16  S   UNL     1       1.725   5.953  19.945  0.00  0.00    +0.000 S 
BRANCH  16  17
ATOM     17  C   UNL     1       2.288   7.681  19.744  0.00  0.00    +0.000 C 
BRANCH  17  18
ATOM     18  C   UNL     1       2.375   8.046  18.281  0.00  0.00    +0.000 C 
ATOM     19  O   UNL     1       3.330   7.782  17.565  0.00  0.00    +0.000 OA
BRANCH  18  20
ATOM     20  O   UNL     1       1.276   8.690  17.819  0.00  0.00    +0.000 OA
ATOM     21  H   UNL     1       0.704   9.014  18.545  0.00  0.00    +0.000 HD
ENDBRANCH  18  20
ENDBRANCH  17  18
ENDBRANCH  16  17
ENDBRANCH   3  16
BRANCH   4  22
ATOM     22  C   UNL     1       1.964   3.161  17.733  0.00  0.00    +0.000 C 
BRANCH  22  23
ATOM     23  O   UNL     1       2.197   1.794  17.400  0.00  0.00    +0.000 OA
ATOM     24  H   UNL     1       3.140   1.724  17.164  0.00  0.00    +0.000 HD
ENDBRANCH  22  23
ENDBRANCH   4  22
TORSDOF 7
ENDMDL
MODEL 9
REMARK VINA RESULT:      -6.5      1.385      1.694
REMARK  Name = 
REMARK  8 active torsions:
REMARK  status: ('A' for Active; 'I' for Inactive)
REMARK    1  A    between atoms: C_1  and  C_2
REMARK    2  A    between atoms: N_4  and  C_5
REMARK    3  A    between atoms: C_7  and  S_8
REMARK    4  A    between atoms: S_8  and  C_9
REMARK    5  A    between atoms: C_9  and  C_10
REMARK    6  A    between atoms: C_10  and  O_12
REMARK    7  A    between atoms: C_13  and  C_14
REMARK    8  A    between atoms: C_14  and  O_15
REMARK                            x       y       z     vdW  Elec       q    Type
REMARK                         _______ _______ _______ _____ _____    ______ ____
ROOT
ATOM      1  C   UNL     1       4.385   5.202  18.590  0.00  0.00    +0.000 C 
ATOM      2  C   UNL     1       2.971   4.729  18.264  0.00  0.00    +0.000 C 
ATOM      3  C   UNL     1       3.069   3.235  18.467  0.00  0.00    +0.000 C 
ATOM      4  C   UNL     1       3.987   3.155  19.687  0.00  0.00    +0.000 C 
ATOM      5  O   UNL     1       4.858   4.315  19.629  0.00  0.00    +0.000 OA
ENDROOT
BRANCH   1   9
ATOM      6  C   UNL     1       5.352   3.965  13.863  0.00  0.00    +0.000 C 
ATOM      7  C   UNL     1       5.742   4.563  15.176  0.00  0.00    +0.000 A 
ATOM      8  C   UNL     1       4.936   4.595  16.242  0.00  0.00    +0.000 A 
ATOM      9  N   UNL     1       5.299   5.179  17.442  0.00  0.00    +0.000 N 
ATOM     10  C   UNL     1       6.585   5.683  17.634  0.00  0.00    +0.000 A 
ATOM     11  O   UNL     1       6.990   6.139  18.697  0.00  0.00    +0.000 OA
ATOM     12  N   UNL     1       7.406   5.646  16.537  0.00  0.00    +0.000 N 
ATOM     13  C   UNL     1       7.092   5.152  15.304  0.00  0.00    +0.000 A 
ATOM     14  O   UNL     1       7.879   5.180  14.365  0.00  0.00    +0.000 OA
ATOM     15  H   UNL     1       8.330   6.036  16.649  0.00  0.00    +0.000 HD
ENDBRANCH   1   9
BRANCH   3  16
ATOM     16  S   UNL     1       1.448   2.422  18.732  0.00  0.00    +0.000 S 
BRANCH  16  17
ATOM     17  C   UNL     1       0.741   3.540  19.993  0.00  0.00    +0.000 C 
BRANCH  17  18
ATOM     18  C   UNL     1       1.462   3.381  21.311  0.00  0.00    +0.000 C 
ATOM     19  O   UNL     1       1.382   2.388  22.020  0.00  0.00    +0.000 OA
BRANCH  18  20
ATOM     20  O   UNL     1       2.231   4.447  21.638  0.00  0.00    +0.000 OA
ATOM     21  H   UNL     1       1.812   5.297  21.389  0.00  0.00    +0.000 HD
ENDBRANCH  18  20
ENDBRANCH  17  18
ENDBRANCH  16  17
ENDBRANCH   3  16
BRANCH   4  22
ATOM     22  C   UNL     1       4.840   1.884  19.707  0.00  0.00    +0.000 C 
BRANCH  22  23
ATOM     23  O   UNL     1       5.289   1.606  21.031  0.00  0.00    +0.000 OA
ATOM     24  H   UNL     1       4.492   1.565  21.591  0.00  0.00    +0.000 HD
ENDBRANCH  22  23
ENDBRANCH   4  22
TORSDOF 7
ENDMDL
