MODEL 1
REMARK VINA RESULT:      -7.3      0.000      0.000
REMARK  Name = 
REMARK  8 active torsions:
REMARK  status: ('A' for Active; 'I' for Inactive)
REMARK    1  A    between atoms: C_1  and  O_2
REMARK    2  A    between atoms: O_2  and  C_3
REMARK    3  A    between atoms: C_8  and  C_9
REMARK    4  A    between atoms: C_12  and  C_14
REMARK    5  A    between atoms: C_14  and  O_15
REMARK    6  A    between atoms: O_15  and  C_16
REMARK    7  A    between atoms: C_16  and  C_18
REMARK    8  A    between atoms: C_21  and  N_22
REMARK                            x       y       z     vdW  Elec       q    Type
REMARK                         _______ _______ _______ _____ _____    ______ ____
ROOT
ATOM      1  C   UNL     1       1.878   5.681  20.242  0.00  0.00    +0.000 C 
ATOM      2  O   UNL     1       2.115   5.623  21.448  0.00  0.00    +0.000 OA
ATOM      3  N   UNL     1       1.554   4.574  19.480  0.00  0.00    +0.000 N 
ATOM      4  C   UNL     1       1.577   3.276  19.972  0.00  0.00    +0.000 C 
ATOM      5  O   UNL     1       1.799   2.949  21.137  0.00  0.00    +0.000 OA
ATOM      6  H   UNL     1       1.275   4.726  18.513  0.00  0.00    +0.000 HD
ENDROOT
BRANCH   1  12
ATOM      7  C   UNL     1       1.389   8.226  20.071  0.00  0.00    +0.000 A 
ATOM      8  C   UNL     1       1.500   9.394  19.292  0.00  0.00    +0.000 A 
ATOM      9  C   UNL     1       2.196   9.400  18.080  0.00  0.00    +0.000 A 
ATOM     10  C   UNL     1       2.786   8.235  17.620  0.00  0.00    +0.000 A 
ATOM     11  C   UNL     1       2.659   7.064  18.365  0.00  0.00    +0.000 A 
ATOM     12  C   UNL     1       1.954   7.031  19.590  0.00  0.00    +0.000 A 
BRANCH   7  14
ATOM     13  C   UNL     1       0.058   9.422  21.625  0.00  0.00    +0.000 C 
ATOM     14  O   UNL     1       0.722   8.205  21.271  0.00  0.00    +0.000 OA
ENDBRANCH   7  14
ENDBRANCH   1  12
BRANCH   4  15
ATOM     15  C   UNL     1       1.274   2.192  18.940  0.00  0.00    +0.000 C 
BRANCH  15  16
ATOM     16  O   UNL     1       2.135   2.268  17.805  0.00  0.00    +0.000 OA
BRANCH  16  17
ATOM     17  C   UNL     1       3.430   1.992  18.069  0.00  0.00    +0.000 C 
ATOM     18  O   UNL     1       3.858   0.900  18.422  0.00  0.00    +0.000 OA
BRANCH  17  19
ATOM     19  C   UNL     1       4.290   3.187  17.877  0.00  0.00    +0.000 A 
ATOM     20  C   UNL     1       4.967   3.690  18.998  0.00  0.00    +0.000 A 
ATOM     21  C   UNL     1       5.771   4.828  18.889  0.00  0.00    +0.000 A 
ATOM     22  C   UNL     1       5.897   5.468  17.649  0.00  0.00    +0.000 A 
ATOM     23  C   UNL     1       5.229   4.972  16.521  0.00  0.00    +0.000 A 
ATOM     24  C   UNL     1       4.426   3.830  16.637  0.00  0.00    +0.000 A 
BRANCH  22  25
ATOM     25  N   UNL     1       6.732   6.671  17.535  0.00  0.00    +0.000 N 
ATOM     26  O   UNL     1       6.406   7.519  16.691  0.00  0.00    +0.000 OA
ATOM     27  O   UNL     1       7.710   6.766  18.288  0.00  0.00    +0.000 OA
ENDBRANCH  22  25
ENDBRANCH  17  19
ENDBRANCH  16  17
ENDBRANCH  15  16
ENDBRANCH   4  15
TORSDOF 7
ENDMDL
MODEL 2
REMARK VINA RESULT:      -7.2      2.717      3.802
REMARK  Name = 
REMARK  8 active torsions:
REMARK  status: ('A' for Active; 'I' for Inactive)
REMARK    1  A    between atoms: C_1  and  O_2
REMARK    2  A    between atoms: O_2  and  C_3
REMARK    3  A    between atoms: C_8  and  C_9
REMARK    4  A    between atoms: C_12  and  C_14
REMARK    5  A    between atoms: C_14  and  O_15
REMARK    6  A    between atoms: O_15  and  C_16
REMARK    7  A    between atoms: C_16  and  C_18
REMARK    8  A    between atoms: C_21  and  N_22
REMARK                            x       y       z     vdW  Elec       q    Type
REMARK                         _______ _______ _______ _____ _____    ______ ____
ROOT
ATOM      1  C   UNL     1       1.654   9.091  18.344  0.00  0.00    +0.000 C 
ATOM      2  O   UNL     1       2.176   9.516  17.314  0.00  0.00    +0.000 OA
ATOM      3  N   UNL     1       2.080   7.946  18.993  0.00  0.00    +0.000 N 
ATOM      4  C   UNL     1       3.059   7.103  18.486  0.00  0.00    +0.000 C 
ATOM      5  O   UNL     1       3.720   7.294  17.466  0.00  0.00    +0.000 OA
ATOM      6  H   UNL     1       1.658   7.723  19.891  0.00  0.00    +0.000 HD
ENDROOT
BRANCH   1  12
ATOM      7  C   UNL     1       0.329  10.276  20.237  0.00  0.00    +0.000 A 
ATOM      8  C   UNL     1      -0.856  10.945  20.602  0.00  0.00    +0.000 A 
ATOM      9  C   UNL     1      -1.842  11.249  19.660  0.00  0.00    +0.000 A 
ATOM     10  C   UNL     1      -1.664  10.884  18.336  0.00  0.00    +0.000 A 
ATOM     11  C   UNL     1      -0.510  10.196  17.966  0.00  0.00    +0.000 A 
ATOM     12  C   UNL     1       0.498   9.869  18.902  0.00  0.00    +0.000 A 
BRANCH   7  14
ATOM     13  C   UNL     1       0.890   9.238  22.293  0.00  0.00    +0.000 C 
ATOM     14  O   UNL     1       1.314   9.982  21.147  0.00  0.00    +0.000 OA
ENDBRANCH   7  14
ENDBRANCH   1  12
BRANCH   4  15
ATOM     15  C   UNL     1       3.316   5.846  19.314  0.00  0.00    +0.000 C 
BRANCH  15  16
ATOM     16  O   UNL     1       3.546   4.698  18.499  0.00  0.00    +0.000 OA
BRANCH  16  17
ATOM     17  C   UNL     1       4.821   4.255  18.509  0.00  0.00    +0.000 C 
ATOM     18  O   UNL     1       5.398   3.795  19.487  0.00  0.00    +0.000 OA
BRANCH  17  19
ATOM     19  C   UNL     1       5.454   4.391  17.173  0.00  0.00    +0.000 A 
ATOM     20  C   UNL     1       6.814   4.734  17.128  0.00  0.00    +0.000 A 
ATOM     21  C   UNL     1       7.462   4.904  15.902  0.00  0.00    +0.000 A 
ATOM     22  C   UNL     1       6.743   4.732  14.711  0.00  0.00    +0.000 A 
ATOM     23  C   UNL     1       5.385   4.386  14.744  0.00  0.00    +0.000 A 
ATOM     24  C   UNL     1       4.743   4.215  15.977  0.00  0.00    +0.000 A 
BRANCH  22  25
ATOM     25  N   UNL     1       7.419   4.922  13.422  0.00  0.00    +0.000 N 
ATOM     26  O   UNL     1       8.319   5.774  13.364  0.00  0.00    +0.000 OA
ATOM     27  O   UNL     1       7.051   4.221  12.470  0.00  0.00    +0.000 OA
ENDBRANCH  22  25
ENDBRANCH  17  19
ENDBRANCH  16  17
ENDBRANCH  15  16
ENDBRANCH   4  15
TORSDOF 7
ENDMDL
MODEL 3
REMARK VINA RESULT:      -7.0      2.650      7.223
REMARK  Name = 
REMARK  8 active torsions:
REMARK  status: ('A' for Active; 'I' for Inactive)
REMARK    1  A    between atoms: C_1  and  O_2
REMARK    2  A    between atoms: O_2  and  C_3
REMARK    3  A    between atoms: C_8  and  C_9
REMARK    4  A    between atoms: C_12  and  C_14
REMARK    5  A    between atoms: C_14  and  O_15
REMARK    6  A    between atoms: O_15  and  C_16
REMARK    7  A    between atoms: C_16  and  C_18
REMARK    8  A    between atoms: C_21  and  N_22
REMARK                            x       y       z     vdW  Elec       q    Type
REMARK                         _______ _______ _______ _____ _____    ______ ____
ROOT
ATOM      1  C   UNL     1       4.495   3.814  19.104  0.00  0.00    +0.000 C 
ATOM      2  O   UNL     1       4.802   2.825  19.768  0.00  0.00    +0.000 OA
ATOM      3  N   UNL     1       3.403   4.612  19.393  0.00  0.00    +0.000 N 
ATOM      4  C   UNL     1       2.482   4.311  20.386  0.00  0.00    +0.000 C 
ATOM      5  O   UNL     1       2.552   3.371  21.177  0.00  0.00    +0.000 OA
ATOM      6  H   UNL     1       3.280   5.466  18.853  0.00  0.00    +0.000 HD
ENDROOT
BRANCH   1  12
ATOM      7  C   UNL     1       6.606   4.803  17.960  0.00  0.00    +0.000 A 
ATOM      8  C   UNL     1       7.256   5.099  16.746  0.00  0.00    +0.000 A 
ATOM      9  C   UNL     1       6.714   4.716  15.516  0.00  0.00    +0.000 A 
ATOM     10  C   UNL     1       5.507   4.038  15.478  0.00  0.00    +0.000 A 
ATOM     11  C   UNL     1       4.838   3.765  16.669  0.00  0.00    +0.000 A 
ATOM     12  C   UNL     1       5.362   4.149  17.925  0.00  0.00    +0.000 A 
BRANCH   7  14
ATOM     13  C   UNL     1       8.068   6.240  19.151  0.00  0.00    +0.000 C 
ATOM     14  O   UNL     1       7.132   5.158  19.178  0.00  0.00    +0.000 OA
ENDBRANCH   7  14
ENDBRANCH   1  12
BRANCH   4  15
ATOM     15  C   UNL     1       1.301   5.274  20.481  0.00  0.00    +0.000 C 
BRANCH  15  16
ATOM     16  O   UNL     1       1.631   6.470  21.186  0.00  0.00    +0.000 OA
BRANCH  16  17
ATOM     17  C   UNL     1       1.635   7.584  20.423  0.00  0.00    +0.000 C 
ATOM     18  O   UNL     1       2.207   7.696  19.347  0.00  0.00    +0.000 OA
BRANCH  17  19
ATOM     19  C   UNL     1       0.850   8.676  21.053  0.00  0.00    +0.000 A 
ATOM     20  C   UNL     1       0.339   9.678  20.215  0.00  0.00    +0.000 A 
ATOM     21  C   UNL     1      -0.385  10.748  20.749  0.00  0.00    +0.000 A 
ATOM     22  C   UNL     1      -0.597  10.815  22.133  0.00  0.00    +0.000 A 
ATOM     23  C   UNL     1      -0.095   9.817  22.979  0.00  0.00    +0.000 A 
ATOM     24  C   UNL     1       0.628   8.747  22.436  0.00  0.00    +0.000 A 
BRANCH  22  25
ATOM     25  N   UNL     1      -1.348  11.944  22.697  0.00  0.00    +0.000 N 
ATOM     26  O   UNL     1      -0.888  13.083  22.526  0.00  0.00    +0.000 OA
ATOM     27  O   UNL     1      -2.394  11.691  23.309  0.00  0.00    +0.000 OA
ENDBRANCH  22  25
ENDBRANCH  17  19
ENDBRANCH  16  17
ENDBRANCH  15  16
ENDBRANCH   4  15
TORSDOF 7
ENDMDL
MODEL 4
REMARK VINA RESULT:      -7.0      3.239      5.498
REMARK  Name = 
REMARK  8 active torsions:
REMARK  status: ('A' for Active; 'I' for Inactive)
REMARK    1  A    between atoms: C_1  and  O_2
REMARK    2  A    between atoms: O_2  and  C_3
REMARK    3  A    between atoms: C_8  and  C_9
REMARK    4  A    between atoms: C_12  and  C_14
REMARK    5  A    between atoms: C_14  and  O_15
REMARK    6  A    between atoms: O_15  and  C_16
REMARK    7  A    between atoms: C_16  and  C_18
REMARK    8  A    between atoms: C_21  and  N_22
REMARK                            x       y       z     vdW  Elec       q    Type
REMARK                         _______ _______ _______ _____ _____    ______ ____
ROOT
ATOM      1  C   UNL     1       4.830   3.981  19.292  0.00  0.00    +0.000 C 
ATOM      2  O   UNL     1       5.488   2.971  19.538  0.00  0.00    +0.000 OA
ATOM      3  N   UNL     1       5.366   5.107  18.694  0.00  0.00    +0.000 N 
ATOM      4  C   UNL     1       6.719   5.254  18.421  0.00  0.00    +0.000 C 
ATOM      5  O   UNL     1       7.587   4.398  18.588  0.00  0.00    +0.000 OA
ATOM      6  H   UNL     1       4.730   5.857  18.436  0.00  0.00    +0.000 HD
ENDROOT
BRANCH   1  12
ATOM      7  C   UNL     1       2.562   5.087  19.903  0.00  0.00    +0.000 A 
ATOM      8  C   UNL     1       1.231   4.887  20.320  0.00  0.00    +0.000 A 
ATOM      9  C   UNL     1       0.695   3.604  20.461  0.00  0.00    +0.000 A 
ATOM     10  C   UNL     1       1.484   2.497  20.198  0.00  0.00    +0.000 A 
ATOM     11  C   UNL     1       2.811   2.678  19.814  0.00  0.00    +0.000 A 
ATOM     12  C   UNL     1       3.378   3.965  19.671  0.00  0.00    +0.000 A 
BRANCH   7  14
ATOM     13  C   UNL     1       2.157   7.416  19.737  0.00  0.00    +0.000 C 
ATOM     14  O   UNL     1       3.100   6.340  19.744  0.00  0.00    +0.000 OA
ENDBRANCH   7  14
ENDBRANCH   1  12
BRANCH   4  15
ATOM     15  C   UNL     1       7.114   6.610  17.843  0.00  0.00    +0.000 C 
BRANCH  15  16
ATOM     16  O   UNL     1       7.121   6.611  16.416  0.00  0.00    +0.000 OA
BRANCH  16  17
ATOM     17  C   UNL     1       5.919   6.365  15.853  0.00  0.00    +0.000 C 
ATOM     18  O   UNL     1       4.872   6.921  16.159  0.00  0.00    +0.000 OA
BRANCH  17  19
ATOM     19  C   UNL     1       6.016   5.322  14.800  0.00  0.00    +0.000 A 
ATOM     20  C   UNL     1       7.181   5.289  14.019  0.00  0.00    +0.000 A 
ATOM     21  C   UNL     1       7.322   4.350  12.995  0.00  0.00    +0.000 A 
ATOM     22  C   UNL     1       6.288   3.438  12.747  0.00  0.00    +0.000 A 
ATOM     23  C   UNL     1       5.121   3.459  13.523  0.00  0.00    +0.000 A 
ATOM     24  C   UNL     1       4.987   4.402  14.550  0.00  0.00    +0.000 A 
BRANCH  22  25
ATOM     25  N   UNL     1       6.429   2.457  11.663  0.00  0.00    +0.000 N 
ATOM     26  O   UNL     1       5.402   1.888  11.265  0.00  0.00    +0.000 OA
ATOM     27  O   UNL     1       7.564   2.259  11.211  0.00  0.00    +0.000 OA
ENDBRANCH  22  25
ENDBRANCH  17  19
ENDBRANCH  16  17
ENDBRANCH  15  16
ENDBRANCH   4  15
TORSDOF 7
ENDMDL
MODEL 5
REMARK VINA RESULT:      -7.0      2.516      4.017
REMARK  Name = 
REMARK  8 active torsions:
REMARK  status: ('A' for Active; 'I' for Inactive)
REMARK    1  A    between atoms: C_1  and  O_2
REMARK    2  A    between atoms: O_2  and  C_3
REMARK    3  A    between atoms: C_8  and  C_9
REMARK    4  A    between atoms: C_12  and  C_14
REMARK    5  A    between atoms: C_14  and  O_15
REMARK    6  A    between atoms: O_15  and  C_16
REMARK    7  A    between atoms: C_16  and  C_18
REMARK    8  A    between atoms: C_21  and  N_22
REMARK                            x       y       z     vdW  Elec       q    Type
REMARK                         _______ _______ _______ _____ _____    ______ ____
ROOT
ATOM      1  C   UNL     1       1.249   9.195  19.840  0.00  0.00    +0.000 C 
ATOM      2  O   UNL     1       1.569   9.860  18.855  0.00  0.00    +0.000 OA
ATOM      3  N   UNL     1       1.662   7.890  20.040  0.00  0.00    +0.000 N 
ATOM      4  C   UNL     1       2.379   7.166  19.097  0.00  0.00    +0.000 C 
ATOM      5  O   UNL     1       2.805   7.595  18.026  0.00  0.00    +0.000 OA
ATOM      6  H   UNL     1       1.434   7.450  20.928  0.00  0.00    +0.000 HD
ENDROOT
BRANCH   1  12
ATOM      7  C   UNL     1      -0.438  10.991  20.659  0.00  0.00    +0.000 A 
ATOM      8  C   UNL     1      -1.157  11.519  21.749  0.00  0.00    +0.000 A 
ATOM      9  C   UNL     1      -1.123  10.912  23.007  0.00  0.00    +0.000 A 
ATOM     10  C   UNL     1      -0.363   9.771  23.200  0.00  0.00    +0.000 A 
ATOM     11  C   UNL     1       0.376   9.254  22.138  0.00  0.00    +0.000 A 
ATOM     12  C   UNL     1       0.365   9.854  20.858  0.00  0.00    +0.000 A 
BRANCH   7  14
ATOM     13  C   UNL     1      -0.516  12.996  19.396  0.00  0.00    +0.000 C 
ATOM     14  O   UNL     1      -0.472  11.566  19.412  0.00  0.00    +0.000 OA
ENDBRANCH   7  14
ENDBRANCH   1  12
BRANCH   4  15
ATOM     15  C   UNL     1       2.656   5.713  19.479  0.00  0.00    +0.000 C 
BRANCH  15  16
ATOM     16  O   UNL     1       4.036   5.479  19.755  0.00  0.00    +0.000 OA
BRANCH  16  17
ATOM     17  C   UNL     1       4.507   4.306  19.282  0.00  0.00    +0.000 C 
ATOM     18  O   UNL     1       4.376   3.221  19.836  0.00  0.00    +0.000 OA
BRANCH  17  19
ATOM     19  C   UNL     1       5.214   4.486  17.989  0.00  0.00    +0.000 A 
ATOM     20  C   UNL     1       4.515   4.171  16.814  0.00  0.00    +0.000 A 
ATOM     21  C   UNL     1       5.133   4.293  15.566  0.00  0.00    +0.000 A 
ATOM     22  C   UNL     1       6.462   4.731  15.494  0.00  0.00    +0.000 A 
ATOM     23  C   UNL     1       7.169   5.053  16.661  0.00  0.00    +0.000 A 
ATOM     24  C   UNL     1       6.542   4.930  17.908  0.00  0.00    +0.000 A 
BRANCH  22  25
ATOM     25  N   UNL     1       7.117   4.849  14.186  0.00  0.00    +0.000 N 
ATOM     26  O   UNL     1       6.674   4.158  13.256  0.00  0.00    +0.000 OA
ATOM     27  O   UNL     1       8.071   5.632  14.088  0.00  0.00    +0.000 OA
ENDBRANCH  22  25
ENDBRANCH  17  19
ENDBRANCH  16  17
ENDBRANCH  15  16
ENDBRANCH   4  15
TORSDOF 7
ENDMDL
MODEL 6
REMARK VINA RESULT:      -6.9      2.872      3.976
REMARK  Name = 
REMARK  8 active torsions:
REMARK  status: ('A' for Active; 'I' for Inactive)
REMARK    1  A    between atoms: C_1  and  O_2
REMARK    2  A    between atoms: O_2  and  C_3
REMARK    3  A    between atoms: C_8  and  C_9
REMARK    4  A    between atoms: C_12  and  C_14
REMARK    5  A    between atoms: C_14  and  O_15
REMARK    6  A    between atoms: O_15  and  C_16
REMARK    7  A    between atoms: C_16  and  C_18
REMARK    8  A    between atoms: C_21  and  N_22
REMARK                            x       y       z     vdW  Elec       q    Type
REMARK                         _______ _______ _______ _____ _____    ______ ____
ROOT
ATOM      1  C   UNL     1       1.472   9.557  18.234  0.00  0.00    +0.000 C 
ATOM      2  O   UNL     1       2.211   9.873  17.302  0.00  0.00    +0.000 OA
ATOM      3  N   UNL     1       1.654   8.414  18.991  0.00  0.00    +0.000 N 
ATOM      4  C   UNL     1       2.614   7.455  18.702  0.00  0.00    +0.000 C 
ATOM      5  O   UNL     1       3.463   7.526  17.815  0.00  0.00    +0.000 OA
ATOM      6  H   UNL     1       1.057   8.282  19.804  0.00  0.00    +0.000 HD
ENDROOT
BRANCH   1  12
ATOM      7  C   UNL     1       0.399  11.738  19.149  0.00  0.00    +0.000 A 
ATOM      8  C   UNL     1      -0.793  12.435  19.427  0.00  0.00    +0.000 A 
ATOM      9  C   UNL     1      -2.040  11.917  19.071  0.00  0.00    +0.000 A 
ATOM     10  C   UNL     1      -2.120  10.687  18.438  0.00  0.00    +0.000 A 
ATOM     11  C   UNL     1      -0.951   9.973  18.184  0.00  0.00    +0.000 A 
ATOM     12  C   UNL     1       0.322  10.472  18.541  0.00  0.00    +0.000 A 
BRANCH   7  14
ATOM     13  C   UNL     1       1.683  13.015  20.679  0.00  0.00    +0.000 C 
ATOM     14  O   UNL     1       1.635  12.239  19.478  0.00  0.00    +0.000 OA
ENDBRANCH   7  14
ENDBRANCH   1  12
BRANCH   4  15
ATOM     15  C   UNL     1       2.587   6.226  19.608  0.00  0.00    +0.000 C 
BRANCH  15  16
ATOM     16  O   UNL     1       3.888   5.680  19.822  0.00  0.00    +0.000 OA
BRANCH  16  17
ATOM     17  C   UNL     1       4.065   4.444  19.309  0.00  0.00    +0.000 C 
ATOM     18  O   UNL     1       3.669   3.406  19.825  0.00  0.00    +0.000 OA
BRANCH  17  19
ATOM     19  C   UNL     1       4.808   4.490  18.025  0.00  0.00    +0.000 A 
ATOM     20  C   UNL     1       6.077   5.087  18.026  0.00  0.00    +0.000 A 
ATOM     21  C   UNL     1       6.816   5.186  16.845  0.00  0.00    +0.000 A 
ATOM     22  C   UNL     1       6.280   4.684  15.651  0.00  0.00    +0.000 A 
ATOM     23  C   UNL     1       5.015   4.081  15.638  0.00  0.00    +0.000 A 
ATOM     24  C   UNL     1       4.280   3.984  16.827  0.00  0.00    +0.000 A 
BRANCH  22  25
ATOM     25  N   UNL     1       7.050   4.797  14.406  0.00  0.00    +0.000 N 
ATOM     26  O   UNL     1       8.019   5.571  14.397  0.00  0.00    +0.000 OA
ATOM     27  O   UNL     1       6.686   4.113  13.440  0.00  0.00    +0.000 OA
ENDBRANCH  22  25
ENDBRANCH  17  19
ENDBRANCH  16  17
ENDBRANCH  15  16
ENDBRANCH   4  15
TORSDOF 7
ENDMDL
MODEL 7
REMARK VINA RESULT:      -6.8      4.025      5.755
REMARK  Name = 
REMARK  8 active torsions:
REMARK  status: ('A' for Active; 'I' for Inactive)
REMARK    1  A    between atoms: C_1  and  O_2
REMARK    2  A    between atoms: O_2  and  C_3
REMARK    3  A    between atoms: C_8  and  C_9
REMARK    4  A    between atoms: C_12  and  C_14
REMARK    5  A    between atoms: C_14  and  O_15
REMARK    6  A    between atoms: O_15  and  C_16
REMARK    7  A    between atoms: C_16  and  C_18
REMARK    8  A    between atoms: C_21  and  N_22
REMARK                            x       y       z     vdW  Elec       q    Type
REMARK                         _______ _______ _______ _____ _____    ______ ____
ROOT
ATOM      1  C   UNL     1      -0.595  11.393  18.253  0.00  0.00    +0.000 C 
ATOM      2  O   UNL     1       0.074  12.413  18.413  0.00  0.00    +0.000 OA
ATOM      3  N   UNL     1      -0.036  10.135  18.114  0.00  0.00    +0.000 N 
ATOM      4  C   UNL     1       1.331   9.915  18.024  0.00  0.00    +0.000 C 
ATOM      5  O   UNL     1       2.210  10.768  18.137  0.00  0.00    +0.000 OA
ATOM      6  H   UNL     1      -0.665   9.336  18.086  0.00  0.00    +0.000 HD
ENDROOT
BRANCH   1  12
ATOM      7  C   UNL     1      -2.924  11.274  17.111  0.00  0.00    +0.000 A 
ATOM      8  C   UNL     1      -4.303  11.542  17.221  0.00  0.00    +0.000 A 
ATOM      9  C   UNL     1      -4.858  12.030  18.407  0.00  0.00    +0.000 A 
ATOM     10  C   UNL     1      -4.044  12.267  19.502  0.00  0.00    +0.000 A 
ATOM     11  C   UNL     1      -2.675  12.034  19.398  0.00  0.00    +0.000 A 
ATOM     12  C   UNL     1      -2.087  11.548  18.208  0.00  0.00    +0.000 A 
BRANCH   7  14
ATOM     13  C   UNL     1      -3.292  10.327  14.969  0.00  0.00    +0.000 C 
ATOM     14  O   UNL     1      -2.363  10.780  15.959  0.00  0.00    +0.000 OA
ENDBRANCH   7  14
ENDBRANCH   1  12
BRANCH   4  15
ATOM     15  C   UNL     1       1.733   8.462  17.781  0.00  0.00    +0.000 C 
BRANCH  15  16
ATOM     16  O   UNL     1       2.524   7.933  18.845  0.00  0.00    +0.000 OA
BRANCH  16  17
ATOM     17  C   UNL     1       2.648   6.589  18.831  0.00  0.00    +0.000 C 
ATOM     18  O   UNL     1       2.023   5.818  19.549  0.00  0.00    +0.000 OA
BRANCH  17  19
ATOM     19  C   UNL     1       3.649   6.146  17.828  0.00  0.00    +0.000 A 
ATOM     20  C   UNL     1       3.663   4.788  17.476  0.00  0.00    +0.000 A 
ATOM     21  C   UNL     1       4.597   4.302  16.558  0.00  0.00    +0.000 A 
ATOM     22  C   UNL     1       5.528   5.182  15.990  0.00  0.00    +0.000 A 
ATOM     23  C   UNL     1       5.522   6.542  16.331  0.00  0.00    +0.000 A 
ATOM     24  C   UNL     1       4.580   7.022  17.250  0.00  0.00    +0.000 A 
BRANCH  22  25
ATOM     25  N   UNL     1       6.519   4.672  15.034  0.00  0.00    +0.000 N 
ATOM     26  O   UNL     1       7.544   5.346  14.854  0.00  0.00    +0.000 OA
ATOM     27  O   UNL     1       6.272   3.601  14.466  0.00  0.00    +0.000 OA
ENDBRANCH  22  25
ENDBRANCH  17  19
ENDBRANCH  16  17
ENDBRANCH  15  16
ENDBRANCH   4  15
TORSDOF 7
ENDMDL
MODEL 8
REMARK VINA RESULT:      -6.8      3.255      5.593
REMARK  Name = 
REMARK  8 active torsions:
REMARK  status: ('A' for Active; 'I' for Inactive)
REMARK    1  A    between atoms: C_1  and  O_2
REMARK    2  A    between atoms: O_2  and  C_3
REMARK    3  A    between atoms: C_8  and  C_9
REMARK    4  A    between atoms: C_12  and  C_14
REMARK    5  A    between atoms: C_14  and  O_15
REMARK    6  A    between atoms: O_15  and  C_16
REMARK    7  A    between atoms: C_16  and  C_18
REMARK    8  A    between atoms: C_21  and  N_22
REMARK                            x       y       z     vdW  Elec       q    Type
REMARK                         _______ _______ _______ _____ _____    ______ ____
ROOT
ATOM      1  C   UNL     1       4.840   3.915  19.224  0.00  0.00    +0.000 C 
ATOM      2  O   UNL     1       5.580   3.084  19.750  0.00  0.00    +0.000 OA
ATOM      3  N   UNL     1       5.308   5.039  18.568  0.00  0.00    +0.000 N 
ATOM      4  C   UNL     1       6.648   5.401  18.539  0.00  0.00    +0.000 C 
ATOM      5  O   UNL     1       7.582   4.750  19.004  0.00  0.00    +0.000 OA
ATOM      6  H   UNL     1       4.633   5.619  18.076  0.00  0.00    +0.000 HD
ENDROOT
BRANCH   1  12
ATOM      7  C   UNL     1       2.401   4.557  19.841  0.00  0.00    +0.000 A 
ATOM      8  C   UNL     1       1.057   4.140  19.911  0.00  0.00    +0.000 A 
ATOM      9  C   UNL     1       0.654   2.893  19.429  0.00  0.00    +0.000 A 
ATOM     10  C   UNL     1       1.590   2.034  18.875  0.00  0.00    +0.000 A 
ATOM     11  C   UNL     1       2.927   2.421  18.826  0.00  0.00    +0.000 A 
ATOM     12  C   UNL     1       3.361   3.675  19.315  0.00  0.00    +0.000 A 
BRANCH   7  14
ATOM     13  C   UNL     1       2.432   6.900  19.483  0.00  0.00    +0.000 C 
ATOM     14  O   UNL     1       2.812   5.786  20.296  0.00  0.00    +0.000 OA
ENDBRANCH   7  14
ENDBRANCH   1  12
BRANCH   4  15
ATOM     15  C   UNL     1       6.940   6.725  17.838  0.00  0.00    +0.000 C 
BRANCH  15  16
ATOM     16  O   UNL     1       7.077   6.573  16.426  0.00  0.00    +0.000 OA
BRANCH  16  17
ATOM     17  C   UNL     1       5.919   6.334  15.776  0.00  0.00    +0.000 C 
ATOM     18  O   UNL     1       4.843   6.856  16.042  0.00  0.00    +0.000 OA
BRANCH  17  19
ATOM     19  C   UNL     1       6.103   5.346  14.683  0.00  0.00    +0.000 A 
ATOM     20  C   UNL     1       5.030   4.492  14.387  0.00  0.00    +0.000 A 
ATOM     21  C   UNL     1       5.150   3.523  13.388  0.00  0.00    +0.000 A 
ATOM     22  C   UNL     1       6.353   3.407  12.679  0.00  0.00    +0.000 A 
ATOM     23  C   UNL     1       7.430   4.257  12.963  0.00  0.00    +0.000 A 
ATOM     24  C   UNL     1       7.303   5.228  13.965  0.00  0.00    +0.000 A 
BRANCH  22  25
ATOM     25  N   UNL     1       6.485   2.381  11.636  0.00  0.00    +0.000 N 
ATOM     26  O   UNL     1       5.488   1.689  11.381  0.00  0.00    +0.000 OA
ATOM     27  O   UNL     1       7.582   2.270  11.074  0.00  0.00    +0.000 OA
ENDBRANCH  22  25
ENDBRANCH  17  19
ENDBRANCH  16  17
ENDBRANCH  15  16
ENDBRANCH   4  15
TORSDOF 7
ENDMDL
MODEL 9
REMARK VINA RESULT:      -6.8      4.215      5.974
REMARK  Name = 
REMARK  8 active torsions:
REMARK  status: ('A' for Active; 'I' for Inactive)
REMARK    1  A    between atoms: C_1  and  O_2
REMARK    2  A    between atoms: O_2  and  C_3
REMARK    3  A    between atoms: C_8  and  C_9
REMARK    4  A    between atoms: C_12  and  C_14
REMARK    5  A    between atoms: C_14  and  O_15
REMARK    6  A    between atoms: O_15  and  C_16
REMARK    7  A    between atoms: C_16  and  C_18
REMARK    8  A    between atoms: C_21  and  N_22
REMARK                            x       y       z     vdW  Elec       q    Type
REMARK                         _______ _______ _______ _____ _____    ______ ____
ROOT
ATOM      1  C   UNL     1      -1.540  11.147  18.849  0.00  0.00    +0.000 C 
ATOM      2  O   UNL     1      -1.182  11.816  19.817  0.00  0.00    +0.000 OA
ATOM      3  N   UNL     1      -0.745  10.178  18.263  0.00  0.00    +0.000 N 
ATOM      4  C   UNL     1       0.572   9.946  18.634  0.00  0.00    +0.000 C 
ATOM      5  O   UNL     1       1.169  10.493  19.560  0.00  0.00    +0.000 OA
ATOM      6  H   UNL     1      -1.157   9.603  17.532  0.00  0.00    +0.000 HD
ENDROOT
BRANCH   1  12
ATOM      7  C   UNL     1      -3.354  11.129  16.991  0.00  0.00    +0.000 A 
ATOM      8  C   UNL     1      -4.656  11.514  16.615  0.00  0.00    +0.000 A 
ATOM      9  C   UNL     1      -5.524  12.131  17.520  0.00  0.00    +0.000 A 
ATOM     10  C   UNL     1      -5.102  12.383  18.815  0.00  0.00    +0.000 A 
ATOM     11  C   UNL     1      -3.807  12.035  19.192  0.00  0.00    +0.000 A 
ATOM     12  C   UNL     1      -2.908  11.416  18.294  0.00  0.00    +0.000 A 
BRANCH   7  14
ATOM     13  C   UNL     1      -3.022  10.246  14.817  0.00  0.00    +0.000 C 
ATOM     14  O   UNL     1      -2.493  10.509  16.120  0.00  0.00    +0.000 OA
ENDBRANCH   7  14
ENDBRANCH   1  12
BRANCH   4  15
ATOM     15  C   UNL     1       1.298   8.894  17.800  0.00  0.00    +0.000 C 
BRANCH  15  16
ATOM     16  O   UNL     1       2.547   8.513  18.375  0.00  0.00    +0.000 OA
BRANCH  16  17
ATOM     17  C   UNL     1       2.622   7.213  18.732  0.00  0.00    +0.000 C 
ATOM     18  O   UNL     1       1.983   6.696  19.640  0.00  0.00    +0.000 OA
BRANCH  17  19
ATOM     19  C   UNL     1       3.587   6.471  17.882  0.00  0.00    +0.000 A 
ATOM     20  C   UNL     1       4.462   7.220  17.081  0.00  0.00    +0.000 A 
ATOM     21  C   UNL     1       5.375   6.581  16.238  0.00  0.00    +0.000 A 
ATOM     22  C   UNL     1       5.411   5.181  16.195  0.00  0.00    +0.000 A 
ATOM     23  C   UNL     1       4.545   4.422  16.993  0.00  0.00    +0.000 A 
ATOM     24  C   UNL     1       3.633   5.069  17.837  0.00  0.00    +0.000 A 
BRANCH  22  25
ATOM     25  N   UNL     1       6.362   4.507  15.302  0.00  0.00    +0.000 N 
ATOM     26  O   UNL     1       5.900   3.880  14.337  0.00  0.00    +0.000 OA
ATOM     27  O   UNL     1       7.568   4.606  15.564  0.00  0.00    +0.000 OA
ENDBRANCH  22  25
ENDBRANCH  17  19
ENDBRANCH  16  17
ENDBRANCH  15  16
ENDBRANCH   4  15
TORSDOF 7
ENDMDL
