MODEL 1
REMARK VINA RESULT:      -7.5      0.000      0.000
REMARK  Name = 
REMARK  4 active torsions:
REMARK  status: ('A' for Active; 'I' for Inactive)
REMARK    1  A    between atoms: C_1  and  C_2
REMARK    2  A    between atoms: C_4  and  C_5
REMARK    3  A    between atoms: C_5  and  C_6
REMARK    4  A    between atoms: N_11  and  C_12
REMARK                            x       y       z     vdW  Elec       q    Type
REMARK                         _______ _______ _______ _____ _____    ______ ____
ROOT
ATOM      1  C   UNL     1       0.448  10.520  19.909  0.00  0.00    +0.000 C 
ATOM      2  O   UNL     1       0.044  10.856  21.027  0.00  0.00    +0.000 OA
ATOM      3  N   UNL     1       1.206   9.379  19.718  0.00  0.00    +0.000 N 
ATOM      4  C   UNL     1       1.481   8.491  20.859  0.00  0.00    +0.000 C 
ATOM      5  C   UNL     1       1.440   7.003  20.446  0.00  0.00    +0.000 C 
ATOM      6  N   UNL     1       2.324   6.810  19.280  0.00  0.00    +0.000 N 
ATOM      7  C   UNL     1       1.951   7.634  18.119  0.00  0.00    +0.000 C 
ATOM      8  C   UNL     1       2.035   9.116  18.529  0.00  0.00    +0.000 C 
ENDROOT
BRANCH   6   9
ATOM      9  C   UNL     1       3.200   5.744  19.184  0.00  0.00    +0.000 A 
ATOM     10  C   UNL     1       4.592   5.936  19.263  0.00  0.00    +0.000 A 
ATOM     11  N   UNL     1       5.540   4.973  19.181  0.00  0.00    +0.000 NA
ATOM     12  C   UNL     1       5.087   3.715  19.017  0.00  0.00    +0.000 A 
ATOM     13  C   UNL     1       3.744   3.362  18.919  0.00  0.00    +0.000 A 
ATOM     14  C   UNL     1       3.358   2.018  18.755  0.00  0.00    +0.000 A 
ATOM     15  C   UNL     1       2.018   1.663  18.631  0.00  0.00    +0.000 A 
ATOM     16  C   UNL     1       1.051   2.654  18.629  0.00  0.00    +0.000 A 
ATOM     17  C   UNL     1       1.431   3.990  18.758  0.00  0.00    +0.000 A 
ATOM     18  C   UNL     1       2.778   4.395  18.971  0.00  0.00    +0.000 A 
ENDBRANCH   6   9
BRANCH   1  19
ATOM     19  C   UNL     1       0.056  11.328  18.687  0.00  0.00    +0.000 C 
BRANCH  19  23
ATOM     20  C   UNL     1      -4.951  10.989  17.789  0.00  0.00    +0.000 C 
ATOM     21  C   UNL     1      -3.486  10.814  17.880  0.00  0.00    +0.000 A 
ATOM     22  C   UNL     1      -2.533  11.691  18.442  0.00  0.00    +0.000 A 
ATOM     23  C   UNL     1      -1.336  11.036  18.291  0.00  0.00    +0.000 A 
ATOM     24  O   UNL     1      -1.554   9.846  17.668  0.00  0.00    +0.000 OA
ATOM     25  N   UNL     1      -2.904   9.707  17.400  0.00  0.00    +0.000 NA
ENDBRANCH  19  23
ENDBRANCH   1  19
TORSDOF 3
ENDMDL
MODEL 2
REMARK VINA RESULT:      -7.4      3.075      8.053
REMARK  Name = 
REMARK  4 active torsions:
REMARK  status: ('A' for Active; 'I' for Inactive)
REMARK    1  A    between atoms: C_1  and  C_2
REMARK    2  A    between atoms: C_4  and  C_5
REMARK    3  A    between atoms: C_5  and  C_6
REMARK    4  A    between atoms: N_11  and  C_12
REMARK                            x       y       z     vdW  Elec       q    Type
REMARK                         _______ _______ _______ _____ _____    ______ ____
ROOT
ATOM      1  C   UNL     1       3.118   3.955  19.269  0.00  0.00    +0.000 C 
ATOM      2  O   UNL     1       2.815   3.069  20.074  0.00  0.00    +0.000 OA
ATOM      3  N   UNL     1       2.530   5.207  19.305  0.00  0.00    +0.000 N 
ATOM      4  C   UNL     1       1.572   5.529  20.373  0.00  0.00    +0.000 C 
ATOM      5  C   UNL     1       1.732   6.985  20.863  0.00  0.00    +0.000 C 
ATOM      6  N   UNL     1       1.686   7.885  19.695  0.00  0.00    +0.000 N 
ATOM      7  C   UNL     1       2.732   7.604  18.697  0.00  0.00    +0.000 C 
ATOM      8  C   UNL     1       2.537   6.164  18.185  0.00  0.00    +0.000 C 
ENDROOT
BRANCH   6   9
ATOM      9  C   UNL     1       0.955   9.058  19.693  0.00  0.00    +0.000 A 
ATOM     10  C   UNL     1       0.774   9.802  18.511  0.00  0.00    +0.000 A 
ATOM     11  N   UNL     1       0.083  10.959  18.390  0.00  0.00    +0.000 NA
ATOM     12  C   UNL     1      -0.490  11.423  19.517  0.00  0.00    +0.000 A 
ATOM     13  C   UNL     1      -0.403  10.806  20.762  0.00  0.00    +0.000 A 
ATOM     14  C   UNL     1      -1.040  11.358  21.890  0.00  0.00    +0.000 A 
ATOM     15  C   UNL     1      -0.935  10.758  23.142  0.00  0.00    +0.000 A 
ATOM     16  C   UNL     1      -0.158   9.622  23.287  0.00  0.00    +0.000 A 
ATOM     17  C   UNL     1       0.501   9.090  22.179  0.00  0.00    +0.000 A 
ATOM     18  C   UNL     1       0.358   9.617  20.865  0.00  0.00    +0.000 A 
ENDBRANCH   6   9
BRANCH   1  19
ATOM     19  C   UNL     1       4.212   3.710  18.248  0.00  0.00    +0.000 C 
BRANCH  19  23
ATOM     20  C   UNL     1       8.043   7.074  18.277  0.00  0.00    +0.000 C 
ATOM     21  C   UNL     1       7.043   6.023  18.561  0.00  0.00    +0.000 A 
ATOM     22  C   UNL     1       5.928   5.642  17.783  0.00  0.00    +0.000 A 
ATOM     23  C   UNL     1       5.359   4.609  18.485  0.00  0.00    +0.000 A 
ATOM     24  O   UNL     1       6.079   4.391  19.619  0.00  0.00    +0.000 OA
ATOM     25  N   UNL     1       7.133   5.285  19.675  0.00  0.00    +0.000 NA
ENDBRANCH  19  23
ENDBRANCH   1  19
TORSDOF 3
ENDMDL
MODEL 3
REMARK VINA RESULT:      -7.2      3.852      8.263
REMARK  Name = 
REMARK  4 active torsions:
REMARK  status: ('A' for Active; 'I' for Inactive)
REMARK    1  A    between atoms: C_1  and  C_2
REMARK    2  A    between atoms: C_4  and  C_5
REMARK    3  A    between atoms: C_5  and  C_6
REMARK    4  A    between atoms: N_11  and  C_12
REMARK                            x       y       z     vdW  Elec       q    Type
REMARK                         _______ _______ _______ _____ _____    ______ ____
ROOT
ATOM      1  C   UNL     1       4.926   4.529  17.834  0.00  0.00    +0.000 C 
ATOM      2  O   UNL     1       4.625   3.351  18.052  0.00  0.00    +0.000 OA
ATOM      3  N   UNL     1       4.028   5.562  18.035  0.00  0.00    +0.000 N 
ATOM      4  C   UNL     1       2.700   5.272  18.597  0.00  0.00    +0.000 C 
ATOM      5  C   UNL     1       2.243   6.372  19.579  0.00  0.00    +0.000 C 
ATOM      6  N   UNL     1       2.361   7.682  18.910  0.00  0.00    +0.000 N 
ATOM      7  C   UNL     1       3.729   7.989  18.459  0.00  0.00    +0.000 C 
ATOM      8  C   UNL     1       4.159   6.908  17.450  0.00  0.00    +0.000 C 
ENDROOT
BRANCH   6   9
ATOM      9  C   UNL     1       1.373   8.646  18.988  0.00  0.00    +0.000 A 
ATOM     10  C   UNL     1       0.816   9.214  17.827  0.00  0.00    +0.000 A 
ATOM     11  N   UNL     1      -0.150  10.161  17.781  0.00  0.00    +0.000 NA
ATOM     12  C   UNL     1      -0.621  10.578  18.972  0.00  0.00    +0.000 A 
ATOM     13  C   UNL     1      -0.174  10.116  20.207  0.00  0.00    +0.000 A 
ATOM     14  C   UNL     1      -0.727  10.605  21.406  0.00  0.00    +0.000 A 
ATOM     15  C   UNL     1      -0.267  10.164  22.644  0.00  0.00    +0.000 A 
ATOM     16  C   UNL     1       0.781   9.260  22.695  0.00  0.00    +0.000 A 
ATOM     17  C   UNL     1       1.353   8.798  21.511  0.00  0.00    +0.000 A 
ATOM     18  C   UNL     1       0.864   9.154  20.223  0.00  0.00    +0.000 A 
ENDBRANCH   6   9
BRANCH   1  19
ATOM     19  C   UNL     1       6.335   4.883  17.398  0.00  0.00    +0.000 C 
BRANCH  19  23
ATOM     20  C   UNL     1       6.380   3.633  12.455  0.00  0.00    +0.000 C 
ATOM     21  C   UNL     1       6.570   4.228  13.795  0.00  0.00    +0.000 A 
ATOM     22  C   UNL     1       5.923   3.887  15.004  0.00  0.00    +0.000 A 
ATOM     23  C   UNL     1       6.486   4.720  15.938  0.00  0.00    +0.000 A 
ATOM     24  O   UNL     1       7.404   5.518  15.329  0.00  0.00    +0.000 OA
ATOM     25  N   UNL     1       7.453   5.217  13.980  0.00  0.00    +0.000 NA
ENDBRANCH  19  23
ENDBRANCH   1  19
TORSDOF 3
ENDMDL
MODEL 4
REMARK VINA RESULT:      -7.2      2.778      3.521
REMARK  Name = 
REMARK  4 active torsions:
REMARK  status: ('A' for Active; 'I' for Inactive)
REMARK    1  A    between atoms: C_1  and  C_2
REMARK    2  A    between atoms: C_4  and  C_5
REMARK    3  A    between atoms: C_5  and  C_6
REMARK    4  A    between atoms: N_11  and  C_12
REMARK                            x       y       z     vdW  Elec       q    Type
REMARK                         _______ _______ _______ _____ _____    ______ ____
ROOT
ATOM      1  C   UNL     1      -0.327  10.551  21.058  0.00  0.00    +0.000 C 
ATOM      2  O   UNL     1      -0.758  11.484  20.373  0.00  0.00    +0.000 OA
ATOM      3  N   UNL     1       0.349   9.483  20.495  0.00  0.00    +0.000 N 
ATOM      4  C   UNL     1       0.636   9.483  19.052  0.00  0.00    +0.000 C 
ATOM      5  C   UNL     1       2.029   8.891  18.747  0.00  0.00    +0.000 C 
ATOM      6  N   UNL     1       2.137   7.573  19.401  0.00  0.00    +0.000 N 
ATOM      7  C   UNL     1       1.955   7.627  20.861  0.00  0.00    +0.000 C 
ATOM      8  C   UNL     1       0.547   8.180  21.153  0.00  0.00    +0.000 C 
ENDROOT
BRANCH   6   9
ATOM      9  C   UNL     1       2.668   6.469  18.760  0.00  0.00    +0.000 A 
ATOM     10  C   UNL     1       3.643   6.611  17.755  0.00  0.00    +0.000 A 
ATOM     11  N   UNL     1       4.231   5.608  17.061  0.00  0.00    +0.000 NA
ATOM     12  C   UNL     1       3.839   4.361  17.385  0.00  0.00    +0.000 A 
ATOM     13  C   UNL     1       2.887   4.055  18.353  0.00  0.00    +0.000 A 
ATOM     14  C   UNL     1       2.541   2.719  18.633  0.00  0.00    +0.000 A 
ATOM     15  C   UNL     1       1.571   2.410  19.583  0.00  0.00    +0.000 A 
ATOM     16  C   UNL     1       0.907   3.436  20.232  0.00  0.00    +0.000 A 
ATOM     17  C   UNL     1       1.223   4.761  19.935  0.00  0.00    +0.000 A 
ATOM     18  C   UNL     1       2.263   5.127  19.035  0.00  0.00    +0.000 A 
ENDBRANCH   6   9
BRANCH   1  19
ATOM     19  C   UNL     1      -0.470  10.588  22.567  0.00  0.00    +0.000 C 
BRANCH  19  23
ATOM     20  C   UNL     1      -3.766  14.276  23.804  0.00  0.00    +0.000 C 
ATOM     21  C   UNL     1      -2.589  13.427  23.523  0.00  0.00    +0.000 A 
ATOM     22  C   UNL     1      -2.560  12.063  23.158  0.00  0.00    +0.000 A 
ATOM     23  C   UNL     1      -1.227  11.783  22.990  0.00  0.00    +0.000 A 
ATOM     24  O   UNL     1      -0.500  12.904  23.250  0.00  0.00    +0.000 OA
ATOM     25  N   UNL     1      -1.353  13.937  23.594  0.00  0.00    +0.000 NA
ENDBRANCH  19  23
ENDBRANCH   1  19
TORSDOF 3
ENDMDL
MODEL 5
REMARK VINA RESULT:      -7.1      3.264      7.935
REMARK  Name = 
REMARK  4 active torsions:
REMARK  status: ('A' for Active; 'I' for Inactive)
REMARK    1  A    between atoms: C_1  and  C_2
REMARK    2  A    between atoms: C_4  and  C_5
REMARK    3  A    between atoms: C_5  and  C_6
REMARK    4  A    between atoms: N_11  and  C_12
REMARK                            x       y       z     vdW  Elec       q    Type
REMARK                         _______ _______ _______ _____ _____    ______ ____
ROOT
ATOM      1  C   UNL     1       2.368   3.232  19.350  0.00  0.00    +0.000 C 
ATOM      2  O   UNL     1       2.017   2.496  20.277  0.00  0.00    +0.000 OA
ATOM      3  N   UNL     1       2.081   4.586  19.342  0.00  0.00    +0.000 N 
ATOM      4  C   UNL     1       1.407   5.192  20.501  0.00  0.00    +0.000 C 
ATOM      5  C   UNL     1       1.960   6.601  20.810  0.00  0.00    +0.000 C 
ATOM      6  N   UNL     1       1.917   7.407  19.575  0.00  0.00    +0.000 N 
ATOM      7  C   UNL     1       2.695   6.826  18.469  0.00  0.00    +0.000 C 
ATOM      8  C   UNL     1       2.110   5.439  18.142  0.00  0.00    +0.000 C 
ENDROOT
BRANCH   6   9
ATOM      9  C   UNL     1       1.469   8.715  19.559  0.00  0.00    +0.000 A 
ATOM     10  C   UNL     1       1.676   9.543  18.440  0.00  0.00    +0.000 A 
ATOM     11  N   UNL     1       1.285  10.832  18.313  0.00  0.00    +0.000 NA
ATOM     12  C   UNL     1       0.625  11.353  19.365  0.00  0.00    +0.000 A 
ATOM     13  C   UNL     1       0.344  10.666  20.543  0.00  0.00    +0.000 A 
ATOM     14  C   UNL     1      -0.358  11.288  21.594  0.00  0.00    +0.000 A 
ATOM     15  C   UNL     1      -0.620  10.613  22.783  0.00  0.00    +0.000 A 
ATOM     16  C   UNL     1      -0.147   9.323  22.949  0.00  0.00    +0.000 A 
ATOM     17  C   UNL     1       0.577   8.715  21.924  0.00  0.00    +0.000 A 
ATOM     18  C   UNL     1       0.798   9.331  20.661  0.00  0.00    +0.000 A 
ENDBRANCH   6   9
BRANCH   1  19
ATOM     19  C   UNL     1       3.196   2.673  18.210  0.00  0.00    +0.000 C 
BRANCH  19  23
ATOM     20  C   UNL     1       7.356   5.268  16.809  0.00  0.00    +0.000 C 
ATOM     21  C   UNL     1       6.269   4.554  17.512  0.00  0.00    +0.000 A 
ATOM     22  C   UNL     1       5.076   4.025  16.972  0.00  0.00    +0.000 A 
ATOM     23  C   UNL     1       4.444   3.446  18.043  0.00  0.00    +0.000 A 
ATOM     24  O   UNL     1       5.202   3.625  19.158  0.00  0.00    +0.000 OA
ATOM     25  N   UNL     1       6.346   4.329  18.830  0.00  0.00    +0.000 NA
ENDBRANCH  19  23
ENDBRANCH   1  19
TORSDOF 3
ENDMDL
MODEL 6
REMARK VINA RESULT:      -7.1      2.915      7.980
REMARK  Name = 
REMARK  4 active torsions:
REMARK  status: ('A' for Active; 'I' for Inactive)
REMARK    1  A    between atoms: C_1  and  C_2
REMARK    2  A    between atoms: C_4  and  C_5
REMARK    3  A    between atoms: C_5  and  C_6
REMARK    4  A    between atoms: N_11  and  C_12
REMARK                            x       y       z     vdW  Elec       q    Type
REMARK                         _______ _______ _______ _____ _____    ______ ____
ROOT
ATOM      1  C   UNL     1       3.152   5.225  18.670  0.00  0.00    +0.000 C 
ATOM      2  O   UNL     1       3.146   4.289  19.476  0.00  0.00    +0.000 OA
ATOM      3  N   UNL     1       2.440   6.390  18.897  0.00  0.00    +0.000 N 
ATOM      4  C   UNL     1       1.712   6.562  20.164  0.00  0.00    +0.000 C 
ATOM      5  C   UNL     1       1.802   8.015  20.680  0.00  0.00    +0.000 C 
ATOM      6  N   UNL     1       1.387   8.928  19.597  0.00  0.00    +0.000 N 
ATOM      7  C   UNL     1       2.209   8.806  18.382  0.00  0.00    +0.000 C 
ATOM      8  C   UNL     1       2.081   7.365  17.853  0.00  0.00    +0.000 C 
ENDROOT
BRANCH   6   9
ATOM      9  C   UNL     1       0.537   9.996  19.814  0.00  0.00    +0.000 A 
ATOM     10  C   UNL     1       0.675  10.818  20.949  0.00  0.00    +0.000 A 
ATOM     11  N   UNL     1      -0.095  11.885  21.265  0.00  0.00    +0.000 NA
ATOM     12  C   UNL     1      -1.076  12.181  20.392  0.00  0.00    +0.000 A 
ATOM     13  C   UNL     1      -1.343  11.466  19.227  0.00  0.00    +0.000 A 
ATOM     14  C   UNL     1      -2.388  11.850  18.365  0.00  0.00    +0.000 A 
ATOM     15  C   UNL     1      -2.674  11.124  17.212  0.00  0.00    +0.000 A 
ATOM     16  C   UNL     1      -1.944   9.982  16.931  0.00  0.00    +0.000 A 
ATOM     17  C   UNL     1      -0.929   9.580  17.799  0.00  0.00    +0.000 A 
ATOM     18  C   UNL     1      -0.544  10.333  18.943  0.00  0.00    +0.000 A 
ENDBRANCH   6   9
BRANCH   1  19
ATOM     19  C   UNL     1       4.011   5.147  17.423  0.00  0.00    +0.000 C 
BRANCH  19  23
ATOM     20  C   UNL     1       8.077   8.217  17.627  0.00  0.00    +0.000 C 
ATOM     21  C   UNL     1       7.086   7.125  17.734  0.00  0.00    +0.000 A 
ATOM     22  C   UNL     1       5.737   7.123  17.316  0.00  0.00    +0.000 A 
ATOM     23  C   UNL     1       5.287   5.862  17.622  0.00  0.00    +0.000 A 
ATOM     24  O   UNL     1       6.297   5.156  18.198  0.00  0.00    +0.000 OA
ATOM     25  N   UNL     1       7.427   5.950  18.279  0.00  0.00    +0.000 NA
ENDBRANCH  19  23
ENDBRANCH   1  19
TORSDOF 3
ENDMDL
MODEL 7
REMARK VINA RESULT:      -7.1      3.097      7.905
REMARK  Name = 
REMARK  4 active torsions:
REMARK  status: ('A' for Active; 'I' for Inactive)
REMARK    1  A    between atoms: C_1  and  C_2
REMARK    2  A    between atoms: C_4  and  C_5
REMARK    3  A    between atoms: C_5  and  C_6
REMARK    4  A    between atoms: N_11  and  C_12
REMARK                            x       y       z     vdW  Elec       q    Type
REMARK                         _______ _______ _______ _____ _____    ______ ____
ROOT
ATOM      1  C   UNL     1       2.722   3.971  18.408  0.00  0.00    +0.000 C 
ATOM      2  O   UNL     1       2.353   2.866  18.817  0.00  0.00    +0.000 OA
ATOM      3  N   UNL     1       2.246   5.149  18.955  0.00  0.00    +0.000 N 
ATOM      4  C   UNL     1       1.333   5.099  20.108  0.00  0.00    +0.000 C 
ATOM      5  C   UNL     1       1.628   6.230  21.117  0.00  0.00    +0.000 C 
ATOM      6  N   UNL     1       1.645   7.517  20.395  0.00  0.00    +0.000 N 
ATOM      7  C   UNL     1       2.649   7.571  19.319  0.00  0.00    +0.000 C 
ATOM      8  C   UNL     1       2.322   6.466  18.297  0.00  0.00    +0.000 C 
ENDROOT
BRANCH   6   9
ATOM      9  C   UNL     1       1.019   8.649  20.883  0.00  0.00    +0.000 A 
ATOM     10  C   UNL     1       1.085   8.986  22.248  0.00  0.00    +0.000 A 
ATOM     11  N   UNL     1       0.514  10.062  22.837  0.00  0.00    +0.000 NA
ATOM     12  C   UNL     1      -0.171  10.885  22.019  0.00  0.00    +0.000 A 
ATOM     13  C   UNL     1      -0.330  10.690  20.651  0.00  0.00    +0.000 A 
ATOM     14  C   UNL     1      -1.059  11.606  19.868  0.00  0.00    +0.000 A 
ATOM     15  C   UNL     1      -1.242  11.402  18.503  0.00  0.00    +0.000 A 
ATOM     16  C   UNL     1      -0.732  10.258  17.914  0.00  0.00    +0.000 A 
ATOM     17  C   UNL     1      -0.037   9.332  18.691  0.00  0.00    +0.000 A 
ATOM     18  C   UNL     1       0.247   9.535  20.070  0.00  0.00    +0.000 A 
ENDBRANCH   6   9
BRANCH   1  19
ATOM     19  C   UNL     1       3.776   4.064  17.322  0.00  0.00    +0.000 C 
BRANCH  19  23
ATOM     20  C   UNL     1       7.966   6.755  18.419  0.00  0.00    +0.000 C 
ATOM     21  C   UNL     1       6.833   5.807  18.363  0.00  0.00    +0.000 A 
ATOM     22  C   UNL     1       5.734   5.807  17.476  0.00  0.00    +0.000 A 
ATOM     23  C   UNL     1       5.003   4.703  17.839  0.00  0.00    +0.000 A 
ATOM     24  O   UNL     1       5.616   4.087  18.885  0.00  0.00    +0.000 OA
ATOM     25  N   UNL     1       6.762   4.783  19.224  0.00  0.00    +0.000 NA
ENDBRANCH  19  23
ENDBRANCH   1  19
TORSDOF 3
ENDMDL
MODEL 8
REMARK VINA RESULT:      -7.0      2.391      3.349
REMARK  Name = 
REMARK  4 active torsions:
REMARK  status: ('A' for Active; 'I' for Inactive)
REMARK    1  A    between atoms: C_1  and  C_2
REMARK    2  A    between atoms: C_4  and  C_5
REMARK    3  A    between atoms: C_5  and  C_6
REMARK    4  A    between atoms: N_11  and  C_12
REMARK                            x       y       z     vdW  Elec       q    Type
REMARK                         _______ _______ _______ _____ _____    ______ ____
ROOT
ATOM      1  C   UNL     1       0.156  10.211  20.197  0.00  0.00    +0.000 C 
ATOM      2  O   UNL     1      -0.328  11.094  19.483  0.00  0.00    +0.000 OA
ATOM      3  N   UNL     1       0.852   9.139  19.666  0.00  0.00    +0.000 N 
ATOM      4  C   UNL     1       1.095   9.078  18.216  0.00  0.00    +0.000 C 
ATOM      5  C   UNL     1       2.498   8.519  17.896  0.00  0.00    +0.000 C 
ATOM      6  N   UNL     1       2.672   7.239  18.609  0.00  0.00    +0.000 N 
ATOM      7  C   UNL     1       2.532   7.358  20.070  0.00  0.00    +0.000 C 
ATOM      8  C   UNL     1       1.115   7.878  20.379  0.00  0.00    +0.000 C 
ENDROOT
BRANCH   6   9
ATOM      9  C   UNL     1       3.222   6.124  18.005  0.00  0.00    +0.000 A 
ATOM     10  C   UNL     1       4.336   6.233  17.152  0.00  0.00    +0.000 A 
ATOM     11  N   UNL     1       4.955   5.216  16.507  0.00  0.00    +0.000 NA
ATOM     12  C   UNL     1       4.449   3.987  16.725  0.00  0.00    +0.000 A 
ATOM     13  C   UNL     1       3.353   3.714  17.538  0.00  0.00    +0.000 A 
ATOM     14  C   UNL     1       2.892   2.395  17.715  0.00  0.00    +0.000 A 
ATOM     15  C   UNL     1       1.781   2.120  18.508  0.00  0.00    +0.000 A 
ATOM     16  C   UNL     1       1.094   3.166  19.099  0.00  0.00    +0.000 A 
ATOM     17  C   UNL     1       1.527   4.477  18.900  0.00  0.00    +0.000 A 
ATOM     18  C   UNL     1       2.703   4.802  18.169  0.00  0.00    +0.000 A 
ENDBRANCH   6   9
BRANCH   1  19
ATOM     19  C   UNL     1       0.057  10.317  21.707  0.00  0.00    +0.000 C 
BRANCH  19  23
ATOM     20  C   UNL     1      -1.612  14.876  23.266  0.00  0.00    +0.000 C 
ATOM     21  C   UNL     1      -0.855  13.714  22.754  0.00  0.00    +0.000 A 
ATOM     22  C   UNL     1      -1.255  12.360  22.706  0.00  0.00    +0.000 A 
ATOM     23  C   UNL     1      -0.198  11.713  22.116  0.00  0.00    +0.000 A 
ATOM     24  O   UNL     1       0.779  12.617  21.838  0.00  0.00    +0.000 OA
ATOM     25  N   UNL     1       0.373  13.875  22.246  0.00  0.00    +0.000 NA
ENDBRANCH  19  23
ENDBRANCH   1  19
TORSDOF 3
ENDMDL
MODEL 9
REMARK VINA RESULT:      -7.0      2.670      3.876
REMARK  Name = 
REMARK  4 active torsions:
REMARK  status: ('A' for Active; 'I' for Inactive)
REMARK    1  A    between atoms: C_1  and  C_2
REMARK    2  A    between atoms: C_4  and  C_5
REMARK    3  A    between atoms: C_5  and  C_6
REMARK    4  A    between atoms: N_11  and  C_12
REMARK                            x       y       z     vdW  Elec       q    Type
REMARK                         _______ _______ _______ _____ _____    ______ ____
ROOT
ATOM      1  C   UNL     1       0.598  10.705  20.146  0.00  0.00    +0.000 C 
ATOM      2  O   UNL     1       0.136  11.580  19.408  0.00  0.00    +0.000 OA
ATOM      3  N   UNL     1       1.021   9.482  19.655  0.00  0.00    +0.000 N 
ATOM      4  C   UNL     1       0.998   9.234  18.206  0.00  0.00    +0.000 C 
ATOM      5  C   UNL     1       2.224   8.415  17.748  0.00  0.00    +0.000 C 
ATOM      6  N   UNL     1       2.323   7.203  18.583  0.00  0.00    +0.000 N 
ATOM      7  C   UNL     1       2.458   7.492  20.021  0.00  0.00    +0.000 C 
ATOM      8  C   UNL     1       1.211   8.274  20.476  0.00  0.00    +0.000 C 
ENDROOT
BRANCH   6   9
ATOM      9  C   UNL     1       2.586   5.955  18.050  0.00  0.00    +0.000 A 
ATOM     10  C   UNL     1       1.609   4.942  18.049  0.00  0.00    +0.000 A 
ATOM     11  N   UNL     1       1.752   3.689  17.559  0.00  0.00    +0.000 NA
ATOM     12  C   UNL     1       2.950   3.405  17.013  0.00  0.00    +0.000 A 
ATOM     13  C   UNL     1       4.018   4.295  16.938  0.00  0.00    +0.000 A 
ATOM     14  C   UNL     1       5.236   3.916  16.343  0.00  0.00    +0.000 A 
ATOM     15  C   UNL     1       6.316   4.794  16.288  0.00  0.00    +0.000 A 
ATOM     16  C   UNL     1       6.200   6.047  16.866  0.00  0.00    +0.000 A 
ATOM     17  C   UNL     1       5.006   6.415  17.485  0.00  0.00    +0.000 A 
ATOM     18  C   UNL     1       3.850   5.586  17.493  0.00  0.00    +0.000 A 
ENDBRANCH   6   9
BRANCH   1  19
ATOM     19  C   UNL     1       0.779  10.980  21.627  0.00  0.00    +0.000 C 
BRANCH  19  23
ATOM     20  C   UNL     1      -3.616  12.488  23.725  0.00  0.00    +0.000 C 
ATOM     21  C   UNL     1      -2.304  12.364  23.055  0.00  0.00    +0.000 A 
ATOM     22  C   UNL     1      -1.504  11.210  22.902  0.00  0.00    +0.000 A 
ATOM     23  C   UNL     1      -0.416  11.642  22.185  0.00  0.00    +0.000 A 
ATOM     24  O   UNL     1      -0.548  12.973  21.933  0.00  0.00    +0.000 OA
ATOM     25  N   UNL     1      -1.729  13.432  22.487  0.00  0.00    +0.000 NA
ENDBRANCH  19  23
ENDBRANCH   1  19
TORSDOF 3
ENDMDL
