MODEL 1
REMARK VINA RESULT:      -6.4      0.000      0.000
REMARK  Name = 
REMARK  8 active torsions:
REMARK  status: ('A' for Active; 'I' for Inactive)
REMARK    1  A    between atoms: N_1  and  C_2
REMARK    2  A    between atoms: C_2  and  C_3
REMARK    3  A    between atoms: C_3  and  C_4
REMARK    4  A    between atoms: C_4  and  O_5
REMARK    5  A    between atoms: O_5  and  N_6
REMARK    6  A    between atoms: C_7  and  C_8
REMARK    7  A    between atoms: C_12  and  C_13
REMARK    8  A    between atoms: C_13  and  O_15
REMARK                            x       y       z     vdW  Elec       q    Type
REMARK                         _______ _______ _______ _____ _____    ______ ____
ROOT
ATOM      1  C   UNL     1       3.880   4.396  17.092  0.00  0.00    +0.000 A 
ATOM      2  C   UNL     1       3.789   5.722  17.526  0.00  0.00    +0.000 A 
ATOM      3  C   UNL     1       4.651   6.679  16.993  0.00  0.00    +0.000 A 
ATOM      4  C   UNL     1       5.592   6.313  16.026  0.00  0.00    +0.000 A 
ATOM      5  C   UNL     1       5.680   4.985  15.582  0.00  0.00    +0.000 A 
ATOM      6  C   UNL     1       4.832   4.020  16.132  0.00  0.00    +0.000 A 
ENDROOT
BRANCH   1   8
ATOM      7  N   UNL     1       3.193   2.819  18.780  0.00  0.00    +0.000 NA
ATOM      8  C   UNL     1       2.955   3.386  17.641  0.00  0.00    +0.000 C 
BRANCH   7   9
ATOM      9  O   UNL     1       2.174   1.901  19.064  0.00  0.00    +0.000 OA
BRANCH   9  10
ATOM     10  C   UNL     1       0.944   2.621  19.183  0.00  0.00    +0.000 C 
BRANCH  10  11
ATOM     11  C   UNL     1       1.011   3.492  20.431  0.00  0.00    +0.000 C 
BRANCH  11  12
ATOM     12  C   UNL     1       1.317   2.665  21.675  0.00  0.00    +0.000 C 
BRANCH  12  13
ATOM     13  N   UNL     1       2.757   2.594  21.892  0.00  0.00    +0.000 NA
ATOM     14  H   UNL     1       3.245   3.017  21.102  0.00  0.00    +0.000 HD
ATOM     15  H   UNL     1       3.056   1.620  21.924  0.00  0.00    +0.000 HD
ENDBRANCH  12  13
ENDBRANCH  11  12
ENDBRANCH  10  11
ENDBRANCH   9  10
ENDBRANCH   7   9
ENDBRANCH   1   8
BRANCH   5  16
ATOM     16  C   UNL     1       6.717   4.659  14.570  0.00  0.00    +0.000 C 
ATOM     17  O   UNL     1       7.692   5.371  14.387  0.00  0.00    +0.000 OA
BRANCH  16  18
ATOM     18  O   UNL     1       6.475   3.553  13.836  0.00  0.00    +0.000 OA
ATOM     19  H   UNL     1       7.111   3.358  13.124  0.00  0.00    +0.000 HD
ENDBRANCH  16  18
ENDBRANCH   5  16
TORSDOF 8
ENDMDL
MODEL 2
REMARK VINA RESULT:      -6.2      1.603      1.891
REMARK  Name = 
REMARK  8 active torsions:
REMARK  status: ('A' for Active; 'I' for Inactive)
REMARK    1  A    between atoms: N_1  and  C_2
REMARK    2  A    between atoms: C_2  and  C_3
REMARK    3  A    between atoms: C_3  and  C_4
REMARK    4  A    between atoms: C_4  and  O_5
REMARK    5  A    between atoms: O_5  and  N_6
REMARK    6  A    between atoms: C_7  and  C_8
REMARK    7  A    between atoms: C_12  and  C_13
REMARK    8  A    between atoms: C_13  and  O_15
REMARK                            x       y       z     vdW  Elec       q    Type
REMARK                         _______ _______ _______ _____ _____    ______ ____
ROOT
ATOM      1  C   UNL     1       4.749   4.167  17.254  0.00  0.00    +0.000 A 
ATOM      2  C   UNL     1       5.688   4.420  18.257  0.00  0.00    +0.000 A 
ATOM      3  C   UNL     1       6.999   4.741  17.905  0.00  0.00    +0.000 A 
ATOM      4  C   UNL     1       7.363   4.815  16.558  0.00  0.00    +0.000 A 
ATOM      5  C   UNL     1       6.421   4.570  15.549  0.00  0.00    +0.000 A 
ATOM      6  C   UNL     1       5.113   4.227  15.900  0.00  0.00    +0.000 A 
ENDROOT
BRANCH   1   8
ATOM      7  N   UNL     1       2.483   4.788  17.794  0.00  0.00    +0.000 NA
ATOM      8  C   UNL     1       3.357   3.847  17.625  0.00  0.00    +0.000 C 
BRANCH   7   9
ATOM      9  O   UNL     1       1.252   4.221  18.147  0.00  0.00    +0.000 OA
BRANCH   9  10
ATOM     10  C   UNL     1       1.507   3.059  18.942  0.00  0.00    +0.000 C 
BRANCH  10  11
ATOM     11  C   UNL     1       0.943   3.293  20.337  0.00  0.00    +0.000 C 
BRANCH  11  12
ATOM     12  C   UNL     1       2.017   3.786  21.299  0.00  0.00    +0.000 C 
BRANCH  12  13
ATOM     13  N   UNL     1       2.414   5.148  20.960  0.00  0.00    +0.000 NA
ATOM     14  H   UNL     1       3.253   5.126  20.382  0.00  0.00    +0.000 HD
ATOM     15  H   UNL     1       2.664   5.658  21.806  0.00  0.00    +0.000 HD
ENDBRANCH  12  13
ENDBRANCH  11  12
ENDBRANCH  10  11
ENDBRANCH   9  10
ENDBRANCH   7   9
ENDBRANCH   1   8
BRANCH   5  16
ATOM     16  C   UNL     1       6.879   4.642  14.138  0.00  0.00    +0.000 C 
ATOM     17  O   UNL     1       6.444   3.895  13.274  0.00  0.00    +0.000 OA
BRANCH  16  18
ATOM     18  O   UNL     1       7.844   5.553  13.893  0.00  0.00    +0.000 OA
ATOM     19  H   UNL     1       7.747   6.416  14.334  0.00  0.00    +0.000 HD
ENDBRANCH  16  18
ENDBRANCH   5  16
TORSDOF 8
ENDMDL
MODEL 3
REMARK VINA RESULT:      -6.2      1.160      1.460
REMARK  Name = 
REMARK  8 active torsions:
REMARK  status: ('A' for Active; 'I' for Inactive)
REMARK    1  A    between atoms: N_1  and  C_2
REMARK    2  A    between atoms: C_2  and  C_3
REMARK    3  A    between atoms: C_3  and  C_4
REMARK    4  A    between atoms: C_4  and  O_5
REMARK    5  A    between atoms: O_5  and  N_6
REMARK    6  A    between atoms: C_7  and  C_8
REMARK    7  A    between atoms: C_12  and  C_13
REMARK    8  A    between atoms: C_13  and  O_15
REMARK                            x       y       z     vdW  Elec       q    Type
REMARK                         _______ _______ _______ _____ _____    ______ ____
ROOT
ATOM      1  C   UNL     1       4.760   4.016  17.705  0.00  0.00    +0.000 A 
ATOM      2  C   UNL     1       5.646   4.542  18.649  0.00  0.00    +0.000 A 
ATOM      3  C   UNL     1       6.872   5.055  18.226  0.00  0.00    +0.000 A 
ATOM      4  C   UNL     1       7.203   5.049  16.868  0.00  0.00    +0.000 A 
ATOM      5  C   UNL     1       6.311   4.529  15.918  0.00  0.00    +0.000 A 
ATOM      6  C   UNL     1       5.092   3.994  16.342  0.00  0.00    +0.000 A 
ENDROOT
BRANCH   1   8
ATOM      7  N   UNL     1       3.376   2.383  18.815  0.00  0.00    +0.000 NA
ATOM      8  C   UNL     1       3.454   3.490  18.148  0.00  0.00    +0.000 C 
BRANCH   7   9
ATOM      9  O   UNL     1       2.034   2.106  19.103  0.00  0.00    +0.000 OA
BRANCH   9  10
ATOM     10  C   UNL     1       1.305   3.336  19.060  0.00  0.00    +0.000 C 
BRANCH  10  11
ATOM     11  C   UNL     1       1.031   3.787  20.488  0.00  0.00    +0.000 C 
BRANCH  11  12
ATOM     12  C   UNL     1       1.277   2.663  21.488  0.00  0.00    +0.000 C 
BRANCH  12  13
ATOM     13  N   UNL     1       2.671   2.664  21.916  0.00  0.00    +0.000 NA
ATOM     14  H   UNL     1       2.733   2.985  22.882  0.00  0.00    +0.000 HD
ATOM     15  H   UNL     1       3.205   3.330  21.359  0.00  0.00    +0.000 HD
ENDBRANCH  12  13
ENDBRANCH  11  12
ENDBRANCH  10  11
ENDBRANCH   9  10
ENDBRANCH   7   9
ENDBRANCH   1   8
BRANCH   5  16
ATOM     16  C   UNL     1       6.734   4.532  14.494  0.00  0.00    +0.000 C 
ATOM     17  O   UNL     1       6.253   3.766  13.673  0.00  0.00    +0.000 OA
BRANCH  16  18
ATOM     18  O   UNL     1       7.720   5.401  14.189  0.00  0.00    +0.000 OA
ATOM     19  H   UNL     1       7.630   6.302  14.549  0.00  0.00    +0.000 HD
ENDBRANCH  16  18
ENDBRANCH   5  16
TORSDOF 8
ENDMDL
MODEL 4
REMARK VINA RESULT:      -6.1      2.333      2.703
REMARK  Name = 
REMARK  8 active torsions:
REMARK  status: ('A' for Active; 'I' for Inactive)
REMARK    1  A    between atoms: N_1  and  C_2
REMARK    2  A    between atoms: C_2  and  C_3
REMARK    3  A    between atoms: C_3  and  C_4
REMARK    4  A    between atoms: C_4  and  O_5
REMARK    5  A    between atoms: O_5  and  N_6
REMARK    6  A    between atoms: C_7  and  C_8
REMARK    7  A    between atoms: C_12  and  C_13
REMARK    8  A    between atoms: C_13  and  O_15
REMARK                            x       y       z     vdW  Elec       q    Type
REMARK                         _______ _______ _______ _____ _____    ______ ____
ROOT
ATOM      1  C   UNL     1       4.768   4.181  17.457  0.00  0.00    +0.000 A 
ATOM      2  C   UNL     1       4.759   4.768  16.189  0.00  0.00    +0.000 A 
ATOM      3  C   UNL     1       5.690   5.763  15.887  0.00  0.00    +0.000 A 
ATOM      4  C   UNL     1       6.626   6.158  16.846  0.00  0.00    +0.000 A 
ATOM      5  C   UNL     1       6.643   5.564  18.116  0.00  0.00    +0.000 A 
ATOM      6  C   UNL     1       5.697   4.583  18.428  0.00  0.00    +0.000 A 
ENDROOT
BRANCH   1   8
ATOM      7  N   UNL     1       3.398   2.918  18.987  0.00  0.00    +0.000 NA
ATOM      8  C   UNL     1       3.797   3.114  17.771  0.00  0.00    +0.000 C 
BRANCH   7   9
ATOM      9  O   UNL     1       2.492   1.850  19.012  0.00  0.00    +0.000 OA
BRANCH   9  10
ATOM     10  C   UNL     1       1.168   2.388  19.075  0.00  0.00    +0.000 C 
BRANCH  10  11
ATOM     11  C   UNL     1       1.102   3.379  20.228  0.00  0.00    +0.000 C 
BRANCH  11  12
ATOM     12  C   UNL     1       1.281   2.685  21.574  0.00  0.00    +0.000 C 
BRANCH  12  13
ATOM     13  N   UNL     1       2.683   2.714  21.975  0.00  0.00    +0.000 NA
ATOM     14  H   UNL     1       2.748   2.866  22.982  0.00  0.00    +0.000 HD
ATOM     15  H   UNL     1       3.153   3.505  21.537  0.00  0.00    +0.000 HD
ENDBRANCH  12  13
ENDBRANCH  11  12
ENDBRANCH  10  11
ENDBRANCH   9  10
ENDBRANCH   7   9
ENDBRANCH   1   8
BRANCH   5  16
ATOM     16  C   UNL     1       7.650   6.047  19.096  0.00  0.00    +0.000 C 
ATOM     17  O   UNL     1       8.399   6.980  18.851  0.00  0.00    +0.000 OA
BRANCH  16  18
ATOM     18  O   UNL     1       7.711   5.349  20.249  0.00  0.00    +0.000 OA
ATOM     19  H   UNL     1       7.632   5.864  21.072  0.00  0.00    +0.000 HD
ENDBRANCH  16  18
ENDBRANCH   5  16
TORSDOF 8
ENDMDL
MODEL 5
REMARK VINA RESULT:      -6.1      1.783      2.295
REMARK  Name = 
REMARK  8 active torsions:
REMARK  status: ('A' for Active; 'I' for Inactive)
REMARK    1  A    between atoms: N_1  and  C_2
REMARK    2  A    between atoms: C_2  and  C_3
REMARK    3  A    between atoms: C_3  and  C_4
REMARK    4  A    between atoms: C_4  and  O_5
REMARK    5  A    between atoms: O_5  and  N_6
REMARK    6  A    between atoms: C_7  and  C_8
REMARK    7  A    between atoms: C_12  and  C_13
REMARK    8  A    between atoms: C_13  and  O_15
REMARK                            x       y       z     vdW  Elec       q    Type
REMARK                         _______ _______ _______ _____ _____    ______ ____
ROOT
ATOM      1  C   UNL     1       5.565   4.640  18.528  0.00  0.00    +0.000 A 
ATOM      2  C   UNL     1       6.447   5.552  19.114  0.00  0.00    +0.000 A 
ATOM      3  C   UNL     1       7.396   6.195  18.319  0.00  0.00    +0.000 A 
ATOM      4  C   UNL     1       7.454   5.932  16.948  0.00  0.00    +0.000 A 
ATOM      5  C   UNL     1       6.565   5.024  16.356  0.00  0.00    +0.000 A 
ATOM      6  C   UNL     1       5.628   4.362  17.154  0.00  0.00    +0.000 A 
ENDROOT
BRANCH   1   8
ATOM      7  N   UNL     1       4.733   2.769  19.800  0.00  0.00    +0.000 NA
ATOM      8  C   UNL     1       4.547   3.973  19.364  0.00  0.00    +0.000 C 
BRANCH   7   9
ATOM      9  O   UNL     1       3.622   2.371  20.555  0.00  0.00    +0.000 OA
BRANCH   9  10
ATOM     10  C   UNL     1       2.638   3.406  20.482  0.00  0.00    +0.000 C 
BRANCH  10  11
ATOM     11  C   UNL     1       1.267   2.762  20.329  0.00  0.00    +0.000 C 
BRANCH  11  12
ATOM     12  C   UNL     1       0.941   2.481  18.866  0.00  0.00    +0.000 C 
BRANCH  12  13
ATOM     13  N   UNL     1       2.026   1.734  18.240  0.00  0.00    +0.000 NA
ATOM     14  H   UNL     1       2.544   1.221  18.953  0.00  0.00    +0.000 HD
ATOM     15  H   UNL     1       2.691   2.379  17.814  0.00  0.00    +0.000 HD
ENDBRANCH  12  13
ENDBRANCH  11  12
ENDBRANCH  10  11
ENDBRANCH   9  10
ENDBRANCH   7   9
ENDBRANCH   1   8
BRANCH   5  16
ATOM     16  C   UNL     1       6.695   4.773  14.898  0.00  0.00    +0.000 C 
ATOM     17  O   UNL     1       5.970   3.988  14.307  0.00  0.00    +0.000 OA
BRANCH  16  18
ATOM     18  O   UNL     1       7.702   5.433  14.289  0.00  0.00    +0.000 OA
ATOM     19  H   UNL     1       8.290   4.900  13.724  0.00  0.00    +0.000 HD
ENDBRANCH  16  18
ENDBRANCH   5  16
TORSDOF 8
ENDMDL
MODEL 6
REMARK VINA RESULT:      -6.1      2.394      2.848
REMARK  Name = 
REMARK  8 active torsions:
REMARK  status: ('A' for Active; 'I' for Inactive)
REMARK    1  A    between atoms: N_1  and  C_2
REMARK    2  A    between atoms: C_2  and  C_3
REMARK    3  A    between atoms: C_3  and  C_4
REMARK    4  A    between atoms: C_4  and  O_5
REMARK    5  A    between atoms: O_5  and  N_6
REMARK    6  A    between atoms: C_7  and  C_8
REMARK    7  A    between atoms: C_12  and  C_13
REMARK    8  A    between atoms: C_13  and  O_15
REMARK                            x       y       z     vdW  Elec       q    Type
REMARK                         _______ _______ _______ _____ _____    ______ ____
ROOT
ATOM      1  C   UNL     1       4.643   4.190  17.094  0.00  0.00    +0.000 A 
ATOM      2  C   UNL     1       5.127   4.194  15.782  0.00  0.00    +0.000 A 
ATOM      3  C   UNL     1       6.369   4.768  15.511  0.00  0.00    +0.000 A 
ATOM      4  C   UNL     1       7.123   5.326  16.547  0.00  0.00    +0.000 A 
ATOM      5  C   UNL     1       6.644   5.316  17.865  0.00  0.00    +0.000 A 
ATOM      6  C   UNL     1       5.390   4.761  18.135  0.00  0.00    +0.000 A 
ENDROOT
BRANCH   1   8
ATOM      7  N   UNL     1       2.295   4.293  17.628  0.00  0.00    +0.000 NA
ATOM      8  C   UNL     1       3.338   3.566  17.385  0.00  0.00    +0.000 C 
BRANCH   7   9
ATOM      9  O   UNL     1       1.197   3.461  17.880  0.00  0.00    +0.000 OA
BRANCH   9  10
ATOM     10  C   UNL     1       1.414   2.800  19.129  0.00  0.00    +0.000 C 
BRANCH  10  11
ATOM     11  C   UNL     1       0.976   3.729  20.252  0.00  0.00    +0.000 C 
BRANCH  11  12
ATOM     12  C   UNL     1       2.120   4.020  21.218  0.00  0.00    +0.000 C 
BRANCH  12  13
ATOM     13  N   UNL     1       2.360   2.868  22.079  0.00  0.00    +0.000 NA
ATOM     14  H   UNL     1       1.664   2.846  22.824  0.00  0.00    +0.000 HD
ATOM     15  H   UNL     1       3.266   2.960  22.537  0.00  0.00    +0.000 HD
ENDBRANCH  12  13
ENDBRANCH  11  12
ENDBRANCH  10  11
ENDBRANCH   9  10
ENDBRANCH   7   9
ENDBRANCH   1   8
BRANCH   5  16
ATOM     16  C   UNL     1       7.485   5.946  18.914  0.00  0.00    +0.000 C 
ATOM     17  O   UNL     1       8.197   6.912  18.683  0.00  0.00    +0.000 OA
BRANCH  16  18
ATOM     18  O   UNL     1       7.446   5.344  20.121  0.00  0.00    +0.000 OA
ATOM     19  H   UNL     1       6.718   5.606  20.712  0.00  0.00    +0.000 HD
ENDBRANCH  16  18
ENDBRANCH   5  16
TORSDOF 8
ENDMDL
MODEL 7
REMARK VINA RESULT:      -5.9      1.469      1.570
REMARK  Name = 
REMARK  8 active torsions:
REMARK  status: ('A' for Active; 'I' for Inactive)
REMARK    1  A    between atoms: N_1  and  C_2
REMARK    2  A    between atoms: C_2  and  C_3
REMARK    3  A    between atoms: C_3  and  C_4
REMARK    4  A    between atoms: C_4  and  O_5
REMARK    5  A    between atoms: O_5  and  N_6
REMARK    6  A    between atoms: C_7  and  C_8
REMARK    7  A    between atoms: C_12  and  C_13
REMARK    8  A    between atoms: C_13  and  O_15
REMARK                            x       y       z     vdW  Elec       q    Type
REMARK                         _______ _______ _______ _____ _____    ______ ____
ROOT
ATOM      1  C   UNL     1       4.701   4.356  17.368  0.00  0.00    +0.000 A 
ATOM      2  C   UNL     1       5.637   4.526  18.392  0.00  0.00    +0.000 A 
ATOM      3  C   UNL     1       6.975   4.745  18.068  0.00  0.00    +0.000 A 
ATOM      4  C   UNL     1       7.371   4.802  16.728  0.00  0.00    +0.000 A 
ATOM      5  C   UNL     1       6.432   4.641  15.699  0.00  0.00    +0.000 A 
ATOM      6  C   UNL     1       5.094   4.398  16.022  0.00  0.00    +0.000 A 
ENDROOT
BRANCH   1   8
ATOM      7  N   UNL     1       2.707   3.004  17.483  0.00  0.00    +0.000 NA
ATOM      8  C   UNL     1       3.281   4.143  17.710  0.00  0.00    +0.000 C 
BRANCH   7   9
ATOM      9  O   UNL     1       1.368   3.069  17.887  0.00  0.00    +0.000 OA
BRANCH   9  10
ATOM     10  C   UNL     1       1.292   3.897  19.051  0.00  0.00    +0.000 C 
BRANCH  10  11
ATOM     11  C   UNL     1       1.158   3.001  20.275  0.00  0.00    +0.000 C 
BRANCH  11  12
ATOM     12  C   UNL     1       1.953   3.545  21.456  0.00  0.00    +0.000 C 
BRANCH  12  13
ATOM     13  N   UNL     1       2.377   4.915  21.193  0.00  0.00    +0.000 NA
ATOM     14  H   UNL     1       1.974   5.539  21.892  0.00  0.00    +0.000 HD
ATOM     15  H   UNL     1       2.014   5.224  20.292  0.00  0.00    +0.000 HD
ENDBRANCH  12  13
ENDBRANCH  11  12
ENDBRANCH  10  11
ENDBRANCH   9  10
ENDBRANCH   7   9
ENDBRANCH   1   8
BRANCH   5  16
ATOM     16  C   UNL     1       6.922   4.690  14.298  0.00  0.00    +0.000 C 
ATOM     17  O   UNL     1       7.773   5.488  13.936  0.00  0.00    +0.000 OA
BRANCH  16  18
ATOM     18  O   UNL     1       6.324   3.829  13.449  0.00  0.00    +0.000 OA
ATOM     19  H   UNL     1       5.860   3.074  13.854  0.00  0.00    +0.000 HD
ENDBRANCH  16  18
ENDBRANCH   5  16
TORSDOF 8
ENDMDL
MODEL 8
REMARK VINA RESULT:      -5.9      1.249      1.378
REMARK  Name = 
REMARK  8 active torsions:
REMARK  status: ('A' for Active; 'I' for Inactive)
REMARK    1  A    between atoms: N_1  and  C_2
REMARK    2  A    between atoms: C_2  and  C_3
REMARK    3  A    between atoms: C_3  and  C_4
REMARK    4  A    between atoms: C_4  and  O_5
REMARK    5  A    between atoms: O_5  and  N_6
REMARK    6  A    between atoms: C_7  and  C_8
REMARK    7  A    between atoms: C_12  and  C_13
REMARK    8  A    between atoms: C_13  and  O_15
REMARK                            x       y       z     vdW  Elec       q    Type
REMARK                         _______ _______ _______ _____ _____    ______ ____
ROOT
ATOM      1  C   UNL     1       3.744   4.679  17.470  0.00  0.00    +0.000 A 
ATOM      2  C   UNL     1       3.434   6.035  17.605  0.00  0.00    +0.000 A 
ATOM      3  C   UNL     1       4.387   6.993  17.259  0.00  0.00    +0.000 A 
ATOM      4  C   UNL     1       5.636   6.595  16.774  0.00  0.00    +0.000 A 
ATOM      5  C   UNL     1       5.946   5.235  16.629  0.00  0.00    +0.000 A 
ATOM      6  C   UNL     1       5.001   4.273  16.996  0.00  0.00    +0.000 A 
ENDROOT
BRANCH   1   8
ATOM      7  N   UNL     1       1.507   4.008  18.069  0.00  0.00    +0.000 NA
ATOM      8  C   UNL     1       2.730   3.664  17.817  0.00  0.00    +0.000 C 
BRANCH   7   9
ATOM      9  O   UNL     1       0.757   2.865  18.376  0.00  0.00    +0.000 OA
BRANCH   9  10
ATOM     10  C   UNL     1       0.941   2.570  19.763  0.00  0.00    +0.000 C 
BRANCH  10  11
ATOM     11  C   UNL     1       1.027   3.881  20.531  0.00  0.00    +0.000 C 
BRANCH  11  12
ATOM     12  C   UNL     1       2.196   3.881  21.510  0.00  0.00    +0.000 C 
BRANCH  12  13
ATOM     13  N   UNL     1       2.542   2.515  21.885  0.00  0.00    +0.000 NA
ATOM     14  H   UNL     1       2.139   1.863  21.212  0.00  0.00    +0.000 HD
ATOM     15  H   UNL     1       2.127   2.287  22.787  0.00  0.00    +0.000 HD
ENDBRANCH  12  13
ENDBRANCH  11  12
ENDBRANCH  10  11
ENDBRANCH   9  10
ENDBRANCH   7   9
ENDBRANCH   1   8
BRANCH   5  16
ATOM     16  C   UNL     1       7.299   4.880  16.130  0.00  0.00    +0.000 C 
ATOM     17  O   UNL     1       8.090   4.236  16.802  0.00  0.00    +0.000 OA
BRANCH  16  18
ATOM     18  O   UNL     1       7.606   5.363  14.909  0.00  0.00    +0.000 OA
ATOM     19  H   UNL     1       8.391   5.937  14.855  0.00  0.00    +0.000 HD
ENDBRANCH  16  18
ENDBRANCH   5  16
TORSDOF 8
ENDMDL
MODEL 9
REMARK VINA RESULT:      -5.9      2.705      6.588
REMARK  Name = 
REMARK  8 active torsions:
REMARK  status: ('A' for Active; 'I' for Inactive)
REMARK    1  A    between atoms: N_1  and  C_2
REMARK    2  A    between atoms: C_2  and  C_3
REMARK    3  A    between atoms: C_3  and  C_4
REMARK    4  A    between atoms: C_4  and  O_5
REMARK    5  A    between atoms: O_5  and  N_6
REMARK    6  A    between atoms: C_7  and  C_8
REMARK    7  A    between atoms: C_12  and  C_13
REMARK    8  A    between atoms: C_13  and  O_15
REMARK                            x       y       z     vdW  Elec       q    Type
REMARK                         _______ _______ _______ _____ _____    ______ ____
ROOT
ATOM      1  C   UNL     1       4.172   4.820  16.898  0.00  0.00    +0.000 A 
ATOM      2  C   UNL     1       3.922   6.048  17.516  0.00  0.00    +0.000 A 
ATOM      3  C   UNL     1       2.940   6.132  18.503  0.00  0.00    +0.000 A 
ATOM      4  C   UNL     1       2.221   4.992  18.873  0.00  0.00    +0.000 A 
ATOM      5  C   UNL     1       2.476   3.756  18.260  0.00  0.00    +0.000 A 
ATOM      6  C   UNL     1       3.444   3.675  17.256  0.00  0.00    +0.000 A 
ENDROOT
BRANCH   1   8
ATOM      7  N   UNL     1       5.785   5.793  15.393  0.00  0.00    +0.000 NA
ATOM      8  C   UNL     1       5.224   4.726  15.867  0.00  0.00    +0.000 C 
BRANCH   7   9
ATOM      9  O   UNL     1       6.736   5.429  14.431  0.00  0.00    +0.000 OA
BRANCH   9  10
ATOM     10  C   UNL     1       6.536   4.052  14.102  0.00  0.00    +0.000 C 
BRANCH  10  11
ATOM     11  C   UNL     1       6.684   3.886  12.596  0.00  0.00    +0.000 C 
BRANCH  11  12
ATOM     12  C   UNL     1       5.523   3.096  12.003  0.00  0.00    +0.000 C 
BRANCH  12  13
ATOM     13  N   UNL     1       5.969   1.768  11.599  0.00  0.00    +0.000 NA
ATOM     14  H   UNL     1       6.804   1.849  11.019  0.00  0.00    +0.000 HD
ATOM     15  H   UNL     1       5.260   1.326  11.016  0.00  0.00    +0.000 HD
ENDBRANCH  12  13
ENDBRANCH  11  12
ENDBRANCH  10  11
ENDBRANCH   9  10
ENDBRANCH   7   9
ENDBRANCH   1   8
BRANCH   5  16
ATOM     16  C   UNL     1       1.661   2.589  18.684  0.00  0.00    +0.000 C 
ATOM     17  O   UNL     1       0.592   2.719  19.262  0.00  0.00    +0.000 OA
BRANCH  16  18
ATOM     18  O   UNL     1       2.210   1.383  18.432  0.00  0.00    +0.000 OA
ATOM     19  H   UNL     1       1.856   0.631  18.941  0.00  0.00    +0.000 HD
ENDBRANCH  16  18
ENDBRANCH   5  16
TORSDOF 8
ENDMDL
