MODEL 1
REMARK VINA RESULT:      -6.7      0.000      0.000
REMARK  Name = 
REMARK  4 active torsions:
REMARK  status: ('A' for Active; 'I' for Inactive)
REMARK    1  A    between atoms: C_1  and  O_2
REMARK    2  A    between atoms: O_2  and  C_3
REMARK    3  A    between atoms: C_7  and  C_8
REMARK    4  A    between atoms: C_14  and  N_15
REMARK                            x       y       z     vdW  Elec       q    Type
REMARK                         _______ _______ _______ _____ _____    ______ ____
ROOT
ATOM      1  C   UNL     1       3.323   3.714  17.543  0.00  0.00    +0.000 C 
ATOM      2  O   UNL     1       2.782   2.754  16.989  0.00  0.00    +0.000 OA
ATOM      3  N   UNL     1       4.436   4.311  16.920  0.00  0.00    +0.000 N 
ATOM      4  C   UNL     1       4.734   3.943  15.535  0.00  0.00    +0.000 C 
ATOM      5  C   UNL     1       6.228   3.703  15.337  0.00  0.00    +0.000 C 
ATOM      6  C   UNL     1       7.042   4.922  15.761  0.00  0.00    +0.000 C 
ATOM      7  C   UNL     1       6.708   5.323  17.203  0.00  0.00    +0.000 C 
ATOM      8  C   UNL     1       5.198   5.450  17.433  0.00  0.00    +0.000 C 
ENDROOT
BRANCH   1  13
ATOM      9  C   UNL     1       2.302   5.370  19.300  0.00  0.00    +0.000 A 
ATOM     10  C   UNL     1       1.939   5.322  20.682  0.00  0.00    +0.000 A 
ATOM     11  C   UNL     1       2.200   4.098  21.250  0.00  0.00    +0.000 A 
ATOM     12  S   UNL     1       2.899   3.018  20.133  0.00  0.00    +0.000 S 
ATOM     13  C   UNL     1       2.851   4.178  18.849  0.00  0.00    +0.000 A 
BRANCH   9  15
ATOM     14  C   UNL     1       2.280   7.688  19.085  0.00  0.00    +0.000 C 
ATOM     15  O   UNL     1       2.094   6.418  18.463  0.00  0.00    +0.000 OA
ENDBRANCH   9  15
ENDBRANCH   1  13
BRANCH   7  16
ATOM     16  N   UNL     1       7.378   6.544  17.612  0.00  0.00    +0.000 N 
ATOM     17  C   UNL     1       8.122   6.749  18.732  0.00  0.00    +0.000 A 
ATOM     18  N   UNL     1       8.511   8.002  18.777  0.00  0.00    +0.000 NA
ATOM     19  C   UNL     1       7.967   8.535  17.643  0.00  0.00    +0.000 A 
ATOM     20  N   UNL     1       7.245   7.684  16.908  0.00  0.00    +0.000 NA
ENDBRANCH   7  16
TORSDOF 3
ENDMDL
MODEL 2
REMARK VINA RESULT:      -6.6      3.008      5.529
REMARK  Name = 
REMARK  4 active torsions:
REMARK  status: ('A' for Active; 'I' for Inactive)
REMARK    1  A    between atoms: C_1  and  O_2
REMARK    2  A    between atoms: O_2  and  C_3
REMARK    3  A    between atoms: C_7  and  C_8
REMARK    4  A    between atoms: C_14  and  N_15
REMARK                            x       y       z     vdW  Elec       q    Type
REMARK                         _______ _______ _______ _____ _____    ______ ____
ROOT
ATOM      1  C   UNL     1       4.835   3.808  18.973  0.00  0.00    +0.000 C 
ATOM      2  O   UNL     1       4.944   2.685  19.473  0.00  0.00    +0.000 OA
ATOM      3  N   UNL     1       3.901   4.705  19.528  0.00  0.00    +0.000 N 
ATOM      4  C   UNL     1       3.301   4.366  20.820  0.00  0.00    +0.000 C 
ATOM      5  C   UNL     1       1.799   4.637  20.818  0.00  0.00    +0.000 C 
ATOM      6  C   UNL     1       1.501   6.086  20.444  0.00  0.00    +0.000 C 
ATOM      7  C   UNL     1       2.154   6.446  19.105  0.00  0.00    +0.000 C 
ATOM      8  C   UNL     1       3.638   6.067  19.063  0.00  0.00    +0.000 C 
ENDROOT
BRANCH   1  13
ATOM      9  C   UNL     1       6.932   4.569  17.597  0.00  0.00    +0.000 A 
ATOM     10  C   UNL     1       7.254   4.760  16.218  0.00  0.00    +0.000 A 
ATOM     11  C   UNL     1       6.192   4.492  15.389  0.00  0.00    +0.000 A 
ATOM     12  S   UNL     1       4.805   4.032  16.267  0.00  0.00    +0.000 S 
ATOM     13  C   UNL     1       5.617   4.171  17.789  0.00  0.00    +0.000 A 
BRANCH   9  15
ATOM     14  C   UNL     1       7.885   6.009  19.159  0.00  0.00    +0.000 C 
ATOM     15  O   UNL     1       7.799   4.685  18.635  0.00  0.00    +0.000 OA
ENDBRANCH   9  15
ENDBRANCH   1  13
BRANCH   7  16
ATOM     16  N   UNL     1       1.989   7.847  18.762  0.00  0.00    +0.000 N 
ATOM     17  C   UNL     1       2.447   8.493  17.656  0.00  0.00    +0.000 A 
ATOM     18  N   UNL     1       2.147   9.768  17.736  0.00  0.00    +0.000 NA
ATOM     19  C   UNL     1       1.497   9.857  18.934  0.00  0.00    +0.000 A 
ATOM     20  N   UNL     1       1.394   8.709  19.609  0.00  0.00    +0.000 NA
ENDBRANCH   7  16
TORSDOF 3
ENDMDL
MODEL 3
REMARK VINA RESULT:      -6.5      1.308      1.938
REMARK  Name = 
REMARK  4 active torsions:
REMARK  status: ('A' for Active; 'I' for Inactive)
REMARK    1  A    between atoms: C_1  and  O_2
REMARK    2  A    between atoms: O_2  and  C_3
REMARK    3  A    between atoms: C_7  and  C_8
REMARK    4  A    between atoms: C_14  and  N_15
REMARK                            x       y       z     vdW  Elec       q    Type
REMARK                         _______ _______ _______ _____ _____    ______ ____
ROOT
ATOM      1  C   UNL     1       3.164   3.859  17.385  0.00  0.00    +0.000 C 
ATOM      2  O   UNL     1       2.582   2.950  16.787  0.00  0.00    +0.000 OA
ATOM      3  N   UNL     1       4.302   4.437  16.789  0.00  0.00    +0.000 N 
ATOM      4  C   UNL     1       4.583   4.123  15.387  0.00  0.00    +0.000 C 
ATOM      5  C   UNL     1       6.066   3.829  15.175  0.00  0.00    +0.000 C 
ATOM      6  C   UNL     1       6.931   4.991  15.655  0.00  0.00    +0.000 C 
ATOM      7  C   UNL     1       6.615   5.336  17.114  0.00  0.00    +0.000 C 
ATOM      8  C   UNL     1       5.111   5.516  17.354  0.00  0.00    +0.000 C 
ENDROOT
BRANCH   1  13
ATOM      9  C   UNL     1       2.630   3.642  19.942  0.00  0.00    +0.000 A 
ATOM     10  C   UNL     1       2.168   4.506  20.982  0.00  0.00    +0.000 A 
ATOM     11  C   UNL     1       1.923   5.782  20.534  0.00  0.00    +0.000 A 
ATOM     12  S   UNL     1       2.227   5.935  18.864  0.00  0.00    +0.000 S 
ATOM     13  C   UNL     1       2.712   4.280  18.713  0.00  0.00    +0.000 A 
BRANCH   9  15
ATOM     14  C   UNL     1       4.427   2.204  20.296  0.00  0.00    +0.000 C 
ATOM     15  O   UNL     1       3.022   2.352  20.101  0.00  0.00    +0.000 OA
ENDBRANCH   9  15
ENDBRANCH   1  13
BRANCH   7  16
ATOM     16  N   UNL     1       7.336   6.507  17.580  0.00  0.00    +0.000 N 
ATOM     17  C   UNL     1       8.065   6.636  18.721  0.00  0.00    +0.000 A 
ATOM     18  N   UNL     1       8.515   7.865  18.818  0.00  0.00    +0.000 NA
ATOM     19  C   UNL     1       8.023   8.464  17.693  0.00  0.00    +0.000 A 
ATOM     20  N   UNL     1       7.276   7.677  16.914  0.00  0.00    +0.000 NA
ENDBRANCH   7  16
TORSDOF 3
ENDMDL
MODEL 4
REMARK VINA RESULT:      -6.0      2.523      4.242
REMARK  Name = 
REMARK  4 active torsions:
REMARK  status: ('A' for Active; 'I' for Inactive)
REMARK    1  A    between atoms: C_1  and  O_2
REMARK    2  A    between atoms: O_2  and  C_3
REMARK    3  A    between atoms: C_7  and  C_8
REMARK    4  A    between atoms: C_14  and  N_15
REMARK                            x       y       z     vdW  Elec       q    Type
REMARK                         _______ _______ _______ _____ _____    ______ ____
ROOT
ATOM      1  C   UNL     1       4.680   4.796  19.010  0.00  0.00    +0.000 C 
ATOM      2  O   UNL     1       4.759   5.348  20.110  0.00  0.00    +0.000 OA
ATOM      3  N   UNL     1       5.668   5.073  18.045  0.00  0.00    +0.000 N 
ATOM      4  C   UNL     1       6.874   5.784  18.474  0.00  0.00    +0.000 C 
ATOM      5  C   UNL     1       7.257   6.872  17.474  0.00  0.00    +0.000 C 
ATOM      6  C   UNL     1       7.437   6.294  16.074  0.00  0.00    +0.000 C 
ATOM      7  C   UNL     1       6.184   5.526  15.638  0.00  0.00    +0.000 C 
ATOM      8  C   UNL     1       5.729   4.513  16.694  0.00  0.00    +0.000 C 
ENDROOT
BRANCH   1  13
ATOM      9  C   UNL     1       3.336   2.555  18.802  0.00  0.00    +0.000 A 
ATOM     10  C   UNL     1       2.014   2.170  18.420  0.00  0.00    +0.000 A 
ATOM     11  C   UNL     1       1.241   3.244  18.051  0.00  0.00    +0.000 A 
ATOM     12  S   UNL     1       2.108   4.708  18.143  0.00  0.00    +0.000 S 
ATOM     13  C   UNL     1       3.546   3.922  18.699  0.00  0.00    +0.000 A 
BRANCH   9  15
ATOM     14  C   UNL     1       4.501   1.843  20.688  0.00  0.00    +0.000 C 
ATOM     15  O   UNL     1       4.295   1.723  19.282  0.00  0.00    +0.000 OA
ENDBRANCH   9  15
ENDBRANCH   1  13
BRANCH   7  16
ATOM     16  N   UNL     1       6.352   4.866  14.356  0.00  0.00    +0.000 N 
ATOM     17  C   UNL     1       5.603   3.857  13.836  0.00  0.00    +0.000 A 
ATOM     18  N   UNL     1       6.104   3.489  12.679  0.00  0.00    +0.000 NA
ATOM     19  C   UNL     1       7.182   4.315  12.534  0.00  0.00    +0.000 A 
ATOM     20  N   UNL     1       7.387   5.162  13.546  0.00  0.00    +0.000 NA
ENDBRANCH   7  16
TORSDOF 3
ENDMDL
MODEL 5
REMARK VINA RESULT:      -6.0      2.994      5.627
REMARK  Name = 
REMARK  4 active torsions:
REMARK  status: ('A' for Active; 'I' for Inactive)
REMARK    1  A    between atoms: C_1  and  O_2
REMARK    2  A    between atoms: O_2  and  C_3
REMARK    3  A    between atoms: C_7  and  C_8
REMARK    4  A    between atoms: C_14  and  N_15
REMARK                            x       y       z     vdW  Elec       q    Type
REMARK                         _______ _______ _______ _____ _____    ______ ____
ROOT
ATOM      1  C   UNL     1       4.907   3.731  19.091  0.00  0.00    +0.000 C 
ATOM      2  O   UNL     1       5.051   2.507  19.135  0.00  0.00    +0.000 OA
ATOM      3  N   UNL     1       3.795   4.303  19.741  0.00  0.00    +0.000 N 
ATOM      4  C   UNL     1       3.018   3.459  20.651  0.00  0.00    +0.000 C 
ATOM      5  C   UNL     1       1.519   3.658  20.441  0.00  0.00    +0.000 C 
ATOM      6  C   UNL     1       1.131   5.126  20.597  0.00  0.00    +0.000 C 
ATOM      7  C   UNL     1       1.966   6.010  19.663  0.00  0.00    +0.000 C 
ATOM      8  C   UNL     1       3.468   5.728  19.787  0.00  0.00    +0.000 C 
ENDROOT
BRANCH   1  13
ATOM      9  C   UNL     1       6.021   4.796  16.971  0.00  0.00    +0.000 A 
ATOM     10  C   UNL     1       7.050   5.753  16.709  0.00  0.00    +0.000 A 
ATOM     11  C   UNL     1       7.620   6.237  17.861  0.00  0.00    +0.000 A 
ATOM     12  S   UNL     1       6.936   5.529  19.252  0.00  0.00    +0.000 S 
ATOM     13  C   UNL     1       5.841   4.560  18.326  0.00  0.00    +0.000 A 
BRANCH   9  15
ATOM     14  C   UNL     1       5.823   4.168  14.737  0.00  0.00    +0.000 C 
ATOM     15  O   UNL     1       5.234   4.206  16.036  0.00  0.00    +0.000 OA
ENDBRANCH   9  15
ENDBRANCH   1  13
BRANCH   7  16
ATOM     16  N   UNL     1       1.708   7.425  19.855  0.00  0.00    +0.000 N 
ATOM     17  C   UNL     1       1.249   8.042  20.977  0.00  0.00    +0.000 A 
ATOM     18  N   UNL     1       1.089   9.323  20.739  0.00  0.00    +0.000 NA
ATOM     19  C   UNL     1       1.467   9.444  19.432  0.00  0.00    +0.000 A 
ATOM     20  N   UNL     1       1.834   8.303  18.842  0.00  0.00    +0.000 NA
ENDBRANCH   7  16
TORSDOF 3
ENDMDL
MODEL 6
REMARK VINA RESULT:      -6.0      1.454      1.955
REMARK  Name = 
REMARK  4 active torsions:
REMARK  status: ('A' for Active; 'I' for Inactive)
REMARK    1  A    between atoms: C_1  and  O_2
REMARK    2  A    between atoms: O_2  and  C_3
REMARK    3  A    between atoms: C_7  and  C_8
REMARK    4  A    between atoms: C_14  and  N_15
REMARK                            x       y       z     vdW  Elec       q    Type
REMARK                         _______ _______ _______ _____ _____    ______ ____
ROOT
ATOM      1  C   UNL     1       3.081   4.637  17.667  0.00  0.00    +0.000 C 
ATOM      2  O   UNL     1       2.494   3.650  17.218  0.00  0.00    +0.000 OA
ATOM      3  N   UNL     1       4.323   4.996  17.107  0.00  0.00    +0.000 N 
ATOM      4  C   UNL     1       4.730   4.351  15.858  0.00  0.00    +0.000 C 
ATOM      5  C   UNL     1       6.197   3.932  15.907  0.00  0.00    +0.000 C 
ATOM      6  C   UNL     1       7.099   5.121  16.222  0.00  0.00    +0.000 C 
ATOM      7  C   UNL     1       6.654   5.812  17.517  0.00  0.00    +0.000 C 
ATOM      8  C   UNL     1       5.154   6.128  17.517  0.00  0.00    +0.000 C 
ENDROOT
BRANCH   1  13
ATOM      9  C   UNL     1       2.169   5.025  20.094  0.00  0.00    +0.000 A 
ATOM     10  C   UNL     1       1.711   6.137  20.865  0.00  0.00    +0.000 A 
ATOM     11  C   UNL     1       1.739   7.313  20.155  0.00  0.00    +0.000 A 
ATOM     12  S   UNL     1       2.294   7.078  18.562  0.00  0.00    +0.000 S 
ATOM     13  C   UNL     1       2.523   5.379  18.800  0.00  0.00    +0.000 A 
BRANCH   9  15
ATOM     14  C   UNL     1       1.133   2.973  20.466  0.00  0.00    +0.000 C 
ATOM     15  O   UNL     1       2.322   3.755  20.551  0.00  0.00    +0.000 OA
ENDBRANCH   9  15
ENDBRANCH   1  13
BRANCH   7  16
ATOM     16  N   UNL     1       7.416   7.015  17.798  0.00  0.00    +0.000 N 
ATOM     17  C   UNL     1       8.315   7.215  18.799  0.00  0.00    +0.000 A 
ATOM     18  N   UNL     1       8.749   8.453  18.758  0.00  0.00    +0.000 NA
ATOM     19  C   UNL     1       8.071   8.983  17.698  0.00  0.00    +0.000 A 
ATOM     20  N   UNL     1       7.225   8.146  17.091  0.00  0.00    +0.000 NA
ENDBRANCH   7  16
TORSDOF 3
ENDMDL
MODEL 7
REMARK VINA RESULT:      -5.8      3.104      5.588
REMARK  Name = 
REMARK  4 active torsions:
REMARK  status: ('A' for Active; 'I' for Inactive)
REMARK    1  A    between atoms: C_1  and  O_2
REMARK    2  A    between atoms: O_2  and  C_3
REMARK    3  A    between atoms: C_7  and  C_8
REMARK    4  A    between atoms: C_14  and  N_15
REMARK                            x       y       z     vdW  Elec       q    Type
REMARK                         _______ _______ _______ _____ _____    ______ ____
ROOT
ATOM      1  C   UNL     1       4.517   3.355  18.802  0.00  0.00    +0.000 C 
ATOM      2  O   UNL     1       4.569   2.123  18.835  0.00  0.00    +0.000 OA
ATOM      3  N   UNL     1       3.524   4.008  19.559  0.00  0.00    +0.000 N 
ATOM      4  C   UNL     1       2.779   3.223  20.546  0.00  0.00    +0.000 C 
ATOM      5  C   UNL     1       1.287   3.539  20.488  0.00  0.00    +0.000 C 
ATOM      6  C   UNL     1       1.032   5.032  20.677  0.00  0.00    +0.000 C 
ATOM      7  C   UNL     1       1.835   5.852  19.661  0.00  0.00    +0.000 C 
ATOM      8  C   UNL     1       3.315   5.454  19.634  0.00  0.00    +0.000 C 
ENDROOT
BRANCH   1  13
ATOM      9  C   UNL     1       6.544   4.901  18.193  0.00  0.00    +0.000 A 
ATOM     10  C   UNL     1       7.150   5.394  16.995  0.00  0.00    +0.000 A 
ATOM     11  C   UNL     1       6.501   4.962  15.864  0.00  0.00    +0.000 A 
ATOM     12  S   UNL     1       5.156   3.986  16.239  0.00  0.00    +0.000 S 
ATOM     13  C   UNL     1       5.430   4.113  17.944  0.00  0.00    +0.000 A 
BRANCH   9  15
ATOM     14  C   UNL     1       8.189   5.896  19.507  0.00  0.00    +0.000 C 
ATOM     15  O   UNL     1       7.007   5.100  19.453  0.00  0.00    +0.000 OA
ENDBRANCH   9  15
ENDBRANCH   1  13
BRANCH   7  16
ATOM     16  N   UNL     1       1.709   7.283  19.875  0.00  0.00    +0.000 N 
ATOM     17  C   UNL     1       1.335   7.924  21.014  0.00  0.00    +0.000 A 
ATOM     18  N   UNL     1       1.284   9.217  20.794  0.00  0.00    +0.000 NA
ATOM     19  C   UNL     1       1.637   9.320  19.479  0.00  0.00    +0.000 A 
ATOM     20  N   UNL     1       1.886   8.159  18.867  0.00  0.00    +0.000 NA
ENDBRANCH   7  16
TORSDOF 3
ENDMDL
MODEL 8
REMARK VINA RESULT:      -5.8      3.220      5.633
REMARK  Name = 
REMARK  4 active torsions:
REMARK  status: ('A' for Active; 'I' for Inactive)
REMARK    1  A    between atoms: C_1  and  O_2
REMARK    2  A    between atoms: O_2  and  C_3
REMARK    3  A    between atoms: C_7  and  C_8
REMARK    4  A    between atoms: C_14  and  N_15
REMARK                            x       y       z     vdW  Elec       q    Type
REMARK                         _______ _______ _______ _____ _____    ______ ____
ROOT
ATOM      1  C   UNL     1       5.342   4.445  18.819  0.00  0.00    +0.000 C 
ATOM      2  O   UNL     1       5.631   3.264  18.610  0.00  0.00    +0.000 OA
ATOM      3  N   UNL     1       4.106   4.738  19.428  0.00  0.00    +0.000 N 
ATOM      4  C   UNL     1       3.349   3.634  20.021  0.00  0.00    +0.000 C 
ATOM      5  C   UNL     1       1.867   3.730  19.668  0.00  0.00    +0.000 C 
ATOM      6  C   UNL     1       1.286   5.076  20.092  0.00  0.00    +0.000 C 
ATOM      7  C   UNL     1       2.098   6.230  19.492  0.00  0.00    +0.000 C 
ATOM      8  C   UNL     1       3.601   6.074  19.745  0.00  0.00    +0.000 C 
ENDROOT
BRANCH   1  13
ATOM      9  C   UNL     1       6.218   6.411  17.323  0.00  0.00    +0.000 A 
ATOM     10  C   UNL     1       7.314   7.328  17.352  0.00  0.00    +0.000 A 
ATOM     11  C   UNL     1       8.135   7.129  18.435  0.00  0.00    +0.000 A 
ATOM     12  S   UNL     1       7.604   5.830  19.401  0.00  0.00    +0.000 S 
ATOM     13  C   UNL     1       6.240   5.517  18.383  0.00  0.00    +0.000 A 
BRANCH   9  15
ATOM     14  C   UNL     1       5.444   5.567  15.295  0.00  0.00    +0.000 C 
ATOM     15  O   UNL     1       5.207   6.415  16.417  0.00  0.00    +0.000 OA
ENDBRANCH   9  15
ENDBRANCH   1  13
BRANCH   7  16
ATOM     16  N   UNL     1       1.647   7.530  19.957  0.00  0.00    +0.000 N 
ATOM     17  C   UNL     1       1.562   8.685  19.243  0.00  0.00    +0.000 A 
ATOM     18  N   UNL     1       1.166   9.658  20.030  0.00  0.00    +0.000 NA
ATOM     19  C   UNL     1       1.024   9.040  21.239  0.00  0.00    +0.000 A 
ATOM     20  N   UNL     1       1.329   7.739  21.249  0.00  0.00    +0.000 NA
ENDBRANCH   7  16
TORSDOF 3
ENDMDL
MODEL 9
REMARK VINA RESULT:      -5.7      2.309      3.974
REMARK  Name = 
REMARK  4 active torsions:
REMARK  status: ('A' for Active; 'I' for Inactive)
REMARK    1  A    between atoms: C_1  and  O_2
REMARK    2  A    between atoms: O_2  and  C_3
REMARK    3  A    between atoms: C_7  and  C_8
REMARK    4  A    between atoms: C_14  and  N_15
REMARK                            x       y       z     vdW  Elec       q    Type
REMARK                         _______ _______ _______ _____ _____    ______ ____
ROOT
ATOM      1  C   UNL     1       4.874   4.516  18.804  0.00  0.00    +0.000 C 
ATOM      2  O   UNL     1       5.196   5.044  19.872  0.00  0.00    +0.000 OA
ATOM      3  N   UNL     1       5.771   4.586  17.720  0.00  0.00    +0.000 N 
ATOM      4  C   UNL     1       7.137   5.042  17.982  0.00  0.00    +0.000 C 
ATOM      5  C   UNL     1       7.602   6.028  16.914  0.00  0.00    +0.000 C 
ATOM      6  C   UNL     1       7.490   5.421  15.518  0.00  0.00    +0.000 C 
ATOM      7  C   UNL     1       6.065   4.919  15.257  0.00  0.00    +0.000 C 
ATOM      8  C   UNL     1       5.552   4.021  16.389  0.00  0.00    +0.000 C 
ENDROOT
BRANCH   1  13
ATOM      9  C   UNL     1       2.315   4.352  18.258  0.00  0.00    +0.000 A 
ATOM     10  C   UNL     1       1.327   3.320  18.219  0.00  0.00    +0.000 A 
ATOM     11  C   UNL     1       1.836   2.093  18.568  0.00  0.00    +0.000 A 
ATOM     12  S   UNL     1       3.491   2.184  18.964  0.00  0.00    +0.000 S 
ATOM     13  C   UNL     1       3.560   3.886  18.656  0.00  0.00    +0.000 A 
BRANCH   9  15
ATOM     14  C   UNL     1       2.211   6.563  18.982  0.00  0.00    +0.000 C 
ATOM     15  O   UNL     1       2.123   5.645  17.894  0.00  0.00    +0.000 OA
ENDBRANCH   9  15
ENDBRANCH   1  13
BRANCH   7  16
ATOM     16  N   UNL     1       5.939   4.235  13.983  0.00  0.00    +0.000 N 
ATOM     17  C   UNL     1       6.922   3.964  13.083  0.00  0.00    +0.000 A 
ATOM     18  N   UNL     1       6.403   3.383  12.027  0.00  0.00    +0.000 NA
ATOM     19  C   UNL     1       5.073   3.323  12.331  0.00  0.00    +0.000 A 
ATOM     20  N   UNL     1       4.737   3.852  13.511  0.00  0.00    +0.000 NA
ENDBRANCH   7  16
TORSDOF 3
ENDMDL
