MODEL 1
REMARK VINA RESULT:      -6.3      0.000      0.000
REMARK  Name = 
REMARK  15 active torsions:
REMARK  status: ('A' for Active; 'I' for Inactive)
REMARK    1  A    between atoms: C_1  and  C_2
REMARK    2  A    between atoms: C_2  and  C_3
REMARK    3  A    between atoms: C_3  and  C_4
REMARK    4  A    between atoms: C_4  and  C_5
REMARK    5  A    between atoms: C_5  and  C_6
REMARK    6  A    between atoms: C_6  and  C_7
REMARK    7  A    between atoms: C_7  and  C_8
REMARK    8  A    between atoms: C_8  and  O_9
REMARK    9  A    between atoms: C_8  and  O_14
REMARK   10  A    between atoms: O_9  and  P_10
REMARK   11  A    between atoms: P_10  and  O_12
REMARK   12  A    between atoms: P_10  and  O_13
REMARK   13  A    between atoms: O_14  and  P_15
REMARK   14  A    between atoms: P_15  and  O_17
REMARK   15  A    between atoms: P_15  and  O_18
REMARK                            x       y       z     vdW  Elec       q    Type
REMARK                         _______ _______ _______ _____ _____    ______ ____
ROOT
ATOM      1  C   UNL     1       5.488   4.212  17.055  0.00  0.00    +0.000 C 
ENDROOT
BRANCH   1   2
ATOM      2  C   UNL     1       4.022   4.664  16.987  0.00  0.00    +0.000 C 
BRANCH   2   3
ATOM      3  C   UNL     1       2.956   3.634  17.326  0.00  0.00    +0.000 C 
BRANCH   3   4
ATOM      4  C   UNL     1       1.623   4.228  17.778  0.00  0.00    +0.000 C 
BRANCH   4   5
ATOM      5  C   UNL     1       1.007   3.323  18.847  0.00  0.00    +0.000 C 
BRANCH   5   6
ATOM      6  C   UNL     1       1.017   3.960  20.233  0.00  0.00    +0.000 C 
BRANCH   6   8
ATOM      7  C   UNL     1       2.724   2.603  21.505  0.00  0.00    +0.000 C 
ATOM      8  C   UNL     1       1.247   2.895  21.307  0.00  0.00    +0.000 C 
ENDBRANCH   6   8
ENDBRANCH   5   6
ENDBRANCH   4   5
ENDBRANCH   3   4
ENDBRANCH   2   3
ENDBRANCH   1   2
BRANCH   1   9
ATOM      9  O   UNL     1       5.853   3.670  15.801  0.00  0.00    +0.000 OA
BRANCH   9  10
ATOM     10  P   UNL     1       6.379   4.606  14.619  0.00  0.00    +0.000 P 
ATOM     11  O   UNL     1       6.340   4.039  13.244  0.00  0.00    +0.000 OA
BRANCH  10  12
ATOM     12  O   UNL     1       5.414   5.877  14.743  0.00  0.00    +0.000 OA
ATOM     13  H   UNL     1       5.520   6.301  15.614  0.00  0.00    +0.000 HD
ENDBRANCH  10  12
BRANCH  10  14
ATOM     14  O   UNL     1       7.779   5.260  15.024  0.00  0.00    +0.000 OA
ATOM     15  H   UNL     1       8.167   4.803  15.794  0.00  0.00    +0.000 HD
ENDBRANCH  10  14
ENDBRANCH   9  10
ENDBRANCH   1   9
BRANCH   1  16
ATOM     16  O   UNL     1       6.246   5.391  17.270  0.00  0.00    +0.000 OA
BRANCH  16  17
ATOM     17  P   UNL     1       7.402   5.348  18.556  0.00  0.00    +0.000 P 
ATOM     18  O   UNL     1       6.420   4.681  19.515  0.00  0.00    +0.000 OA
BRANCH  17  19
ATOM     19  O   UNL     1       8.227   4.156  17.819  0.00  0.00    +0.000 OA
ATOM     20  H   UNL     1       8.647   4.436  16.989  0.00  0.00    +0.000 HD
ENDBRANCH  17  19
BRANCH  17  21
ATOM     21  O   UNL     1       8.559   5.304  19.842  0.00  0.00    +0.000 OA
ATOM     22  H   UNL     1       7.983   5.200  20.629  0.00  0.00    +0.000 HD
ENDBRANCH  17  21
ENDBRANCH  16  17
ENDBRANCH   1  16
TORSDOF 14
ENDMDL
MODEL 2
REMARK VINA RESULT:      -6.2      0.943      1.304
REMARK  Name = 
REMARK  15 active torsions:
REMARK  status: ('A' for Active; 'I' for Inactive)
REMARK    1  A    between atoms: C_1  and  C_2
REMARK    2  A    between atoms: C_2  and  C_3
REMARK    3  A    between atoms: C_3  and  C_4
REMARK    4  A    between atoms: C_4  and  C_5
REMARK    5  A    between atoms: C_5  and  C_6
REMARK    6  A    between atoms: C_6  and  C_7
REMARK    7  A    between atoms: C_7  and  C_8
REMARK    8  A    between atoms: C_8  and  O_9
REMARK    9  A    between atoms: C_8  and  O_14
REMARK   10  A    between atoms: O_9  and  P_10
REMARK   11  A    between atoms: P_10  and  O_12
REMARK   12  A    between atoms: P_10  and  O_13
REMARK   13  A    between atoms: O_14  and  P_15
REMARK   14  A    between atoms: P_15  and  O_17
REMARK   15  A    between atoms: P_15  and  O_18
REMARK                            x       y       z     vdW  Elec       q    Type
REMARK                         _______ _______ _______ _____ _____    ______ ____
ROOT
ATOM      1  C   UNL     1       5.298   4.260  17.303  0.00  0.00    +0.000 C 
ENDROOT
BRANCH   1   2
ATOM      2  C   UNL     1       3.801   4.605  17.308  0.00  0.00    +0.000 C 
BRANCH   2   3
ATOM      3  C   UNL     1       2.819   3.456  17.142  0.00  0.00    +0.000 C 
BRANCH   3   4
ATOM      4  C   UNL     1       3.207   2.179  17.885  0.00  0.00    +0.000 C 
BRANCH   4   5
ATOM      5  C   UNL     1       2.466   2.132  19.223  0.00  0.00    +0.000 C 
BRANCH   5   6
ATOM      6  C   UNL     1       1.058   2.712  19.136  0.00  0.00    +0.000 C 
BRANCH   6   8
ATOM      7  C   UNL     1       1.983   3.778  21.229  0.00  0.00    +0.000 C 
ATOM      8  C   UNL     1       0.851   3.776  20.216  0.00  0.00    +0.000 C 
ENDBRANCH   6   8
ENDBRANCH   5   6
ENDBRANCH   4   5
ENDBRANCH   3   4
ENDBRANCH   2   3
ENDBRANCH   1   2
BRANCH   1   9
ATOM      9  O   UNL     1       5.651   3.801  16.013  0.00  0.00    +0.000 OA
BRANCH   9  10
ATOM     10  P   UNL     1       6.322   4.778  14.944  0.00  0.00    +0.000 P 
ATOM     11  O   UNL     1       6.425   4.278  13.546  0.00  0.00    +0.000 OA
BRANCH  10  12
ATOM     12  O   UNL     1       5.375   6.065  15.024  0.00  0.00    +0.000 OA
ATOM     13  H   UNL     1       5.103   6.231  15.945  0.00  0.00    +0.000 HD
ENDBRANCH  10  12
BRANCH  10  14
ATOM     14  O   UNL     1       7.682   5.377  15.532  0.00  0.00    +0.000 OA
ATOM     15  H   UNL     1       8.452   4.864  15.221  0.00  0.00    +0.000 HD
ENDBRANCH  10  14
ENDBRANCH   9  10
ENDBRANCH   1   9
BRANCH   1  16
ATOM     16  O   UNL     1       5.977   5.482  17.542  0.00  0.00    +0.000 OA
BRANCH  16  17
ATOM     17  P   UNL     1       7.027   5.530  18.916  0.00  0.00    +0.000 P 
ATOM     18  O   UNL     1       7.845   4.338  18.425  0.00  0.00    +0.000 OA
BRANCH  17  19
ATOM     19  O   UNL     1       7.756   6.869  18.352  0.00  0.00    +0.000 OA
ATOM     20  H   UNL     1       7.196   7.389  17.754  0.00  0.00    +0.000 HD
ENDBRANCH  17  19
BRANCH  17  21
ATOM     21  O   UNL     1       8.078   5.579  20.289  0.00  0.00    +0.000 OA
ATOM     22  H   UNL     1       8.192   6.544  20.424  0.00  0.00    +0.000 HD
ENDBRANCH  17  21
ENDBRANCH  16  17
ENDBRANCH   1  16
TORSDOF 14
ENDMDL
MODEL 3
REMARK VINA RESULT:      -6.2      1.355      1.853
REMARK  Name = 
REMARK  15 active torsions:
REMARK  status: ('A' for Active; 'I' for Inactive)
REMARK    1  A    between atoms: C_1  and  C_2
REMARK    2  A    between atoms: C_2  and  C_3
REMARK    3  A    between atoms: C_3  and  C_4
REMARK    4  A    between atoms: C_4  and  C_5
REMARK    5  A    between atoms: C_5  and  C_6
REMARK    6  A    between atoms: C_6  and  C_7
REMARK    7  A    between atoms: C_7  and  C_8
REMARK    8  A    between atoms: C_8  and  O_9
REMARK    9  A    between atoms: C_8  and  O_14
REMARK   10  A    between atoms: O_9  and  P_10
REMARK   11  A    between atoms: P_10  and  O_12
REMARK   12  A    between atoms: P_10  and  O_13
REMARK   13  A    between atoms: O_14  and  P_15
REMARK   14  A    between atoms: P_15  and  O_17
REMARK   15  A    between atoms: P_15  and  O_18
REMARK                            x       y       z     vdW  Elec       q    Type
REMARK                         _______ _______ _______ _____ _____    ______ ____
ROOT
ATOM      1  C   UNL     1       5.302   5.830  17.062  0.00  0.00    +0.000 C 
ENDROOT
BRANCH   1   2
ATOM      2  C   UNL     1       4.276   6.905  17.450  0.00  0.00    +0.000 C 
BRANCH   2   3
ATOM      3  C   UNL     1       3.211   6.522  18.466  0.00  0.00    +0.000 C 
BRANCH   3   4
ATOM      4  C   UNL     1       2.177   5.521  17.952  0.00  0.00    +0.000 C 
BRANCH   4   5
ATOM      5  C   UNL     1       2.375   4.183  18.668  0.00  0.00    +0.000 C 
BRANCH   5   6
ATOM      6  C   UNL     1       3.046   4.339  20.029  0.00  0.00    +0.000 C 
BRANCH   6   8
ATOM      7  C   UNL     1       1.358   2.861  21.186  0.00  0.00    +0.000 C 
ATOM      8  C   UNL     1       2.010   4.232  21.150  0.00  0.00    +0.000 C 
ENDBRANCH   6   8
ENDBRANCH   5   6
ENDBRANCH   4   5
ENDBRANCH   3   4
ENDBRANCH   2   3
ENDBRANCH   1   2
BRANCH   1   9
ATOM      9  O   UNL     1       5.264   5.655  15.659  0.00  0.00    +0.000 OA
BRANCH   9  10
ATOM     10  P   UNL     1       6.161   4.547  14.941  0.00  0.00    +0.000 P 
ATOM     11  O   UNL     1       5.662   4.012  13.646  0.00  0.00    +0.000 OA
BRANCH  10  12
ATOM     12  O   UNL     1       7.552   5.316  14.747  0.00  0.00    +0.000 OA
ATOM     13  H   UNL     1       7.499   6.215  15.119  0.00  0.00    +0.000 HD
ENDBRANCH  10  12
BRANCH  10  14
ATOM     14  O   UNL     1       6.591   3.427  15.996  0.00  0.00    +0.000 OA
ATOM     15  H   UNL     1       6.040   3.476  16.800  0.00  0.00    +0.000 HD
ENDBRANCH  10  14
ENDBRANCH   9  10
ENDBRANCH   1   9
BRANCH   1  16
ATOM     16  O   UNL     1       6.569   6.360  17.412  0.00  0.00    +0.000 OA
BRANCH  16  17
ATOM     17  P   UNL     1       7.238   5.843  18.920  0.00  0.00    +0.000 P 
ATOM     18  O   UNL     1       7.861   4.595  18.300  0.00  0.00    +0.000 OA
BRANCH  17  19
ATOM     19  O   UNL     1       8.364   7.014  18.860  0.00  0.00    +0.000 OA
ATOM     20  H   UNL     1       8.524   7.438  19.718  0.00  0.00    +0.000 HD
ENDBRANCH  17  19
BRANCH  17  21
ATOM     21  O   UNL     1       7.908   5.326  20.429  0.00  0.00    +0.000 OA
ATOM     22  H   UNL     1       7.106   5.223  20.984  0.00  0.00    +0.000 HD
ENDBRANCH  17  21
ENDBRANCH  16  17
ENDBRANCH   1  16
TORSDOF 14
ENDMDL
MODEL 4
REMARK VINA RESULT:      -6.2      1.131      3.552
REMARK  Name = 
REMARK  15 active torsions:
REMARK  status: ('A' for Active; 'I' for Inactive)
REMARK    1  A    between atoms: C_1  and  C_2
REMARK    2  A    between atoms: C_2  and  C_3
REMARK    3  A    between atoms: C_3  and  C_4
REMARK    4  A    between atoms: C_4  and  C_5
REMARK    5  A    between atoms: C_5  and  C_6
REMARK    6  A    between atoms: C_6  and  C_7
REMARK    7  A    between atoms: C_7  and  C_8
REMARK    8  A    between atoms: C_8  and  O_9
REMARK    9  A    between atoms: C_8  and  O_14
REMARK   10  A    between atoms: O_9  and  P_10
REMARK   11  A    between atoms: P_10  and  O_12
REMARK   12  A    between atoms: P_10  and  O_13
REMARK   13  A    between atoms: O_14  and  P_15
REMARK   14  A    between atoms: P_15  and  O_17
REMARK   15  A    between atoms: P_15  and  O_18
REMARK                            x       y       z     vdW  Elec       q    Type
REMARK                         _______ _______ _______ _____ _____    ______ ____
ROOT
ATOM      1  C   UNL     1       5.366   5.234  17.697  0.00  0.00    +0.000 C 
ENDROOT
BRANCH   1   2
ATOM      2  C   UNL     1       3.990   4.595  17.940  0.00  0.00    +0.000 C 
BRANCH   2   3
ATOM      3  C   UNL     1       3.895   3.080  17.838  0.00  0.00    +0.000 C 
BRANCH   3   4
ATOM      4  C   UNL     1       2.491   2.553  17.546  0.00  0.00    +0.000 C 
BRANCH   4   5
ATOM      5  C   UNL     1       1.461   3.480  18.195  0.00  0.00    +0.000 C 
BRANCH   5   6
ATOM      6  C   UNL     1       0.790   2.851  19.413  0.00  0.00    +0.000 C 
BRANCH   6   8
ATOM      7  C   UNL     1       2.144   3.107  21.528  0.00  0.00    +0.000 C 
ATOM      8  C   UNL     1       1.047   3.699  20.660  0.00  0.00    +0.000 C 
ENDBRANCH   6   8
ENDBRANCH   5   6
ENDBRANCH   4   5
ENDBRANCH   3   4
ENDBRANCH   2   3
ENDBRANCH   1   2
BRANCH   1   9
ATOM      9  O   UNL     1       6.020   5.384  18.942  0.00  0.00    +0.000 OA
BRANCH   9  10
ATOM     10  P   UNL     1       7.591   5.662  19.020  0.00  0.00    +0.000 P 
ATOM     11  O   UNL     1       8.068   6.974  18.505  0.00  0.00    +0.000 OA
BRANCH  10  12
ATOM     12  O   UNL     1       7.879   5.521  20.588  0.00  0.00    +0.000 OA
ATOM     13  H   UNL     1       8.360   4.694  20.772  0.00  0.00    +0.000 HD
ENDBRANCH  10  12
BRANCH  10  14
ATOM     14  O   UNL     1       8.396   4.401  18.459  0.00  0.00    +0.000 OA
ATOM     15  H   UNL     1       8.453   3.697  19.133  0.00  0.00    +0.000 HD
ENDBRANCH  10  14
ENDBRANCH   9  10
ENDBRANCH   1   9
BRANCH   1  16
ATOM     16  O   UNL     1       6.094   4.299  16.919  0.00  0.00    +0.000 OA
BRANCH  16  17
ATOM     17  P   UNL     1       6.637   4.834  15.367  0.00  0.00    +0.000 P 
ATOM     18  O   UNL     1       5.382   4.316  14.668  0.00  0.00    +0.000 OA
BRANCH  17  19
ATOM     19  O   UNL     1       6.350   6.384  15.765  0.00  0.00    +0.000 OA
ATOM     20  H   UNL     1       7.120   6.829  16.154  0.00  0.00    +0.000 HD
ENDBRANCH  17  19
BRANCH  17  21
ATOM     21  O   UNL     1       7.178   5.371  13.814  0.00  0.00    +0.000 OA
ATOM     22  H   UNL     1       7.689   4.596  13.498  0.00  0.00    +0.000 HD
ENDBRANCH  17  21
ENDBRANCH  16  17
ENDBRANCH   1  16
TORSDOF 14
ENDMDL
MODEL 5
REMARK VINA RESULT:      -6.2      1.208      1.958
REMARK  Name = 
REMARK  15 active torsions:
REMARK  status: ('A' for Active; 'I' for Inactive)
REMARK    1  A    between atoms: C_1  and  C_2
REMARK    2  A    between atoms: C_2  and  C_3
REMARK    3  A    between atoms: C_3  and  C_4
REMARK    4  A    between atoms: C_4  and  C_5
REMARK    5  A    between atoms: C_5  and  C_6
REMARK    6  A    between atoms: C_6  and  C_7
REMARK    7  A    between atoms: C_7  and  C_8
REMARK    8  A    between atoms: C_8  and  O_9
REMARK    9  A    between atoms: C_8  and  O_14
REMARK   10  A    between atoms: O_9  and  P_10
REMARK   11  A    between atoms: P_10  and  O_12
REMARK   12  A    between atoms: P_10  and  O_13
REMARK   13  A    between atoms: O_14  and  P_15
REMARK   14  A    between atoms: P_15  and  O_17
REMARK   15  A    between atoms: P_15  and  O_18
REMARK                            x       y       z     vdW  Elec       q    Type
REMARK                         _______ _______ _______ _____ _____    ______ ____
ROOT
ATOM      1  C   UNL     1       5.479   5.897  17.105  0.00  0.00    +0.000 C 
ENDROOT
BRANCH   1   2
ATOM      2  C   UNL     1       4.363   6.843  17.573  0.00  0.00    +0.000 C 
BRANCH   2   3
ATOM      3  C   UNL     1       2.996   6.233  17.842  0.00  0.00    +0.000 C 
BRANCH   3   4
ATOM      4  C   UNL     1       3.026   4.958  18.684  0.00  0.00    +0.000 C 
BRANCH   4   5
ATOM      5  C   UNL     1       2.203   3.875  17.984  0.00  0.00    +0.000 C 
BRANCH   5   6
ATOM      6  C   UNL     1       1.059   3.355  18.850  0.00  0.00    +0.000 C 
BRANCH   6   8
ATOM      7  C   UNL     1       1.461   2.838  21.287  0.00  0.00    +0.000 C 
ATOM      8  C   UNL     1       1.163   3.922  20.267  0.00  0.00    +0.000 C 
ENDBRANCH   6   8
ENDBRANCH   5   6
ENDBRANCH   4   5
ENDBRANCH   3   4
ENDBRANCH   2   3
ENDBRANCH   1   2
BRANCH   1   9
ATOM      9  O   UNL     1       5.498   5.885  15.691  0.00  0.00    +0.000 OA
BRANCH   9  10
ATOM     10  P   UNL     1       6.381   4.826  14.886  0.00  0.00    +0.000 P 
ATOM     11  O   UNL     1       7.669   5.314  14.322  0.00  0.00    +0.000 OA
BRANCH  10  12
ATOM     12  O   UNL     1       6.630   3.691  15.987  0.00  0.00    +0.000 OA
ATOM     13  H   UNL     1       5.833   3.142  16.096  0.00  0.00    +0.000 HD
ENDBRANCH  10  12
BRANCH  10  14
ATOM     14  O   UNL     1       5.465   4.030  13.847  0.00  0.00    +0.000 OA
ATOM     15  H   UNL     1       4.925   4.646  13.316  0.00  0.00    +0.000 HD
ENDBRANCH  10  14
ENDBRANCH   9  10
ENDBRANCH   1   9
BRANCH   1  16
ATOM     16  O   UNL     1       6.691   6.472  17.563  0.00  0.00    +0.000 OA
BRANCH  16  17
ATOM     17  P   UNL     1       7.341   5.843  19.037  0.00  0.00    +0.000 P 
ATOM     18  O   UNL     1       7.962   4.638  18.335  0.00  0.00    +0.000 OA
BRANCH  17  19
ATOM     19  O   UNL     1       8.474   7.007  19.073  0.00  0.00    +0.000 OA
ATOM     20  H   UNL     1       8.116   7.886  19.275  0.00  0.00    +0.000 HD
ENDBRANCH  17  19
BRANCH  17  21
ATOM     21  O   UNL     1       7.991   5.213  20.511  0.00  0.00    +0.000 OA
ATOM     22  H   UNL     1       7.287   4.594  20.797  0.00  0.00    +0.000 HD
ENDBRANCH  17  21
ENDBRANCH  16  17
ENDBRANCH   1  16
TORSDOF 14
ENDMDL
MODEL 6
REMARK VINA RESULT:      -6.2      3.979      6.307
REMARK  Name = 
REMARK  15 active torsions:
REMARK  status: ('A' for Active; 'I' for Inactive)
REMARK    1  A    between atoms: C_1  and  C_2
REMARK    2  A    between atoms: C_2  and  C_3
REMARK    3  A    between atoms: C_3  and  C_4
REMARK    4  A    between atoms: C_4  and  C_5
REMARK    5  A    between atoms: C_5  and  C_6
REMARK    6  A    between atoms: C_6  and  C_7
REMARK    7  A    between atoms: C_7  and  C_8
REMARK    8  A    between atoms: C_8  and  O_9
REMARK    9  A    between atoms: C_8  and  O_14
REMARK   10  A    between atoms: O_9  and  P_10
REMARK   11  A    between atoms: P_10  and  O_12
REMARK   12  A    between atoms: P_10  and  O_13
REMARK   13  A    between atoms: O_14  and  P_15
REMARK   14  A    between atoms: P_15  and  O_17
REMARK   15  A    between atoms: P_15  and  O_18
REMARK                            x       y       z     vdW  Elec       q    Type
REMARK                         _______ _______ _______ _____ _____    ______ ____
ROOT
ATOM      1  C   UNL     1       5.861   4.004  16.175  0.00  0.00    +0.000 C 
ENDROOT
BRANCH   1   2
ATOM      2  C   UNL     1       6.341   4.292  14.745  0.00  0.00    +0.000 C 
BRANCH   2   3
ATOM      3  C   UNL     1       5.396   3.940  13.606  0.00  0.00    +0.000 C 
BRANCH   3   4
ATOM      4  C   UNL     1       6.080   3.334  12.381  0.00  0.00    +0.000 C 
BRANCH   4   5
ATOM      5  C   UNL     1       5.023   2.676  11.491  0.00  0.00    +0.000 C 
BRANCH   5   6
ATOM      6  C   UNL     1       3.819   3.579  11.243  0.00  0.00    +0.000 C 
BRANCH   6   8
ATOM      7  C   UNL     1       2.508   4.714   9.409  0.00  0.00    +0.000 C 
ATOM      8  C   UNL     1       3.440   3.568   9.761  0.00  0.00    +0.000 C 
ENDBRANCH   6   8
ENDBRANCH   5   6
ENDBRANCH   4   5
ENDBRANCH   3   4
ENDBRANCH   2   3
ENDBRANCH   1   2
BRANCH   1   9
ATOM      9  O   UNL     1       6.058   5.164  16.960  0.00  0.00    +0.000 OA
BRANCH   9  10
ATOM     10  P   UNL     1       7.275   5.267  17.988  0.00  0.00    +0.000 P 
ATOM     11  O   UNL     1       7.909   6.603  18.149  0.00  0.00    +0.000 OA
BRANCH  10  12
ATOM     12  O   UNL     1       6.600   4.784  19.357  0.00  0.00    +0.000 OA
ATOM     13  H   UNL     1       7.165   5.016  20.115  0.00  0.00    +0.000 HD
ENDBRANCH  10  12
BRANCH  10  14
ATOM     14  O   UNL     1       8.306   4.074  17.733  0.00  0.00    +0.000 OA
ATOM     15  H   UNL     1       8.867   4.258  16.955  0.00  0.00    +0.000 HD
ENDBRANCH  10  14
ENDBRANCH   9  10
ENDBRANCH   1   9
BRANCH   1  16
ATOM     16  O   UNL     1       4.467   3.766  16.074  0.00  0.00    +0.000 OA
BRANCH  16  17
ATOM     17  P   UNL     1       3.537   3.969  17.518  0.00  0.00    +0.000 P 
ATOM     18  O   UNL     1       2.356   3.182  16.955  0.00  0.00    +0.000 OA
BRANCH  17  19
ATOM     19  O   UNL     1       4.478   2.907  18.312  0.00  0.00    +0.000 OA
ATOM     20  H   UNL     1       4.657   2.098  17.804  0.00  0.00    +0.000 HD
ENDBRANCH  17  19
BRANCH  17  21
ATOM     21  O   UNL     1       2.607   4.170  18.963  0.00  0.00    +0.000 OA
ATOM     22  H   UNL     1       2.192   5.046  18.817  0.00  0.00    +0.000 HD
ENDBRANCH  17  21
ENDBRANCH  16  17
ENDBRANCH   1  16
TORSDOF 14
ENDMDL
MODEL 7
REMARK VINA RESULT:      -6.2      0.999      1.225
REMARK  Name = 
REMARK  15 active torsions:
REMARK  status: ('A' for Active; 'I' for Inactive)
REMARK    1  A    between atoms: C_1  and  C_2
REMARK    2  A    between atoms: C_2  and  C_3
REMARK    3  A    between atoms: C_3  and  C_4
REMARK    4  A    between atoms: C_4  and  C_5
REMARK    5  A    between atoms: C_5  and  C_6
REMARK    6  A    between atoms: C_6  and  C_7
REMARK    7  A    between atoms: C_7  and  C_8
REMARK    8  A    between atoms: C_8  and  O_9
REMARK    9  A    between atoms: C_8  and  O_14
REMARK   10  A    between atoms: O_9  and  P_10
REMARK   11  A    between atoms: P_10  and  O_12
REMARK   12  A    between atoms: P_10  and  O_13
REMARK   13  A    between atoms: O_14  and  P_15
REMARK   14  A    between atoms: P_15  and  O_17
REMARK   15  A    between atoms: P_15  and  O_18
REMARK                            x       y       z     vdW  Elec       q    Type
REMARK                         _______ _______ _______ _____ _____    ______ ____
ROOT
ATOM      1  C   UNL     1       5.563   4.182  17.305  0.00  0.00    +0.000 C 
ENDROOT
BRANCH   1   2
ATOM      2  C   UNL     1       4.389   3.761  18.201  0.00  0.00    +0.000 C 
BRANCH   2   3
ATOM      3  C   UNL     1       3.166   3.167  17.519  0.00  0.00    +0.000 C 
BRANCH   3   4
ATOM      4  C   UNL     1       1.851   3.869  17.855  0.00  0.00    +0.000 C 
BRANCH   4   5
ATOM      5  C   UNL     1       0.912   2.873  18.538  0.00  0.00    +0.000 C 
BRANCH   5   6
ATOM      6  C   UNL     1       1.556   2.188  19.740  0.00  0.00    +0.000 C 
BRANCH   6   8
ATOM      7  C   UNL     1       2.273   3.832  21.515  0.00  0.00    +0.000 C 
ATOM      8  C   UNL     1       1.170   2.907  21.034  0.00  0.00    +0.000 C 
ENDBRANCH   6   8
ENDBRANCH   5   6
ENDBRANCH   4   5
ENDBRANCH   3   4
ENDBRANCH   2   3
ENDBRANCH   1   2
BRANCH   1   9
ATOM      9  O   UNL     1       5.231   3.894  15.961  0.00  0.00    +0.000 OA
BRANCH   9  10
ATOM     10  P   UNL     1       6.079   4.503  14.753  0.00  0.00    +0.000 P 
ATOM     11  O   UNL     1       5.883   3.885  13.413  0.00  0.00    +0.000 OA
BRANCH  10  12
ATOM     12  O   UNL     1       5.610   6.034  14.752  0.00  0.00    +0.000 OA
ATOM     13  H   UNL     1       5.719   6.424  15.638  0.00  0.00    +0.000 HD
ENDBRANCH  10  12
BRANCH  10  14
ATOM     14  O   UNL     1       7.608   4.665  15.187  0.00  0.00    +0.000 OA
ATOM     15  H   UNL     1       7.728   5.453  15.751  0.00  0.00    +0.000 HD
ENDBRANCH  10  14
ENDBRANCH   9  10
ENDBRANCH   1   9
BRANCH   1  16
ATOM     16  O   UNL     1       5.673   5.588  17.446  0.00  0.00    +0.000 OA
BRANCH  16  17
ATOM     17  P   UNL     1       7.065   6.178  18.287  0.00  0.00    +0.000 P 
ATOM     18  O   UNL     1       7.774   4.828  18.212  0.00  0.00    +0.000 OA
BRANCH  17  19
ATOM     19  O   UNL     1       7.531   7.031  16.984  0.00  0.00    +0.000 OA
ATOM     20  H   UNL     1       8.393   7.463  17.096  0.00  0.00    +0.000 HD
ENDBRANCH  17  19
BRANCH  17  21
ATOM     21  O   UNL     1       8.457   6.769  19.127  0.00  0.00    +0.000 OA
ATOM     22  H   UNL     1       9.189   6.436  18.566  0.00  0.00    +0.000 HD
ENDBRANCH  17  21
ENDBRANCH  16  17
ENDBRANCH   1  16
TORSDOF 14
ENDMDL
MODEL 8
REMARK VINA RESULT:      -6.1      1.005      3.456
REMARK  Name = 
REMARK  15 active torsions:
REMARK  status: ('A' for Active; 'I' for Inactive)
REMARK    1  A    between atoms: C_1  and  C_2
REMARK    2  A    between atoms: C_2  and  C_3
REMARK    3  A    between atoms: C_3  and  C_4
REMARK    4  A    between atoms: C_4  and  C_5
REMARK    5  A    between atoms: C_5  and  C_6
REMARK    6  A    between atoms: C_6  and  C_7
REMARK    7  A    between atoms: C_7  and  C_8
REMARK    8  A    between atoms: C_8  and  O_9
REMARK    9  A    between atoms: C_8  and  O_14
REMARK   10  A    between atoms: O_9  and  P_10
REMARK   11  A    between atoms: P_10  and  O_12
REMARK   12  A    between atoms: P_10  and  O_13
REMARK   13  A    between atoms: O_14  and  P_15
REMARK   14  A    between atoms: P_15  and  O_17
REMARK   15  A    between atoms: P_15  and  O_18
REMARK                            x       y       z     vdW  Elec       q    Type
REMARK                         _______ _______ _______ _____ _____    ______ ____
ROOT
ATOM      1  C   UNL     1       5.174   5.096  17.264  0.00  0.00    +0.000 C 
ENDROOT
BRANCH   1   2
ATOM      2  C   UNL     1       3.670   4.791  17.337  0.00  0.00    +0.000 C 
BRANCH   2   3
ATOM      3  C   UNL     1       3.234   3.633  18.221  0.00  0.00    +0.000 C 
BRANCH   3   4
ATOM      4  C   UNL     1       2.076   2.809  17.660  0.00  0.00    +0.000 C 
BRANCH   4   5
ATOM      5  C   UNL     1       1.128   2.433  18.800  0.00  0.00    +0.000 C 
BRANCH   5   6
ATOM      6  C   UNL     1       1.008   3.532  19.851  0.00  0.00    +0.000 C 
BRANCH   6   8
ATOM      7  C   UNL     1       2.588   2.652  21.613  0.00  0.00    +0.000 C 
ATOM      8  C   UNL     1       1.140   2.941  21.257  0.00  0.00    +0.000 C 
ENDBRANCH   6   8
ENDBRANCH   5   6
ENDBRANCH   4   5
ENDBRANCH   3   4
ENDBRANCH   2   3
ENDBRANCH   1   2
BRANCH   1   9
ATOM      9  O   UNL     1       5.739   4.891  18.544  0.00  0.00    +0.000 OA
BRANCH   9  10
ATOM     10  P   UNL     1       7.231   5.356  18.872  0.00  0.00    +0.000 P 
ATOM     11  O   UNL     1       7.590   5.504  20.308  0.00  0.00    +0.000 OA
BRANCH  10  12
ATOM     12  O   UNL     1       8.102   4.207  18.177  0.00  0.00    +0.000 OA
ATOM     13  H   UNL     1       8.944   4.084  18.652  0.00  0.00    +0.000 HD
ENDBRANCH  10  12
BRANCH  10  14
ATOM     14  O   UNL     1       7.622   6.610  17.962  0.00  0.00    +0.000 OA
ATOM     15  H   UNL     1       8.454   6.444  17.479  0.00  0.00    +0.000 HD
ENDBRANCH  10  14
ENDBRANCH   9  10
ENDBRANCH   1   9
BRANCH   1  16
ATOM     16  O   UNL     1       5.720   4.135  16.376  0.00  0.00    +0.000 OA
BRANCH  16  17
ATOM     17  P   UNL     1       6.449   4.741  14.929  0.00  0.00    +0.000 P 
ATOM     18  O   UNL     1       7.850   4.713  15.536  0.00  0.00    +0.000 OA
BRANCH  17  19
ATOM     19  O   UNL     1       6.229   3.315  14.181  0.00  0.00    +0.000 OA
ATOM     20  H   UNL     1       5.294   3.069  14.091  0.00  0.00    +0.000 HD
ENDBRANCH  17  19
BRANCH  17  21
ATOM     21  O   UNL     1       7.179   5.347  13.482  0.00  0.00    +0.000 OA
ATOM     22  H   UNL     1       7.405   6.266  13.737  0.00  0.00    +0.000 HD
ENDBRANCH  17  21
ENDBRANCH  16  17
ENDBRANCH   1  16
TORSDOF 14
ENDMDL
MODEL 9
REMARK VINA RESULT:      -6.1      1.248      1.637
REMARK  Name = 
REMARK  15 active torsions:
REMARK  status: ('A' for Active; 'I' for Inactive)
REMARK    1  A    between atoms: C_1  and  C_2
REMARK    2  A    between atoms: C_2  and  C_3
REMARK    3  A    between atoms: C_3  and  C_4
REMARK    4  A    between atoms: C_4  and  C_5
REMARK    5  A    between atoms: C_5  and  C_6
REMARK    6  A    between atoms: C_6  and  C_7
REMARK    7  A    between atoms: C_7  and  C_8
REMARK    8  A    between atoms: C_8  and  O_9
REMARK    9  A    between atoms: C_8  and  O_14
REMARK   10  A    between atoms: O_9  and  P_10
REMARK   11  A    between atoms: P_10  and  O_12
REMARK   12  A    between atoms: P_10  and  O_13
REMARK   13  A    between atoms: O_14  and  P_15
REMARK   14  A    between atoms: P_15  and  O_17
REMARK   15  A    between atoms: P_15  and  O_18
REMARK                            x       y       z     vdW  Elec       q    Type
REMARK                         _______ _______ _______ _____ _____    ______ ____
ROOT
ATOM      1  C   UNL     1       5.037   5.871  17.195  0.00  0.00    +0.000 C 
ENDROOT
BRANCH   1   2
ATOM      2  C   UNL     1       4.039   7.000  17.494  0.00  0.00    +0.000 C 
BRANCH   2   3
ATOM      3  C   UNL     1       2.999   6.747  18.574  0.00  0.00    +0.000 C 
BRANCH   3   4
ATOM      4  C   UNL     1       2.511   5.301  18.656  0.00  0.00    +0.000 C 
BRANCH   4   5
ATOM      5  C   UNL     1       2.127   4.982  20.102  0.00  0.00    +0.000 C 
BRANCH   5   6
ATOM      6  C   UNL     1       0.895   4.089  20.200  0.00  0.00    +0.000 C 
BRANCH   6   8
ATOM      7  C   UNL     1       2.640   2.834  21.523  0.00  0.00    +0.000 C 
ATOM      8  C   UNL     1       1.213   2.826  21.002  0.00  0.00    +0.000 C 
ENDBRANCH   6   8
ENDBRANCH   5   6
ENDBRANCH   4   5
ENDBRANCH   3   4
ENDBRANCH   2   3
ENDBRANCH   1   2
BRANCH   1   9
ATOM      9  O   UNL     1       4.985   5.577  15.812  0.00  0.00    +0.000 OA
BRANCH   9  10
ATOM     10  P   UNL     1       5.997   4.534  15.152  0.00  0.00    +0.000 P 
ATOM     11  O   UNL     1       5.636   4.002  13.811  0.00  0.00    +0.000 OA
BRANCH  10  12
ATOM     12  O   UNL     1       7.355   5.380  15.086  0.00  0.00    +0.000 OA
ATOM     13  H   UNL     1       8.078   4.835  14.726  0.00  0.00    +0.000 HD
ENDBRANCH  10  12
BRANCH  10  14
ATOM     14  O   UNL     1       6.401   3.416  16.219  0.00  0.00    +0.000 OA
ATOM     15  H   UNL     1       6.555   3.812  17.098  0.00  0.00    +0.000 HD
ENDBRANCH  10  14
ENDBRANCH   9  10
ENDBRANCH   1   9
BRANCH   1  16
ATOM     16  O   UNL     1       6.319   6.399  17.491  0.00  0.00    +0.000 OA
BRANCH  16  17
ATOM     17  P   UNL     1       7.098   5.794  18.912  0.00  0.00    +0.000 P 
ATOM     18  O   UNL     1       5.968   4.809  19.201  0.00  0.00    +0.000 OA
BRANCH  17  19
ATOM     19  O   UNL     1       8.197   5.003  18.012  0.00  0.00    +0.000 OA
ATOM     20  H   UNL     1       9.095   5.360  18.102  0.00  0.00    +0.000 HD
ENDBRANCH  17  19
BRANCH  17  21
ATOM     21  O   UNL     1       7.878   5.189  20.332  0.00  0.00    +0.000 OA
ATOM     22  H   UNL     1       7.678   5.889  20.989  0.00  0.00    +0.000 HD
ENDBRANCH  17  21
ENDBRANCH  16  17
ENDBRANCH   1  16
TORSDOF 14
ENDMDL
