MODEL 1
REMARK VINA RESULT:      -6.9      0.000      0.000
REMARK  Name = 
REMARK  12 active torsions:
REMARK  status: ('A' for Active; 'I' for Inactive)
REMARK    1  A    between atoms: C_1  and  O_2
REMARK    2  A    between atoms: O_2  and  C_3
REMARK    3  A    between atoms: C_5  and  C_6
REMARK    4  A    between atoms: C_6  and  C_7
REMARK    5  A    between atoms: C_7  and  C_8
REMARK    6  A    between atoms: C_11  and  O_12
REMARK    7  A    between atoms: O_12  and  C_13
REMARK    8  A    between atoms: C_13  and  C_14
REMARK    9  A    between atoms: C_19  and  O_20
REMARK   10  A    between atoms: O_20  and  C_21
REMARK   11  A    between atoms: C_22  and  O_23
REMARK   12  A    between atoms: O_23  and  C_24
REMARK                            x       y       z     vdW  Elec       q    Type
REMARK                         _______ _______ _______ _____ _____    ______ ____
ROOT
ATOM      1  C   UNL     1       1.037  10.191  21.183  0.00  0.00    +0.000 A 
ATOM      2  C   UNL     1       1.142   9.151  20.244  0.00  0.00    +0.000 A 
ATOM      3  C   UNL     1       1.394   9.413  18.899  0.00  0.00    +0.000 A 
ATOM      4  C   UNL     1       1.413  10.743  18.477  0.00  0.00    +0.000 A 
ATOM      5  C   UNL     1       1.224  11.804  19.382  0.00  0.00    +0.000 A 
ATOM      6  C   UNL     1       1.049  11.538  20.760  0.00  0.00    +0.000 A 
ENDROOT
BRANCH   1   8
ATOM      7  C   UNL     1      -0.422   9.488  22.920  0.00  0.00    +0.000 C 
ATOM      8  O   UNL     1       0.892   9.892  22.514  0.00  0.00    +0.000 OA
ENDBRANCH   1   8
BRANCH   5   9
ATOM      9  O   UNL     1       1.285  13.015  18.736  0.00  0.00    +0.000 OA
ATOM     10  C   UNL     1       2.546  13.573  18.402  0.00  0.00    +0.000 C 
ENDBRANCH   5   9
BRANCH   6  11
ATOM     11  O   UNL     1       0.895  12.630  21.573  0.00  0.00    +0.000 OA
ATOM     12  C   UNL     1      -0.398  13.148  21.844  0.00  0.00    +0.000 C 
ENDBRANCH   6  11
BRANCH   3  13
ATOM     13  C   UNL     1       1.797   8.289  17.979  0.00  0.00    +0.000 C 
BRANCH  13  14
ATOM     14  C   UNL     1       2.177   6.971  18.654  0.00  0.00    +0.000 C 
BRANCH  14  15
ATOM     15  C   UNL     1       3.224   6.263  17.820  0.00  0.00    +0.000 A 
ATOM     16  C   UNL     1       3.269   4.863  17.769  0.00  0.00    +0.000 A 
ATOM     17  C   UNL     1       4.283   4.218  17.057  0.00  0.00    +0.000 A 
ATOM     18  C   UNL     1       5.254   4.968  16.391  0.00  0.00    +0.000 A 
ATOM     19  C   UNL     1       5.240   6.358  16.456  0.00  0.00    +0.000 A 
ATOM     20  C   UNL     1       4.219   7.002  17.161  0.00  0.00    +0.000 A 
BRANCH  18  21
ATOM     21  O   UNL     1       6.252   4.221  15.730  0.00  0.00    +0.000 OA
BRANCH  21  22
ATOM     22  C   UNL     1       6.710   4.545  14.454  0.00  0.00    +0.000 C 
ATOM     23  C   UNL     1       5.938   3.746  13.441  0.00  0.00    +0.000 C 
ATOM     24  O   UNL     1       7.550   5.385  14.161  0.00  0.00    +0.000 OA
ENDBRANCH  21  22
ENDBRANCH  18  21
ENDBRANCH  14  15
ENDBRANCH  13  14
ENDBRANCH   3  13
TORSDOF 8
ENDMDL
MODEL 2
REMARK VINA RESULT:      -6.7      1.536      2.047
REMARK  Name = 
REMARK  12 active torsions:
REMARK  status: ('A' for Active; 'I' for Inactive)
REMARK    1  A    between atoms: C_1  and  O_2
REMARK    2  A    between atoms: O_2  and  C_3
REMARK    3  A    between atoms: C_5  and  C_6
REMARK    4  A    between atoms: C_6  and  C_7
REMARK    5  A    between atoms: C_7  and  C_8
REMARK    6  A    between atoms: C_11  and  O_12
REMARK    7  A    between atoms: O_12  and  C_13
REMARK    8  A    between atoms: C_13  and  C_14
REMARK    9  A    between atoms: C_19  and  O_20
REMARK   10  A    between atoms: O_20  and  C_21
REMARK   11  A    between atoms: C_22  and  O_23
REMARK   12  A    between atoms: O_23  and  C_24
REMARK                            x       y       z     vdW  Elec       q    Type
REMARK                         _______ _______ _______ _____ _____    ______ ____
ROOT
ATOM      1  C   UNL     1       0.156  10.372  20.883  0.00  0.00    +0.000 A 
ATOM      2  C   UNL     1       1.048   9.426  20.350  0.00  0.00    +0.000 A 
ATOM      3  C   UNL     1       1.138   9.208  18.977  0.00  0.00    +0.000 A 
ATOM      4  C   UNL     1       0.228   9.859  18.144  0.00  0.00    +0.000 A 
ATOM      5  C   UNL     1      -0.734  10.747  18.658  0.00  0.00    +0.000 A 
ATOM      6  C   UNL     1      -0.771  11.029  20.044  0.00  0.00    +0.000 A 
ENDROOT
BRANCH   1   8
ATOM      7  C   UNL     1       0.313   9.493  23.083  0.00  0.00    +0.000 C 
ATOM      8  O   UNL     1       0.167  10.635  22.229  0.00  0.00    +0.000 OA
ENDBRANCH   1   8
BRANCH   5   9
ATOM      9  O   UNL     1      -1.513  11.263  17.650  0.00  0.00    +0.000 OA
ATOM     10  C   UNL     1      -2.476  10.441  17.011  0.00  0.00    +0.000 C 
ENDBRANCH   5   9
BRANCH   6  11
ATOM     11  O   UNL     1      -1.725  11.922  20.455  0.00  0.00    +0.000 OA
ATOM     12  C   UNL     1      -1.436  13.310  20.508  0.00  0.00    +0.000 C 
ENDBRANCH   6  11
BRANCH   3  13
ATOM     13  C   UNL     1       2.295   8.421  18.417  0.00  0.00    +0.000 C 
BRANCH  13  14
ATOM     14  C   UNL     1       2.075   6.916  18.267  0.00  0.00    +0.000 C 
BRANCH  14  15
ATOM     15  C   UNL     1       3.336   6.274  17.729  0.00  0.00    +0.000 A 
ATOM     16  C   UNL     1       4.363   7.060  17.188  0.00  0.00    +0.000 A 
ATOM     17  C   UNL     1       5.490   6.456  16.627  0.00  0.00    +0.000 A 
ATOM     18  C   UNL     1       5.598   5.065  16.606  0.00  0.00    +0.000 A 
ATOM     19  C   UNL     1       4.574   4.269  17.112  0.00  0.00    +0.000 A 
ATOM     20  C   UNL     1       3.452   4.876  17.682  0.00  0.00    +0.000 A 
BRANCH  18  21
ATOM     21  O   UNL     1       6.759   4.554  15.987  0.00  0.00    +0.000 OA
BRANCH  21  22
ATOM     22  C   UNL     1       7.040   4.755  14.637  0.00  0.00    +0.000 C 
ATOM     23  C   UNL     1       6.112   3.906  13.813  0.00  0.00    +0.000 C 
ATOM     24  O   UNL     1       7.853   5.535  14.159  0.00  0.00    +0.000 OA
ENDBRANCH  21  22
ENDBRANCH  18  21
ENDBRANCH  14  15
ENDBRANCH  13  14
ENDBRANCH   3  13
TORSDOF 8
ENDMDL
MODEL 3
REMARK VINA RESULT:      -6.7      3.487      4.714
REMARK  Name = 
REMARK  12 active torsions:
REMARK  status: ('A' for Active; 'I' for Inactive)
REMARK    1  A    between atoms: C_1  and  O_2
REMARK    2  A    between atoms: O_2  and  C_3
REMARK    3  A    between atoms: C_5  and  C_6
REMARK    4  A    between atoms: C_6  and  C_7
REMARK    5  A    between atoms: C_7  and  C_8
REMARK    6  A    between atoms: C_11  and  O_12
REMARK    7  A    between atoms: O_12  and  C_13
REMARK    8  A    between atoms: C_13  and  C_14
REMARK    9  A    between atoms: C_19  and  O_20
REMARK   10  A    between atoms: O_20  and  C_21
REMARK   11  A    between atoms: C_22  and  O_23
REMARK   12  A    between atoms: O_23  and  C_24
REMARK                            x       y       z     vdW  Elec       q    Type
REMARK                         _______ _______ _______ _____ _____    ______ ____
ROOT
ATOM      1  C   UNL     1      -2.391  10.230  17.238  0.00  0.00    +0.000 A 
ATOM      2  C   UNL     1      -1.071   9.819  17.486  0.00  0.00    +0.000 A 
ATOM      3  C   UNL     1      -0.363  10.287  18.591  0.00  0.00    +0.000 A 
ATOM      4  C   UNL     1      -0.948  11.278  19.379  0.00  0.00    +0.000 A 
ATOM      5  C   UNL     1      -2.236  11.772  19.103  0.00  0.00    +0.000 A 
ATOM      6  C   UNL     1      -2.986  11.238  18.029  0.00  0.00    +0.000 A 
ENDROOT
BRANCH   1   8
ATOM      7  C   UNL     1      -2.937  10.311  14.928  0.00  0.00    +0.000 C 
ATOM      8  O   UNL     1      -3.094   9.671  16.201  0.00  0.00    +0.000 OA
ENDBRANCH   1   8
BRANCH   5   9
ATOM      9  O   UNL     1      -2.596  12.736  20.013  0.00  0.00    +0.000 OA
ATOM     10  C   UNL     1      -1.667  13.744  20.379  0.00  0.00    +0.000 C 
ENDBRANCH   5   9
BRANCH   6  11
ATOM     11  O   UNL     1      -4.238  11.760  17.845  0.00  0.00    +0.000 OA
ATOM     12  C   UNL     1      -5.377  11.101  18.376  0.00  0.00    +0.000 C 
ENDBRANCH   6  11
BRANCH   3  13
ATOM     13  C   UNL     1       0.922   9.612  18.999  0.00  0.00    +0.000 C 
BRANCH  13  14
ATOM     14  C   UNL     1       1.845   9.179  17.860  0.00  0.00    +0.000 C 
BRANCH  14  15
ATOM     15  C   UNL     1       2.594   7.928  18.267  0.00  0.00    +0.000 A 
ATOM     16  C   UNL     1       3.625   7.419  17.466  0.00  0.00    +0.000 A 
ATOM     17  C   UNL     1       4.260   6.224  17.811  0.00  0.00    +0.000 A 
ATOM     18  C   UNL     1       3.869   5.533  18.959  0.00  0.00    +0.000 A 
ATOM     19  C   UNL     1       2.827   6.009  19.750  0.00  0.00    +0.000 A 
ATOM     20  C   UNL     1       2.200   7.210  19.408  0.00  0.00    +0.000 A 
BRANCH  18  21
ATOM     21  O   UNL     1       4.549   4.320  19.201  0.00  0.00    +0.000 OA
BRANCH  21  22
ATOM     22  C   UNL     1       3.882   3.111  19.392  0.00  0.00    +0.000 C 
ATOM     23  C   UNL     1       3.527   2.531  18.051  0.00  0.00    +0.000 C 
ATOM     24  O   UNL     1       3.664   2.548  20.456  0.00  0.00    +0.000 OA
ENDBRANCH  21  22
ENDBRANCH  18  21
ENDBRANCH  14  15
ENDBRANCH  13  14
ENDBRANCH   3  13
TORSDOF 8
ENDMDL
MODEL 4
REMARK VINA RESULT:      -6.6      2.809      9.780
REMARK  Name = 
REMARK  12 active torsions:
REMARK  status: ('A' for Active; 'I' for Inactive)
REMARK    1  A    between atoms: C_1  and  O_2
REMARK    2  A    between atoms: O_2  and  C_3
REMARK    3  A    between atoms: C_5  and  C_6
REMARK    4  A    between atoms: C_6  and  C_7
REMARK    5  A    between atoms: C_7  and  C_8
REMARK    6  A    between atoms: C_11  and  O_12
REMARK    7  A    between atoms: O_12  and  C_13
REMARK    8  A    between atoms: C_13  and  C_14
REMARK    9  A    between atoms: C_19  and  O_20
REMARK   10  A    between atoms: O_20  and  C_21
REMARK   11  A    between atoms: C_22  and  O_23
REMARK   12  A    between atoms: O_23  and  C_24
REMARK                            x       y       z     vdW  Elec       q    Type
REMARK                         _______ _______ _______ _____ _____    ______ ____
ROOT
ATOM      1  C   UNL     1       3.498   5.081  18.131  0.00  0.00    +0.000 A 
ATOM      2  C   UNL     1       2.831   6.287  18.404  0.00  0.00    +0.000 A 
ATOM      3  C   UNL     1       2.234   6.520  19.642  0.00  0.00    +0.000 A 
ATOM      4  C   UNL     1       2.198   5.475  20.565  0.00  0.00    +0.000 A 
ATOM      5  C   UNL     1       2.782   4.226  20.285  0.00  0.00    +0.000 A 
ATOM      6  C   UNL     1       3.459   4.018  19.061  0.00  0.00    +0.000 A 
ENDROOT
BRANCH   1   8
ATOM      7  C   UNL     1       5.519   5.394  16.923  0.00  0.00    +0.000 C 
ATOM      8  O   UNL     1       4.164   4.926  16.942  0.00  0.00    +0.000 OA
ENDBRANCH   1   8
BRANCH   5   9
ATOM      9  O   UNL     1       2.621   3.362  21.341  0.00  0.00    +0.000 OA
ATOM     10  C   UNL     1       1.419   2.619  21.468  0.00  0.00    +0.000 C 
ENDBRANCH   5   9
BRANCH   6  11
ATOM     11  O   UNL     1       4.018   2.780  18.880  0.00  0.00    +0.000 OA
ATOM     12  C   UNL     1       3.287   1.749  18.235  0.00  0.00    +0.000 C 
ENDBRANCH   6  11
BRANCH   3  13
ATOM     13  C   UNL     1       1.795   7.914  20.011  0.00  0.00    +0.000 C 
BRANCH  13  14
ATOM     14  C   UNL     1       1.522   8.162  21.495  0.00  0.00    +0.000 C 
BRANCH  14  15
ATOM     15  C   UNL     1       0.476   9.247  21.639  0.00  0.00    +0.000 A 
ATOM     16  C   UNL     1       0.113  10.040  20.541  0.00  0.00    +0.000 A 
ATOM     17  C   UNL     1      -0.799  11.086  20.700  0.00  0.00    +0.000 A 
ATOM     18  C   UNL     1      -1.354  11.343  21.955  0.00  0.00    +0.000 A 
ATOM     19  C   UNL     1      -0.983  10.583  23.060  0.00  0.00    +0.000 A 
ATOM     20  C   UNL     1      -0.078   9.531  22.897  0.00  0.00    +0.000 A 
BRANCH  18  21
ATOM     21  O   UNL     1      -2.237  12.441  22.016  0.00  0.00    +0.000 OA
BRANCH  21  22
ATOM     22  C   UNL     1      -2.993  12.734  23.150  0.00  0.00    +0.000 C 
ATOM     23  C   UNL     1      -2.372  13.902  23.863  0.00  0.00    +0.000 C 
ATOM     24  O   UNL     1      -4.034  12.197  23.503  0.00  0.00    +0.000 OA
ENDBRANCH  21  22
ENDBRANCH  18  21
ENDBRANCH  14  15
ENDBRANCH  13  14
ENDBRANCH   3  13
TORSDOF 8
ENDMDL
MODEL 5
REMARK VINA RESULT:      -6.6      1.878      9.325
REMARK  Name = 
REMARK  12 active torsions:
REMARK  status: ('A' for Active; 'I' for Inactive)
REMARK    1  A    between atoms: C_1  and  O_2
REMARK    2  A    between atoms: O_2  and  C_3
REMARK    3  A    between atoms: C_5  and  C_6
REMARK    4  A    between atoms: C_6  and  C_7
REMARK    5  A    between atoms: C_7  and  C_8
REMARK    6  A    between atoms: C_11  and  O_12
REMARK    7  A    between atoms: O_12  and  C_13
REMARK    8  A    between atoms: C_13  and  C_14
REMARK    9  A    between atoms: C_19  and  O_20
REMARK   10  A    between atoms: O_20  and  C_21
REMARK   11  A    between atoms: C_22  and  O_23
REMARK   12  A    between atoms: O_23  and  C_24
REMARK                            x       y       z     vdW  Elec       q    Type
REMARK                         _______ _______ _______ _____ _____    ______ ____
ROOT
ATOM      1  C   UNL     1       5.313   6.427  17.006  0.00  0.00    +0.000 A 
ATOM      2  C   UNL     1       4.142   7.058  17.458  0.00  0.00    +0.000 A 
ATOM      3  C   UNL     1       3.077   6.323  17.977  0.00  0.00    +0.000 A 
ATOM      4  C   UNL     1       3.145   4.932  17.919  0.00  0.00    +0.000 A 
ATOM      5  C   UNL     1       4.270   4.272  17.391  0.00  0.00    +0.000 A 
ATOM      6  C   UNL     1       5.384   5.018  16.939  0.00  0.00    +0.000 A 
ENDROOT
BRANCH   1   8
ATOM      7  C   UNL     1       7.437   7.335  17.556  0.00  0.00    +0.000 C 
ATOM      8  O   UNL     1       6.380   7.186  16.599  0.00  0.00    +0.000 OA
ENDBRANCH   1   8
BRANCH   5   9
ATOM      9  O   UNL     1       4.106   2.908  17.440  0.00  0.00    +0.000 OA
ATOM     10  C   UNL     1       2.809   2.359  17.603  0.00  0.00    +0.000 C 
ENDBRANCH   5   9
BRANCH   6  11
ATOM     11  O   UNL     1       6.444   4.295  16.462  0.00  0.00    +0.000 OA
ATOM     12  C   UNL     1       6.630   4.128  15.065  0.00  0.00    +0.000 C 
ENDBRANCH   6  11
BRANCH   3  13
ATOM     13  C   UNL     1       1.973   7.028  18.723  0.00  0.00    +0.000 C 
BRANCH  13  14
ATOM     14  C   UNL     1       2.072   8.552  18.789  0.00  0.00    +0.000 C 
BRANCH  14  15
ATOM     15  C   UNL     1       1.169   9.068  19.890  0.00  0.00    +0.000 A 
ATOM     16  C   UNL     1       0.203  10.047  19.622  0.00  0.00    +0.000 A 
ATOM     17  C   UNL     1      -0.575  10.570  20.658  0.00  0.00    +0.000 A 
ATOM     18  C   UNL     1      -0.392  10.116  21.964  0.00  0.00    +0.000 A 
ATOM     19  C   UNL     1       0.583   9.165  22.252  0.00  0.00    +0.000 A 
ATOM     20  C   UNL     1       1.354   8.636  21.213  0.00  0.00    +0.000 A 
BRANCH  18  21
ATOM     21  O   UNL     1      -1.203  10.731  22.941  0.00  0.00    +0.000 OA
BRANCH  21  22
ATOM     22  C   UNL     1      -1.318  12.115  23.058  0.00  0.00    +0.000 C 
ATOM     23  C   UNL     1      -2.774  12.480  23.131  0.00  0.00    +0.000 C 
ATOM     24  O   UNL     1      -0.407  12.927  23.156  0.00  0.00    +0.000 OA
ENDBRANCH  21  22
ENDBRANCH  18  21
ENDBRANCH  14  15
ENDBRANCH  13  14
ENDBRANCH   3  13
TORSDOF 8
ENDMDL
MODEL 6
REMARK VINA RESULT:      -6.6      2.337      7.901
REMARK  Name = 
REMARK  12 active torsions:
REMARK  status: ('A' for Active; 'I' for Inactive)
REMARK    1  A    between atoms: C_1  and  O_2
REMARK    2  A    between atoms: O_2  and  C_3
REMARK    3  A    between atoms: C_5  and  C_6
REMARK    4  A    between atoms: C_6  and  C_7
REMARK    5  A    between atoms: C_7  and  C_8
REMARK    6  A    between atoms: C_11  and  O_12
REMARK    7  A    between atoms: O_12  and  C_13
REMARK    8  A    between atoms: C_13  and  C_14
REMARK    9  A    between atoms: C_19  and  O_20
REMARK   10  A    between atoms: O_20  and  C_21
REMARK   11  A    between atoms: C_22  and  O_23
REMARK   12  A    between atoms: O_23  and  C_24
REMARK                            x       y       z     vdW  Elec       q    Type
REMARK                         _______ _______ _______ _____ _____    ______ ____
ROOT
ATOM      1  C   UNL     1       6.417   5.281  18.742  0.00  0.00    +0.000 A 
ATOM      2  C   UNL     1       5.281   4.457  18.817  0.00  0.00    +0.000 A 
ATOM      3  C   UNL     1       4.638   4.004  17.667  0.00  0.00    +0.000 A 
ATOM      4  C   UNL     1       5.068   4.494  16.433  0.00  0.00    +0.000 A 
ATOM      5  C   UNL     1       6.147   5.390  16.334  0.00  0.00    +0.000 A 
ATOM      6  C   UNL     1       6.851   5.785  17.495  0.00  0.00    +0.000 A 
ENDROOT
BRANCH   1   8
ATOM      7  C   UNL     1       8.456   5.206  19.955  0.00  0.00    +0.000 C 
ATOM      8  O   UNL     1       7.086   5.623  19.889  0.00  0.00    +0.000 OA
ENDBRANCH   1   8
BRANCH   5   9
ATOM      9  O   UNL     1       6.384   5.728  15.023  0.00  0.00    +0.000 OA
ATOM     10  C   UNL     1       7.077   4.826  14.176  0.00  0.00    +0.000 C 
ENDBRANCH   5   9
BRANCH   6  11
ATOM     11  O   UNL     1       7.903   6.641  17.305  0.00  0.00    +0.000 OA
ATOM     12  C   UNL     1       7.746   8.033  17.530  0.00  0.00    +0.000 C 
ENDBRANCH   6  11
BRANCH   3  13
ATOM     13  C   UNL     1       3.623   2.894  17.764  0.00  0.00    +0.000 C 
BRANCH  13  14
ATOM     14  C   UNL     1       2.155   3.319  17.717  0.00  0.00    +0.000 C 
BRANCH  14  15
ATOM     15  C   UNL     1       1.970   4.578  18.538  0.00  0.00    +0.000 A 
ATOM     16  C   UNL     1       2.171   5.841  17.964  0.00  0.00    +0.000 A 
ATOM     17  C   UNL     1       2.071   6.993  18.746  0.00  0.00    +0.000 A 
ATOM     18  C   UNL     1       1.767   6.890  20.104  0.00  0.00    +0.000 A 
ATOM     19  C   UNL     1       1.593   5.642  20.696  0.00  0.00    +0.000 A 
ATOM     20  C   UNL     1       1.685   4.491  19.909  0.00  0.00    +0.000 A 
BRANCH  18  21
ATOM     21  O   UNL     1       1.722   8.110  20.812  0.00  0.00    +0.000 OA
BRANCH  21  22
ATOM     22  C   UNL     1       0.532   8.793  21.055  0.00  0.00    +0.000 C 
ATOM     23  C   UNL     1       0.429   9.950  20.101  0.00  0.00    +0.000 C 
ATOM     24  O   UNL     1      -0.343   8.492  21.856  0.00  0.00    +0.000 OA
ENDBRANCH  21  22
ENDBRANCH  18  21
ENDBRANCH  14  15
ENDBRANCH  13  14
ENDBRANCH   3  13
TORSDOF 8
ENDMDL
MODEL 7
REMARK VINA RESULT:      -6.6      6.188      7.495
REMARK  Name = 
REMARK  12 active torsions:
REMARK  status: ('A' for Active; 'I' for Inactive)
REMARK    1  A    between atoms: C_1  and  O_2
REMARK    2  A    between atoms: O_2  and  C_3
REMARK    3  A    between atoms: C_5  and  C_6
REMARK    4  A    between atoms: C_6  and  C_7
REMARK    5  A    between atoms: C_7  and  C_8
REMARK    6  A    between atoms: C_11  and  O_12
REMARK    7  A    between atoms: O_12  and  C_13
REMARK    8  A    between atoms: C_13  and  C_14
REMARK    9  A    between atoms: C_19  and  O_20
REMARK   10  A    between atoms: O_20  and  C_21
REMARK   11  A    between atoms: C_22  and  O_23
REMARK   12  A    between atoms: O_23  and  C_24
REMARK                            x       y       z     vdW  Elec       q    Type
REMARK                         _______ _______ _______ _____ _____    ______ ____
ROOT
ATOM      1  C   UNL     1       9.953  12.060  20.793  0.00  0.00    +0.000 A 
ATOM      2  C   UNL     1       9.202  10.927  20.438  0.00  0.00    +0.000 A 
ATOM      3  C   UNL     1       9.375  10.301  19.205  0.00  0.00    +0.000 A 
ATOM      4  C   UNL     1      10.220  10.901  18.272  0.00  0.00    +0.000 A 
ATOM      5  C   UNL     1      10.918  12.086  18.568  0.00  0.00    +0.000 A 
ATOM      6  C   UNL     1      10.805  12.676  19.849  0.00  0.00    +0.000 A 
ENDROOT
BRANCH   1   8
ATOM      7  C   UNL     1       8.575  12.361  22.704  0.00  0.00    +0.000 C 
ATOM      8  O   UNL     1       9.832  12.588  22.053  0.00  0.00    +0.000 OA
ENDBRANCH   1   8
BRANCH   5   9
ATOM      9  O   UNL     1      11.685  12.484  17.499  0.00  0.00    +0.000 OA
ATOM     10  C   UNL     1      11.203  13.489  16.621  0.00  0.00    +0.000 C 
ENDBRANCH   5   9
BRANCH   6  11
ATOM     11  O   UNL     1      11.536  13.814  20.060  0.00  0.00    +0.000 OA
ATOM     12  C   UNL     1      10.921  15.090  19.976  0.00  0.00    +0.000 C 
ENDBRANCH   6  11
BRANCH   3  13
ATOM     13  C   UNL     1       8.788   8.932  18.971  0.00  0.00    +0.000 C 
BRANCH  13  14
ATOM     14  C   UNL     1       8.071   8.728  17.636  0.00  0.00    +0.000 C 
BRANCH  14  15
ATOM     15  C   UNL     1       7.261   7.449  17.692  0.00  0.00    +0.000 A 
ATOM     16  C   UNL     1       7.748   6.325  18.374  0.00  0.00    +0.000 A 
ATOM     17  C   UNL     1       7.029   5.127  18.357  0.00  0.00    +0.000 A 
ATOM     18  C   UNL     1       5.821   5.048  17.662  0.00  0.00    +0.000 A 
ATOM     19  C   UNL     1       5.339   6.146  16.956  0.00  0.00    +0.000 A 
ATOM     20  C   UNL     1       6.055   7.346  16.982  0.00  0.00    +0.000 A 
BRANCH  18  21
ATOM     21  O   UNL     1       5.191   3.785  17.680  0.00  0.00    +0.000 OA
BRANCH  21  22
ATOM     22  C   UNL     1       4.005   3.549  18.374  0.00  0.00    +0.000 C 
ATOM     23  C   UNL     1       2.916   3.235  17.387  0.00  0.00    +0.000 C 
ATOM     24  O   UNL     1       3.852   3.524  19.588  0.00  0.00    +0.000 OA
ENDBRANCH  21  22
ENDBRANCH  18  21
ENDBRANCH  14  15
ENDBRANCH  13  14
ENDBRANCH   3  13
TORSDOF 8
ENDMDL
MODEL 8
REMARK VINA RESULT:      -6.6      2.621      8.637
REMARK  Name = 
REMARK  12 active torsions:
REMARK  status: ('A' for Active; 'I' for Inactive)
REMARK    1  A    between atoms: C_1  and  O_2
REMARK    2  A    between atoms: O_2  and  C_3
REMARK    3  A    between atoms: C_5  and  C_6
REMARK    4  A    between atoms: C_6  and  C_7
REMARK    5  A    between atoms: C_7  and  C_8
REMARK    6  A    between atoms: C_11  and  O_12
REMARK    7  A    between atoms: O_12  and  C_13
REMARK    8  A    between atoms: C_13  and  C_14
REMARK    9  A    between atoms: C_19  and  O_20
REMARK   10  A    between atoms: O_20  and  C_21
REMARK   11  A    between atoms: C_22  and  O_23
REMARK   12  A    between atoms: O_23  and  C_24
REMARK                            x       y       z     vdW  Elec       q    Type
REMARK                         _______ _______ _______ _____ _____    ______ ____
ROOT
ATOM      1  C   UNL     1       3.116   4.065  18.338  0.00  0.00    +0.000 A 
ATOM      2  C   UNL     1       2.710   5.384  18.074  0.00  0.00    +0.000 A 
ATOM      3  C   UNL     1       3.581   6.458  18.246  0.00  0.00    +0.000 A 
ATOM      4  C   UNL     1       4.831   6.210  18.812  0.00  0.00    +0.000 A 
ATOM      5  C   UNL     1       5.233   4.910  19.167  0.00  0.00    +0.000 A 
ATOM      6  C   UNL     1       4.379   3.810  18.917  0.00  0.00    +0.000 A 
ENDROOT
BRANCH   1   8
ATOM      7  C   UNL     1       1.079   2.961  18.859  0.00  0.00    +0.000 C 
ATOM      8  O   UNL     1       2.268   3.024  18.060  0.00  0.00    +0.000 OA
ENDBRANCH   1   8
BRANCH   5   9
ATOM      9  O   UNL     1       6.499   4.917  19.702  0.00  0.00    +0.000 OA
ATOM     10  C   UNL     1       7.501   5.743  19.131  0.00  0.00    +0.000 C 
ENDBRANCH   5   9
BRANCH   6  11
ATOM     11  O   UNL     1       4.858   2.578  19.273  0.00  0.00    +0.000 OA
ATOM     12  C   UNL     1       4.487   1.992  20.511  0.00  0.00    +0.000 C 
ENDBRANCH   6  11
BRANCH   3  13
ATOM     13  C   UNL     1       3.226   7.809  17.678  0.00  0.00    +0.000 C 
BRANCH  13  14
ATOM     14  C   UNL     1       1.739   8.164  17.666  0.00  0.00    +0.000 C 
BRANCH  14  15
ATOM     15  C   UNL     1       1.430   9.072  18.837  0.00  0.00    +0.000 A 
ATOM     16  C   UNL     1       1.372   8.562  20.141  0.00  0.00    +0.000 A 
ATOM     17  C   UNL     1       1.014   9.391  21.206  0.00  0.00    +0.000 A 
ATOM     18  C   UNL     1       0.714  10.735  20.973  0.00  0.00    +0.000 A 
ATOM     19  C   UNL     1       0.739  11.250  19.681  0.00  0.00    +0.000 A 
ATOM     20  C   UNL     1       1.107  10.421  18.618  0.00  0.00    +0.000 A 
BRANCH  18  21
ATOM     21  O   UNL     1       0.331  11.478  22.110  0.00  0.00    +0.000 OA
BRANCH  21  22
ATOM     22  C   UNL     1      -0.903  11.311  22.735  0.00  0.00    +0.000 C 
ATOM     23  C   UNL     1      -1.783  12.484  22.401  0.00  0.00    +0.000 C 
ATOM     24  O   UNL     1      -1.273  10.351  23.398  0.00  0.00    +0.000 OA
ENDBRANCH  21  22
ENDBRANCH  18  21
ENDBRANCH  14  15
ENDBRANCH  13  14
ENDBRANCH   3  13
TORSDOF 8
ENDMDL
MODEL 9
REMARK VINA RESULT:      -6.6      2.412      8.854
REMARK  Name = 
REMARK  12 active torsions:
REMARK  status: ('A' for Active; 'I' for Inactive)
REMARK    1  A    between atoms: C_1  and  O_2
REMARK    2  A    between atoms: O_2  and  C_3
REMARK    3  A    between atoms: C_5  and  C_6
REMARK    4  A    between atoms: C_6  and  C_7
REMARK    5  A    between atoms: C_7  and  C_8
REMARK    6  A    between atoms: C_11  and  O_12
REMARK    7  A    between atoms: O_12  and  C_13
REMARK    8  A    between atoms: C_13  and  C_14
REMARK    9  A    between atoms: C_19  and  O_20
REMARK   10  A    between atoms: O_20  and  C_21
REMARK   11  A    between atoms: C_22  and  O_23
REMARK   12  A    between atoms: O_23  and  C_24
REMARK                            x       y       z     vdW  Elec       q    Type
REMARK                         _______ _______ _______ _____ _____    ______ ____
ROOT
ATOM      1  C   UNL     1       5.050   4.849  18.816  0.00  0.00    +0.000 A 
ATOM      2  C   UNL     1       4.792   6.120  18.275  0.00  0.00    +0.000 A 
ATOM      3  C   UNL     1       3.489   6.588  18.115  0.00  0.00    +0.000 A 
ATOM      4  C   UNL     1       2.436   5.713  18.384  0.00  0.00    +0.000 A 
ATOM      5  C   UNL     1       2.666   4.404  18.844  0.00  0.00    +0.000 A 
ATOM      6  C   UNL     1       3.987   3.958  19.083  0.00  0.00    +0.000 A 
ENDROOT
BRANCH   1   8
ATOM      7  C   UNL     1       7.358   5.338  18.546  0.00  0.00    +0.000 C 
ATOM      8  O   UNL     1       6.344   4.462  19.055  0.00  0.00    +0.000 OA
ENDBRANCH   1   8
BRANCH   5   9
ATOM      9  O   UNL     1       1.480   3.737  19.038  0.00  0.00    +0.000 OA
ATOM     10  C   UNL     1       0.779   3.887  20.262  0.00  0.00    +0.000 C 
ENDBRANCH   5   9
BRANCH   6  11
ATOM     11  O   UNL     1       4.119   2.678  19.552  0.00  0.00    +0.000 OA
ATOM     12  C   UNL     1       3.895   1.571  18.693  0.00  0.00    +0.000 C 
ENDBRANCH   6  11
BRANCH   3  13
ATOM     13  C   UNL     1       3.247   8.046  17.820  0.00  0.00    +0.000 C 
BRANCH  13  14
ATOM     14  C   UNL     1       1.789   8.459  17.620  0.00  0.00    +0.000 C 
BRANCH  14  15
ATOM     15  C   UNL     1       1.341   9.306  18.793  0.00  0.00    +0.000 A 
ATOM     16  C   UNL     1       1.174  10.690  18.652  0.00  0.00    +0.000 A 
ATOM     17  C   UNL     1       0.833  11.474  19.757  0.00  0.00    +0.000 A 
ATOM     18  C   UNL     1       0.655  10.877  21.006  0.00  0.00    +0.000 A 
ATOM     19  C   UNL     1       0.845   9.508  21.169  0.00  0.00    +0.000 A 
ATOM     20  C   UNL     1       1.177   8.725  20.060  0.00  0.00    +0.000 A 
BRANCH  18  21
ATOM     21  O   UNL     1       0.344  11.760  22.063  0.00  0.00    +0.000 OA
BRANCH  21  22
ATOM     22  C   UNL     1      -0.937  11.863  22.602  0.00  0.00    +0.000 C 
ATOM     23  C   UNL     1      -1.504  13.212  22.259  0.00  0.00    +0.000 C 
ATOM     24  O   UNL     1      -1.559  10.997  23.203  0.00  0.00    +0.000 OA
ENDBRANCH  21  22
ENDBRANCH  18  21
ENDBRANCH  14  15
ENDBRANCH  13  14
ENDBRANCH   3  13
TORSDOF 8
ENDMDL
