MODEL 1
REMARK VINA RESULT:      -6.9      0.000      0.000
REMARK  Name = 
REMARK  6 active torsions:
REMARK  status: ('A' for Active; 'I' for Inactive)
REMARK    1  A    between atoms: C_1  and  C_2
REMARK    2  A    between atoms: C_2  and  C_3
REMARK    3  A    between atoms: N_5  and  C_6
REMARK    4  A    between atoms: C_9  and  C_10
REMARK    5  A    between atoms: C_10  and  N_11
REMARK    6  A    between atoms: C_15  and  C_16
REMARK                            x       y       z     vdW  Elec       q    Type
REMARK                         _______ _______ _______ _____ _____    ______ ____
ROOT
ATOM      1  C   UNL     1       2.610   4.506  17.649  0.00  0.00    +0.000 C 
ENDROOT
BRANCH   1   8
ATOM      2  C   UNL     1       1.698   5.018  20.132  0.00  0.00    +0.000 A 
ATOM      3  N   UNL     1       1.513   6.118  20.876  0.00  0.00    +0.000 NA
ATOM      4  N   UNL     1       1.915   7.134  20.097  0.00  0.00    +0.000 N 
ATOM      5  C   UNL     1       1.743   8.492  20.546  0.00  0.00    +0.000 C 
ATOM      6  C   UNL     1       2.416   6.695  18.911  0.00  0.00    +0.000 A 
ATOM      7 CL   UNL     1       3.013   7.805  17.760  0.00  0.00    +0.000 Cl
ATOM      8  C   UNL     1       2.283   5.328  18.861  0.00  0.00    +0.000 A 
BRANCH   2  10
ATOM      9  C   UNL     1       0.497   2.851  19.711  0.00  0.00    +0.000 C 
ATOM     10  C   UNL     1       1.276   3.704  20.704  0.00  0.00    +0.000 C 
ENDBRANCH   2  10
ENDBRANCH   1   8
BRANCH   1  11
ATOM     11  N   UNL     1       3.852   3.725  17.698  0.00  0.00    +0.000 NA
ATOM     12  C   UNL     1       3.649   2.272  17.749  0.00  0.00    +0.000 C 
ATOM     13  C   UNL     1       3.762   1.866  19.201  0.00  0.00    +0.000 C 
ATOM     14  C   UNL     1       4.844   2.792  19.718  0.00  0.00    +0.000 C 
ATOM     15  C   UNL     1       4.583   4.090  18.956  0.00  0.00    +0.000 C 
BRANCH  15  16
ATOM     16  C   UNL     1       5.837   4.912  18.745  0.00  0.00    +0.000 A 
ATOM     17  N   UNL     1       6.759   5.075  19.676  0.00  0.00    +0.000 NA
ATOM     18  C   UNL     1       7.717   5.967  19.238  0.00  0.00    +0.000 A 
ATOM     19  C   UNL     1       7.531   6.464  17.969  0.00  0.00    +0.000 A 
ATOM     20  S   UNL     1       6.143   5.748  17.268  0.00  0.00    +0.000 S 
ENDBRANCH  15  16
ENDBRANCH   1  11
TORSDOF 4
ENDMDL
MODEL 2
REMARK VINA RESULT:      -6.9      2.763      3.865
REMARK  Name = 
REMARK  6 active torsions:
REMARK  status: ('A' for Active; 'I' for Inactive)
REMARK    1  A    between atoms: C_1  and  C_2
REMARK    2  A    between atoms: C_2  and  C_3
REMARK    3  A    between atoms: N_5  and  C_6
REMARK    4  A    between atoms: C_9  and  C_10
REMARK    5  A    between atoms: C_10  and  N_11
REMARK    6  A    between atoms: C_15  and  C_16
REMARK                            x       y       z     vdW  Elec       q    Type
REMARK                         _______ _______ _______ _____ _____    ______ ____
ROOT
ATOM      1  C   UNL     1       4.479   3.701  16.746  0.00  0.00    +0.000 C 
ENDROOT
BRANCH   1   8
ATOM      2  C   UNL     1       3.437   5.373  18.584  0.00  0.00    +0.000 A 
ATOM      3  N   UNL     1       2.830   5.233  19.772  0.00  0.00    +0.000 NA
ATOM      4  N   UNL     1       2.787   3.909  19.983  0.00  0.00    +0.000 N 
ATOM      5  C   UNL     1       2.296   3.400  21.238  0.00  0.00    +0.000 C 
ATOM      6  C   UNL     1       3.284   3.211  18.927  0.00  0.00    +0.000 A 
ATOM      7 CL   UNL     1       3.313   1.505  18.953  0.00  0.00    +0.000 Cl
ATOM      8  C   UNL     1       3.745   4.106  17.991  0.00  0.00    +0.000 A 
BRANCH   2  10
ATOM      9  C   UNL     1       2.438   7.610  18.025  0.00  0.00    +0.000 C 
ATOM     10  C   UNL     1       3.699   6.758  18.089  0.00  0.00    +0.000 C 
ENDBRANCH   2  10
ENDBRANCH   1   8
BRANCH   1  11
ATOM     11  N   UNL     1       5.115   4.777  15.977  0.00  0.00    +0.000 NA
ATOM     12  C   UNL     1       4.965   4.649  14.523  0.00  0.00    +0.000 C 
ATOM     13  C   UNL     1       6.240   4.020  14.006  0.00  0.00    +0.000 C 
ATOM     14  C   UNL     1       7.296   4.634  14.902  0.00  0.00    +0.000 C 
ATOM     15  C   UNL     1       6.590   4.738  16.252  0.00  0.00    +0.000 C 
BRANCH  15  16
ATOM     16  C   UNL     1       7.106   5.880  17.102  0.00  0.00    +0.000 A 
ATOM     17  N   UNL     1       7.180   7.126  16.669  0.00  0.00    +0.000 NA
ATOM     18  C   UNL     1       7.799   7.916  17.617  0.00  0.00    +0.000 A 
ATOM     19  C   UNL     1       8.179   7.273  18.772  0.00  0.00    +0.000 A 
ATOM     20  S   UNL     1       7.689   5.634  18.706  0.00  0.00    +0.000 S 
ENDBRANCH  15  16
ENDBRANCH   1  11
TORSDOF 4
ENDMDL
MODEL 3
REMARK VINA RESULT:      -6.9      2.617      6.010
REMARK  Name = 
REMARK  6 active torsions:
REMARK  status: ('A' for Active; 'I' for Inactive)
REMARK    1  A    between atoms: C_1  and  C_2
REMARK    2  A    between atoms: C_2  and  C_3
REMARK    3  A    between atoms: N_5  and  C_6
REMARK    4  A    between atoms: C_9  and  C_10
REMARK    5  A    between atoms: C_10  and  N_11
REMARK    6  A    between atoms: C_15  and  C_16
REMARK                            x       y       z     vdW  Elec       q    Type
REMARK                         _______ _______ _______ _____ _____    ______ ____
ROOT
ATOM      1  C   UNL     1       4.877   5.940  18.771  0.00  0.00    +0.000 C 
ENDROOT
BRANCH   1   8
ATOM      2  C   UNL     1       6.796   6.364  16.927  0.00  0.00    +0.000 A 
ATOM      3  N   UNL     1       7.167   5.779  15.779  0.00  0.00    +0.000 NA
ATOM      4  N   UNL     1       6.311   4.758  15.620  0.00  0.00    +0.000 N 
ATOM      5  C   UNL     1       6.349   3.973  14.412  0.00  0.00    +0.000 C 
ATOM      6  C   UNL     1       5.460   4.641  16.674  0.00  0.00    +0.000 A 
ATOM      7 CL   UNL     1       4.293   3.397  16.711  0.00  0.00    +0.000 Cl
ATOM      8  C   UNL     1       5.709   5.670  17.551  0.00  0.00    +0.000 A 
BRANCH   2  10
ATOM      9  C   UNL     1       8.298   7.401  18.655  0.00  0.00    +0.000 C 
ATOM     10  C   UNL     1       7.527   7.595  17.356  0.00  0.00    +0.000 C 
ENDBRANCH   2  10
ENDBRANCH   1   8
BRANCH   1  11
ATOM     11  N   UNL     1       3.421   5.896  18.597  0.00  0.00    +0.000 NA
ATOM     12  C   UNL     1       2.856   7.076  17.931  0.00  0.00    +0.000 C 
ATOM     13  C   UNL     1       2.334   7.985  19.022  0.00  0.00    +0.000 C 
ATOM     14  C   UNL     1       1.801   7.000  20.042  0.00  0.00    +0.000 C 
ATOM     15  C   UNL     1       2.790   5.840  19.957  0.00  0.00    +0.000 C 
BRANCH  15  16
ATOM     16  C   UNL     1       2.168   4.507  20.313  0.00  0.00    +0.000 A 
ATOM     17  N   UNL     1       2.192   4.002  21.533  0.00  0.00    +0.000 NA
ATOM     18  C   UNL     1       1.657   2.729  21.526  0.00  0.00    +0.000 A 
ATOM     19  C   UNL     1       1.212   2.278  20.304  0.00  0.00    +0.000 A 
ATOM     20  S   UNL     1       1.408   3.508  19.130  0.00  0.00    +0.000 S 
ENDBRANCH  15  16
ENDBRANCH   1  11
TORSDOF 4
ENDMDL
MODEL 4
REMARK VINA RESULT:      -6.8      2.619      5.228
REMARK  Name = 
REMARK  6 active torsions:
REMARK  status: ('A' for Active; 'I' for Inactive)
REMARK    1  A    between atoms: C_1  and  C_2
REMARK    2  A    between atoms: C_2  and  C_3
REMARK    3  A    between atoms: N_5  and  C_6
REMARK    4  A    between atoms: C_9  and  C_10
REMARK    5  A    between atoms: C_10  and  N_11
REMARK    6  A    between atoms: C_15  and  C_16
REMARK                            x       y       z     vdW  Elec       q    Type
REMARK                         _______ _______ _______ _____ _____    ______ ____
ROOT
ATOM      1  C   UNL     1       4.531   3.440  16.976  0.00  0.00    +0.000 C 
ENDROOT
BRANCH   1   8
ATOM      2  C   UNL     1       6.369   4.911  15.666  0.00  0.00    +0.000 A 
ATOM      3  N   UNL     1       7.229   5.886  15.997  0.00  0.00    +0.000 NA
ATOM      4  N   UNL     1       7.031   6.090  17.308  0.00  0.00    +0.000 N 
ATOM      5  C   UNL     1       7.882   7.004  18.026  0.00  0.00    +0.000 C 
ATOM      6  C   UNL     1       6.019   5.322  17.793  0.00  0.00    +0.000 A 
ATOM      7 CL   UNL     1       5.566   5.425  19.435  0.00  0.00    +0.000 Cl
ATOM      8  C   UNL     1       5.560   4.515  16.780  0.00  0.00    +0.000 A 
BRANCH   2  10
ATOM      9  C   UNL     1       7.490   5.040  13.420  0.00  0.00    +0.000 C 
ATOM     10  C   UNL     1       6.392   4.402  14.261  0.00  0.00    +0.000 C 
ENDBRANCH   2  10
ENDBRANCH   1   8
BRANCH   1  11
ATOM     11  N   UNL     1       3.801   3.452  18.249  0.00  0.00    +0.000 NA
ATOM     12  C   UNL     1       3.533   2.119  18.803  0.00  0.00    +0.000 C 
ATOM     13  C   UNL     1       2.117   1.761  18.412  0.00  0.00    +0.000 C 
ATOM     14  C   UNL     1       1.405   3.095  18.497  0.00  0.00    +0.000 C 
ATOM     15  C   UNL     1       2.462   4.085  18.014  0.00  0.00    +0.000 C 
BRANCH  15  16
ATOM     16  C   UNL     1       2.298   5.464  18.617  0.00  0.00    +0.000 A 
ATOM     17  N   UNL     1       2.503   6.578  17.938  0.00  0.00    +0.000 NA
ATOM     18  C   UNL     1       2.396   7.668  18.779  0.00  0.00    +0.000 A 
ATOM     19  C   UNL     1       2.093   7.380  20.089  0.00  0.00    +0.000 A 
ATOM     20  S   UNL     1       1.869   5.693  20.272  0.00  0.00    +0.000 S 
ENDBRANCH  15  16
ENDBRANCH   1  11
TORSDOF 4
ENDMDL
MODEL 5
REMARK VINA RESULT:      -6.8      1.983      3.330
REMARK  Name = 
REMARK  6 active torsions:
REMARK  status: ('A' for Active; 'I' for Inactive)
REMARK    1  A    between atoms: C_1  and  C_2
REMARK    2  A    between atoms: C_2  and  C_3
REMARK    3  A    between atoms: N_5  and  C_6
REMARK    4  A    between atoms: C_9  and  C_10
REMARK    5  A    between atoms: C_10  and  N_11
REMARK    6  A    between atoms: C_15  and  C_16
REMARK                            x       y       z     vdW  Elec       q    Type
REMARK                         _______ _______ _______ _____ _____    ______ ____
ROOT
ATOM      1  C   UNL     1       3.114   6.806  17.658  0.00  0.00    +0.000 C 
ENDROOT
BRANCH   1   8
ATOM      2  C   UNL     1       2.057   6.723  20.135  0.00  0.00    +0.000 A 
ATOM      3  N   UNL     1       1.374   7.575  20.914  0.00  0.00    +0.000 NA
ATOM      4  N   UNL     1       1.257   8.693  20.182  0.00  0.00    +0.000 N 
ATOM      5  C   UNL     1       0.466   9.792  20.676  0.00  0.00    +0.000 C 
ATOM      6  C   UNL     1       1.910   8.592  18.993  0.00  0.00    +0.000 A 
ATOM      7 CL   UNL     1       1.922   9.901  17.898  0.00  0.00    +0.000 Cl
ATOM      8  C   UNL     1       2.435   7.326  18.891  0.00  0.00    +0.000 A 
BRANCH   2  10
ATOM      9  C   UNL     1       1.094   4.426  20.468  0.00  0.00    +0.000 C 
ATOM     10  C   UNL     1       2.298   5.341  20.649  0.00  0.00    +0.000 C 
ENDBRANCH   2  10
ENDBRANCH   1   8
BRANCH   1  11
ATOM     11  N   UNL     1       4.346   6.034  17.861  0.00  0.00    +0.000 NA
ATOM     12  C   UNL     1       5.546   6.649  17.282  0.00  0.00    +0.000 C 
ATOM     13  C   UNL     1       5.777   5.981  15.945  0.00  0.00    +0.000 C 
ATOM     14  C   UNL     1       5.359   4.551  16.216  0.00  0.00    +0.000 C 
ATOM     15  C   UNL     1       4.183   4.709  17.177  0.00  0.00    +0.000 C 
BRANCH  15  16
ATOM     16  C   UNL     1       4.023   3.529  18.112  0.00  0.00    +0.000 A 
ATOM     17  N   UNL     1       4.783   3.343  19.176  0.00  0.00    +0.000 NA
ATOM     18  C   UNL     1       4.484   2.128  19.761  0.00  0.00    +0.000 A 
ATOM     19  C   UNL     1       3.487   1.404  19.150  0.00  0.00    +0.000 A 
ATOM     20  S   UNL     1       2.851   2.294  17.834  0.00  0.00    +0.000 S 
ENDBRANCH  15  16
ENDBRANCH   1  11
TORSDOF 4
ENDMDL
MODEL 6
REMARK VINA RESULT:      -6.7      1.019      1.232
REMARK  Name = 
REMARK  6 active torsions:
REMARK  status: ('A' for Active; 'I' for Inactive)
REMARK    1  A    between atoms: C_1  and  C_2
REMARK    2  A    between atoms: C_2  and  C_3
REMARK    3  A    between atoms: N_5  and  C_6
REMARK    4  A    between atoms: C_9  and  C_10
REMARK    5  A    between atoms: C_10  and  N_11
REMARK    6  A    between atoms: C_15  and  C_16
REMARK                            x       y       z     vdW  Elec       q    Type
REMARK                         _______ _______ _______ _____ _____    ______ ____
ROOT
ATOM      1  C   UNL     1       2.147   4.229  17.510  0.00  0.00    +0.000 C 
ENDROOT
BRANCH   1   8
ATOM      2  C   UNL     1       1.448   4.632  20.080  0.00  0.00    +0.000 A 
ATOM      3  N   UNL     1       1.416   5.685  20.911  0.00  0.00    +0.000 NA
ATOM      4  N   UNL     1       1.863   6.715  20.178  0.00  0.00    +0.000 N 
ATOM      5  C   UNL     1       1.851   8.046  20.731  0.00  0.00    +0.000 C 
ATOM      6  C   UNL     1       2.243   6.325  18.932  0.00  0.00    +0.000 A 
ATOM      7 CL   UNL     1       2.868   7.459  17.821  0.00  0.00    +0.000 Cl
ATOM      8  C   UNL     1       1.978   4.982  18.796  0.00  0.00    +0.000 A 
BRANCH   2  10
ATOM      9  C   UNL     1       1.720   2.815  21.795  0.00  0.00    +0.000 C 
ATOM     10  C   UNL     1       0.940   3.322  20.589  0.00  0.00    +0.000 C 
ENDBRANCH   2  10
ENDBRANCH   1   8
BRANCH   1  11
ATOM     11  N   UNL     1       3.334   3.374  17.399  0.00  0.00    +0.000 NA
ATOM     12  C   UNL     1       3.055   1.937  17.503  0.00  0.00    +0.000 C 
ATOM     13  C   UNL     1       3.348   1.538  18.932  0.00  0.00    +0.000 C 
ATOM     14  C   UNL     1       4.544   2.401  19.276  0.00  0.00    +0.000 C 
ATOM     15  C   UNL     1       4.255   3.705  18.536  0.00  0.00    +0.000 C 
BRANCH  15  16
ATOM     16  C   UNL     1       5.513   4.447  18.136  0.00  0.00    +0.000 A 
ATOM     17  N   UNL     1       6.065   4.341  16.941  0.00  0.00    +0.000 NA
ATOM     18  C   UNL     1       7.259   5.034  16.911  0.00  0.00    +0.000 A 
ATOM     19  C   UNL     1       7.602   5.678  18.077  0.00  0.00    +0.000 A 
ATOM     20  S   UNL     1       6.361   5.468  19.237  0.00  0.00    +0.000 S 
ENDBRANCH  15  16
ENDBRANCH   1  11
TORSDOF 4
ENDMDL
MODEL 7
REMARK VINA RESULT:      -6.7      2.639      5.980
REMARK  Name = 
REMARK  6 active torsions:
REMARK  status: ('A' for Active; 'I' for Inactive)
REMARK    1  A    between atoms: C_1  and  C_2
REMARK    2  A    between atoms: C_2  and  C_3
REMARK    3  A    between atoms: N_5  and  C_6
REMARK    4  A    between atoms: C_9  and  C_10
REMARK    5  A    between atoms: C_10  and  N_11
REMARK    6  A    between atoms: C_15  and  C_16
REMARK                            x       y       z     vdW  Elec       q    Type
REMARK                         _______ _______ _______ _____ _____    ______ ____
ROOT
ATOM      1  C   UNL     1       5.101   5.892  18.947  0.00  0.00    +0.000 C 
ENDROOT
BRANCH   1   8
ATOM      2  C   UNL     1       7.247   6.500  17.436  0.00  0.00    +0.000 A 
ATOM      3  N   UNL     1       7.684   6.166  16.213  0.00  0.00    +0.000 NA
ATOM      4  N   UNL     1       6.754   5.326  15.733  0.00  0.00    +0.000 N 
ATOM      5  C   UNL     1       6.848   4.855  14.375  0.00  0.00    +0.000 C 
ATOM      6  C   UNL     1       5.783   5.068  16.649  0.00  0.00    +0.000 A 
ATOM      7 CL   UNL     1       4.500   4.007  16.275  0.00  0.00    +0.000 Cl
ATOM      8  C   UNL     1       6.033   5.819  17.773  0.00  0.00    +0.000 A 
BRANCH   2  10
ATOM      9  C   UNL     1       7.924   8.909  17.673  0.00  0.00    +0.000 C 
ATOM     10  C   UNL     1       8.045   7.493  18.219  0.00  0.00    +0.000 C 
ENDBRANCH   2  10
ENDBRANCH   1   8
BRANCH   1  11
ATOM     11  N   UNL     1       3.667   5.792  18.656  0.00  0.00    +0.000 NA
ATOM     12  C   UNL     1       2.993   7.086  18.490  0.00  0.00    +0.000 C 
ATOM     13  C   UNL     1       2.333   7.407  19.812  0.00  0.00    +0.000 C 
ATOM     14  C   UNL     1       1.881   6.044  20.293  0.00  0.00    +0.000 C 
ATOM     15  C   UNL     1       3.000   5.119  19.820  0.00  0.00    +0.000 C 
BRANCH  15  16
ATOM     16  C   UNL     1       2.524   3.708  19.548  0.00  0.00    +0.000 A 
ATOM     17  N   UNL     1       3.316   2.753  19.095  0.00  0.00    +0.000 NA
ATOM     18  C   UNL     1       2.579   1.616  18.831  0.00  0.00    +0.000 A 
ATOM     19  C   UNL     1       1.232   1.705  19.100  0.00  0.00    +0.000 A 
ATOM     20  S   UNL     1       0.878   3.240  19.768  0.00  0.00    +0.000 S 
ENDBRANCH  15  16
ENDBRANCH   1  11
TORSDOF 4
ENDMDL
MODEL 8
REMARK VINA RESULT:      -6.7      2.812      3.904
REMARK  Name = 
REMARK  6 active torsions:
REMARK  status: ('A' for Active; 'I' for Inactive)
REMARK    1  A    between atoms: C_1  and  C_2
REMARK    2  A    between atoms: C_2  and  C_3
REMARK    3  A    between atoms: N_5  and  C_6
REMARK    4  A    between atoms: C_9  and  C_10
REMARK    5  A    between atoms: C_10  and  N_11
REMARK    6  A    between atoms: C_15  and  C_16
REMARK                            x       y       z     vdW  Elec       q    Type
REMARK                         _______ _______ _______ _____ _____    ______ ____
ROOT
ATOM      1  C   UNL     1       3.589   4.859  17.382  0.00  0.00    +0.000 C 
ENDROOT
BRANCH   1   8
ATOM      2  C   UNL     1       2.318   5.631  19.629  0.00  0.00    +0.000 A 
ATOM      3  N   UNL     1       1.739   5.006  20.664  0.00  0.00    +0.000 NA
ATOM      4  N   UNL     1       1.888   3.698  20.405  0.00  0.00    +0.000 N 
ATOM      5  C   UNL     1       1.477   2.723  21.383  0.00  0.00    +0.000 C 
ATOM      6  C   UNL     1       2.480   3.485  19.199  0.00  0.00    +0.000 A 
ATOM      7 CL   UNL     1       2.755   1.897  18.639  0.00  0.00    +0.000 Cl
ATOM      8  C   UNL     1       2.805   4.703  18.652  0.00  0.00    +0.000 A 
BRANCH   2  10
ATOM      9  C   UNL     1       1.541   7.728  20.774  0.00  0.00    +0.000 C 
ATOM     10  C   UNL     1       2.377   7.124  19.653  0.00  0.00    +0.000 C 
ENDBRANCH   2  10
ENDBRANCH   1   8
BRANCH   1  11
ATOM     11  N   UNL     1       4.992   4.429  17.417  0.00  0.00    +0.000 NA
ATOM     12  C   UNL     1       5.554   4.316  18.768  0.00  0.00    +0.000 C 
ATOM     13  C   UNL     1       6.318   5.595  19.032  0.00  0.00    +0.000 C 
ATOM     14  C   UNL     1       6.908   5.911  17.673  0.00  0.00    +0.000 C 
ATOM     15  C   UNL     1       5.814   5.463  16.706  0.00  0.00    +0.000 C 
BRANCH  15  16
ATOM     16  C   UNL     1       6.358   5.026  15.362  0.00  0.00    +0.000 A 
ATOM     17  N   UNL     1       7.476   5.504  14.846  0.00  0.00    +0.000 NA
ATOM     18  C   UNL     1       7.651   5.012  13.567  0.00  0.00    +0.000 A 
ATOM     19  C   UNL     1       6.676   4.149  13.123  0.00  0.00    +0.000 A 
ATOM     20  S   UNL     1       5.528   3.888  14.367  0.00  0.00    +0.000 S 
ENDBRANCH  15  16
ENDBRANCH   1  11
TORSDOF 4
ENDMDL
MODEL 9
REMARK VINA RESULT:      -6.6      2.513      3.554
REMARK  Name = 
REMARK  6 active torsions:
REMARK  status: ('A' for Active; 'I' for Inactive)
REMARK    1  A    between atoms: C_1  and  C_2
REMARK    2  A    between atoms: C_2  and  C_3
REMARK    3  A    between atoms: N_5  and  C_6
REMARK    4  A    between atoms: C_9  and  C_10
REMARK    5  A    between atoms: C_10  and  N_11
REMARK    6  A    between atoms: C_15  and  C_16
REMARK                            x       y       z     vdW  Elec       q    Type
REMARK                         _______ _______ _______ _____ _____    ______ ____
ROOT
ATOM      1  C   UNL     1       4.031   3.946  16.705  0.00  0.00    +0.000 C 
ENDROOT
BRANCH   1   8
ATOM      2  C   UNL     1       3.103   5.727  18.501  0.00  0.00    +0.000 A 
ATOM      3  N   UNL     1       2.520   5.657  19.707  0.00  0.00    +0.000 NA
ATOM      4  N   UNL     1       2.429   4.345  19.969  0.00  0.00    +0.000 N 
ATOM      5  C   UNL     1       1.949   3.904  21.254  0.00  0.00    +0.000 C 
ATOM      6  C   UNL     1       2.872   3.588  18.930  0.00  0.00    +0.000 A 
ATOM      7 CL   UNL     1       2.833   1.884  19.022  0.00  0.00    +0.000 Cl
ATOM      8  C   UNL     1       3.345   4.427  17.950  0.00  0.00    +0.000 A 
BRANCH   2  10
ATOM      9  C   UNL     1       2.213   8.024  18.002  0.00  0.00    +0.000 C 
ATOM     10  C   UNL     1       3.408   7.081  17.946  0.00  0.00    +0.000 C 
ENDBRANCH   2  10
ENDBRANCH   1   8
BRANCH   1  11
ATOM     11  N   UNL     1       5.013   4.855  16.102  0.00  0.00    +0.000 NA
ATOM     12  C   UNL     1       4.960   4.912  14.636  0.00  0.00    +0.000 C 
ATOM     13  C   UNL     1       6.042   3.987  14.124  0.00  0.00    +0.000 C 
ATOM     14  C   UNL     1       7.147   4.178  15.141  0.00  0.00    +0.000 C 
ATOM     15  C   UNL     1       6.385   4.359  16.452  0.00  0.00    +0.000 C 
BRANCH  15  16
ATOM     16  C   UNL     1       7.130   5.215  17.455  0.00  0.00    +0.000 A 
ATOM     17  N   UNL     1       7.638   4.736  18.576  0.00  0.00    +0.000 NA
ATOM     18  C   UNL     1       8.149   5.768  19.339  0.00  0.00    +0.000 A 
ATOM     19  C   UNL     1       8.044   7.024  18.787  0.00  0.00    +0.000 A 
ATOM     20  S   UNL     1       7.340   6.912  17.230  0.00  0.00    +0.000 S 
ENDBRANCH  15  16
ENDBRANCH   1  11
TORSDOF 4
ENDMDL
