MODEL 1
REMARK VINA RESULT:      -8.2      0.000      0.000
REMARK  Name = 
REMARK  11 active torsions:
REMARK  status: ('A' for Active; 'I' for Inactive)
REMARK    1  A    between atoms: C_1  and  C_2
REMARK    2  A    between atoms: C_2  and  C_3
REMARK    3  A    between atoms: C_2  and  O_4
REMARK    4  A    between atoms: C_2  and  C_5
REMARK    5  A    between atoms: C_5  and  C_7
REMARK    6  A    between atoms: C_7  and  N_8
REMARK    7  A    between atoms: C_9  and  C_11
REMARK    8  A    between atoms: C_14  and  N_15
REMARK    9  A    between atoms: C_20  and  C_21
REMARK   10  A    between atoms: C_27  and  N_28
REMARK   11  A    between atoms: N_28  and  C_29
REMARK                            x       y       z     vdW  Elec       q    Type
REMARK                         _______ _______ _______ _____ _____    ______ ____
ROOT
ATOM      1  C   UNL     1       3.150   6.757  18.529  0.00  0.00    +0.000 A 
ATOM      2  C   UNL     1       3.054   7.719  17.514  0.00  0.00    +0.000 A 
ATOM      3  N   UNL     1       2.305   8.867  17.576  0.00  0.00    +0.000 NA
ATOM      4  C   UNL     1       1.577   9.068  18.699  0.00  0.00    +0.000 A 
ATOM      5  C   UNL     1       1.560   8.121  19.729  0.00  0.00    +0.000 A 
ATOM      6  C   UNL     1       2.333   6.944  19.655  0.00  0.00    +0.000 A 
ENDROOT
BRANCH   4   7
ATOM      7  N   UNL     1       0.707  10.208  18.830  0.00  0.00    +0.000 N 
ATOM      8  N   UNL     1       1.072  11.257  19.646  0.00  0.00    +0.000 NA
ATOM      9  C   UNL     1      -0.095  11.813  19.981  0.00  0.00    +0.000 A 
ATOM     10  C   UNL     1      -1.182  11.266  19.276  0.00  0.00    +0.000 A 
ATOM     11  C   UNL     1      -2.581  11.430  19.244  0.00  0.00    +0.000 A 
ATOM     12  C   UNL     1      -3.249  10.937  18.126  0.00  0.00    +0.000 A 
ATOM     13  C   UNL     1      -2.507  10.316  17.132  0.00  0.00    +0.000 A 
ATOM     14  N   UNL     1      -1.188   9.952  17.222  0.00  0.00    +0.000 NA
ATOM     15  C   UNL     1      -0.587  10.418  18.344  0.00  0.00    +0.000 A 
BRANCH  12  16
ATOM     16  C   UNL     1      -4.682  11.078  18.001  0.00  0.00    +0.000 C 
ATOM     17  N   UNL     1      -5.826  11.204  17.916  0.00  0.00    +0.000 NA
ENDBRANCH  12  16
ENDBRANCH   4   7
BRANCH   1  19
ATOM     18  N   UNL     1       4.034   4.871  17.196  0.00  0.00    +0.000 N 
ATOM     19  C   UNL     1       4.133   5.632  18.349  0.00  0.00    +0.000 C 
ATOM     20  O   UNL     1       4.962   5.399  19.220  0.00  0.00    +0.000 OA
ATOM     21  H   UNL     1       3.381   5.216  16.486  0.00  0.00    +0.000 HD
BRANCH  18  22
ATOM     22  C   UNL     1       4.849   3.701  16.848  0.00  0.00    +0.000 C 
BRANCH  22  23
ATOM     23  C   UNL     1       5.621   3.887  15.527  0.00  0.00    +0.000 C 
ATOM     24  F   UNL     1       4.688   4.037  14.526  0.00  0.00    +0.000 F 
BRANCH  23  26
ATOM     25  C   UNL     1       7.453   5.089  14.195  0.00  0.00    +0.000 C 
ATOM     26  C   UNL     1       6.599   5.100  15.465  0.00  0.00    +0.000 C 
ATOM     27  C   UNL     1       7.487   5.205  16.710  0.00  0.00    +0.000 C 
BRANCH  26  28
ATOM     28  O   UNL     1       5.819   6.312  15.406  0.00  0.00    +0.000 OA
ATOM     29  H   UNL     1       6.088   6.883  16.151  0.00  0.00    +0.000 HD
ENDBRANCH  26  28
ENDBRANCH  23  26
ENDBRANCH  22  23
ENDBRANCH  18  22
ENDBRANCH   1  19
BRANCH   6  30
ATOM     30  N   UNL     1       2.403   6.054  20.757  0.00  0.00    +0.000 N 
ATOM     31  H   UNL     1       2.296   6.614  21.611  0.00  0.00    +0.000 HD
BRANCH  30  32
ATOM     32  C   UNL     1       1.475   4.913  20.788  0.00  0.00    +0.000 C 
ATOM     33  C   UNL     1       1.239   4.308  19.419  0.00  0.00    +0.000 C 
ATOM     34  C   UNL     1       0.834   2.893  19.762  0.00  0.00    +0.000 C 
ATOM     35  O   UNL     1       1.561   2.528  20.941  0.00  0.00    +0.000 OA
ATOM     36  C   UNL     1       2.075   3.726  21.542  0.00  0.00    +0.000 C 
ENDBRANCH  30  32
ENDBRANCH   6  30
TORSDOF 9
ENDMDL
MODEL 2
REMARK VINA RESULT:      -7.9      2.469      2.898
REMARK  Name = 
REMARK  11 active torsions:
REMARK  status: ('A' for Active; 'I' for Inactive)
REMARK    1  A    between atoms: C_1  and  C_2
REMARK    2  A    between atoms: C_2  and  C_3
REMARK    3  A    between atoms: C_2  and  O_4
REMARK    4  A    between atoms: C_2  and  C_5
REMARK    5  A    between atoms: C_5  and  C_7
REMARK    6  A    between atoms: C_7  and  N_8
REMARK    7  A    between atoms: C_9  and  C_11
REMARK    8  A    between atoms: C_14  and  N_15
REMARK    9  A    between atoms: C_20  and  C_21
REMARK   10  A    between atoms: C_27  and  N_28
REMARK   11  A    between atoms: N_28  and  C_29
REMARK                            x       y       z     vdW  Elec       q    Type
REMARK                         _______ _______ _______ _____ _____    ______ ____
ROOT
ATOM      1  C   UNL     1       2.373   7.416  18.863  0.00  0.00    +0.000 A 
ATOM      2  C   UNL     1       1.904   8.683  18.491  0.00  0.00    +0.000 A 
ATOM      3  N   UNL     1       1.293   9.581  19.329  0.00  0.00    +0.000 NA
ATOM      4  C   UNL     1       1.104   9.195  20.613  0.00  0.00    +0.000 A 
ATOM      5  C   UNL     1       1.478   7.919  21.047  0.00  0.00    +0.000 A 
ATOM      6  C   UNL     1       2.104   7.002  20.177  0.00  0.00    +0.000 A 
ENDROOT
BRANCH   4   7
ATOM      7  N   UNL     1       0.411  10.041  21.551  0.00  0.00    +0.000 N 
ATOM      8  N   UNL     1       0.122   9.568  22.813  0.00  0.00    +0.000 NA
ATOM      9  C   UNL     1      -0.936  10.293  23.183  0.00  0.00    +0.000 A 
ATOM     10  C   UNL     1      -1.232  11.328  22.278  0.00  0.00    +0.000 A 
ATOM     11  C   UNL     1      -2.207  12.335  22.142  0.00  0.00    +0.000 A 
ATOM     12  C   UNL     1      -1.913  13.387  21.277  0.00  0.00    +0.000 A 
ATOM     13  C   UNL     1      -0.699  13.371  20.605  0.00  0.00    +0.000 A 
ATOM     14  N   UNL     1       0.175  12.316  20.548  0.00  0.00    +0.000 NA
ATOM     15  C   UNL     1      -0.170  11.299  21.375  0.00  0.00    +0.000 A 
BRANCH  12  16
ATOM     16  C   UNL     1      -2.847  14.473  21.090  0.00  0.00    +0.000 C 
ATOM     17  N   UNL     1      -3.604  15.329  20.927  0.00  0.00    +0.000 NA
ENDBRANCH  12  16
ENDBRANCH   4   7
BRANCH   1  19
ATOM     18  N   UNL     1       4.179   7.262  17.180  0.00  0.00    +0.000 N 
ATOM     19  C   UNL     1       3.149   6.620  17.847  0.00  0.00    +0.000 C 
ATOM     20  O   UNL     1       2.840   5.459  17.615  0.00  0.00    +0.000 OA
ATOM     21  H   UNL     1       4.424   8.195  17.525  0.00  0.00    +0.000 HD
BRANCH  18  22
ATOM     22  C   UNL     1       5.021   6.696  16.119  0.00  0.00    +0.000 C 
BRANCH  22  23
ATOM     23  C   UNL     1       6.410   6.263  16.630  0.00  0.00    +0.000 C 
ATOM     24  F   UNL     1       6.595   6.853  17.859  0.00  0.00    +0.000 F 
BRANCH  23  26
ATOM     25  C   UNL     1       7.852   4.413  17.666  0.00  0.00    +0.000 C 
ATOM     26  C   UNL     1       6.638   4.729  16.789  0.00  0.00    +0.000 C 
ATOM     27  C   UNL     1       6.746   4.006  15.441  0.00  0.00    +0.000 C 
BRANCH  26  28
ATOM     28  O   UNL     1       5.500   4.166  17.473  0.00  0.00    +0.000 OA
ATOM     29  H   UNL     1       5.161   3.422  16.940  0.00  0.00    +0.000 HD
ENDBRANCH  26  28
ENDBRANCH  23  26
ENDBRANCH  22  23
ENDBRANCH  18  22
ENDBRANCH   1  19
BRANCH   6  30
ATOM     30  N   UNL     1       2.590   5.761  20.660  0.00  0.00    +0.000 N 
ATOM     31  H   UNL     1       3.111   5.951  21.525  0.00  0.00    +0.000 HD
BRANCH  30  32
ATOM     32  C   UNL     1       1.621   4.679  20.890  0.00  0.00    +0.000 C 
ATOM     33  C   UNL     1       1.243   3.947  19.617  0.00  0.00    +0.000 C 
ATOM     34  C   UNL     1       0.810   2.598  20.144  0.00  0.00    +0.000 C 
ATOM     35  O   UNL     1       1.619   2.321  21.292  0.00  0.00    +0.000 OA
ATOM     36  C   UNL     1       2.232   3.548  21.717  0.00  0.00    +0.000 C 
ENDBRANCH  30  32
ENDBRANCH   6  30
TORSDOF 9
ENDMDL
MODEL 3
REMARK VINA RESULT:      -7.8      0.755      1.095
REMARK  Name = 
REMARK  11 active torsions:
REMARK  status: ('A' for Active; 'I' for Inactive)
REMARK    1  A    between atoms: C_1  and  C_2
REMARK    2  A    between atoms: C_2  and  C_3
REMARK    3  A    between atoms: C_2  and  O_4
REMARK    4  A    between atoms: C_2  and  C_5
REMARK    5  A    between atoms: C_5  and  C_7
REMARK    6  A    between atoms: C_7  and  N_8
REMARK    7  A    between atoms: C_9  and  C_11
REMARK    8  A    between atoms: C_14  and  N_15
REMARK    9  A    between atoms: C_20  and  C_21
REMARK   10  A    between atoms: C_27  and  N_28
REMARK   11  A    between atoms: N_28  and  C_29
REMARK                            x       y       z     vdW  Elec       q    Type
REMARK                         _______ _______ _______ _____ _____    ______ ____
ROOT
ATOM      1  C   UNL     1       3.054   6.880  18.645  0.00  0.00    +0.000 A 
ATOM      2  C   UNL     1       3.010   7.843  17.627  0.00  0.00    +0.000 A 
ATOM      3  N   UNL     1       2.261   8.992  17.652  0.00  0.00    +0.000 NA
ATOM      4  C   UNL     1       1.479   9.194  18.739  0.00  0.00    +0.000 A 
ATOM      5  C   UNL     1       1.410   8.247  19.766  0.00  0.00    +0.000 A 
ATOM      6  C   UNL     1       2.183   7.068  19.730  0.00  0.00    +0.000 A 
ENDROOT
BRANCH   4   7
ATOM      7  N   UNL     1       0.606  10.337  18.827  0.00  0.00    +0.000 N 
ATOM      8  N   UNL     1       0.973  11.419  19.597  0.00  0.00    +0.000 NA
ATOM      9  C   UNL     1      -0.194  11.986  19.915  0.00  0.00    +0.000 A 
ATOM     10  C   UNL     1      -1.283  11.406  19.240  0.00  0.00    +0.000 A 
ATOM     11  C   UNL     1      -2.683  11.565  19.209  0.00  0.00    +0.000 A 
ATOM     12  C   UNL     1      -3.355  11.024  18.116  0.00  0.00    +0.000 A 
ATOM     13  C   UNL     1      -2.617  10.364  17.144  0.00  0.00    +0.000 A 
ATOM     14  N   UNL     1      -1.296  10.008  17.242  0.00  0.00    +0.000 NA
ATOM     15  C   UNL     1      -0.691  10.522  18.340  0.00  0.00    +0.000 A 
BRANCH  12  16
ATOM     16  C   UNL     1      -4.789  11.155  17.993  0.00  0.00    +0.000 C 
ATOM     17  N   UNL     1      -5.935  11.244  17.881  0.00  0.00    +0.000 NA
ENDBRANCH  12  16
ENDBRANCH   4   7
BRANCH   1  19
ATOM     18  N   UNL     1       3.900   4.897  17.434  0.00  0.00    +0.000 N 
ATOM     19  C   UNL     1       4.042   5.753  18.513  0.00  0.00    +0.000 C 
ATOM     20  O   UNL     1       4.913   5.602  19.361  0.00  0.00    +0.000 OA
ATOM     21  H   UNL     1       3.210   5.176  16.729  0.00  0.00    +0.000 HD
BRANCH  18  22
ATOM     22  C   UNL     1       4.713   3.710  17.146  0.00  0.00    +0.000 C 
BRANCH  22  23
ATOM     23  C   UNL     1       5.684   3.926  15.968  0.00  0.00    +0.000 C 
ATOM     24  F   UNL     1       4.954   4.459  14.930  0.00  0.00    +0.000 F 
BRANCH  23  26
ATOM     25  C   UNL     1       7.631   4.502  17.533  0.00  0.00    +0.000 C 
ATOM     26  C   UNL     1       6.899   4.865  16.239  0.00  0.00    +0.000 C 
ATOM     27  C   UNL     1       6.509   6.347  16.239  0.00  0.00    +0.000 C 
BRANCH  26  28
ATOM     28  O   UNL     1       7.859   4.686  15.178  0.00  0.00    +0.000 OA
ATOM     29  H   UNL     1       8.582   5.329  15.312  0.00  0.00    +0.000 HD
ENDBRANCH  26  28
ENDBRANCH  23  26
ENDBRANCH  22  23
ENDBRANCH  18  22
ENDBRANCH   1  19
BRANCH   6  30
ATOM     30  N   UNL     1       2.197   6.178  20.833  0.00  0.00    +0.000 N 
ATOM     31  H   UNL     1       1.403   6.424  21.437  0.00  0.00    +0.000 HD
BRANCH  30  32
ATOM     32  C   UNL     1       2.187   4.733  20.559  0.00  0.00    +0.000 C 
ATOM     33  C   UNL     1       2.377   3.895  21.808  0.00  0.00    +0.000 C 
ATOM     34  C   UNL     1       1.723   2.589  21.417  0.00  0.00    +0.000 C 
ATOM     35  O   UNL     1       0.632   2.915  20.548  0.00  0.00    +0.000 OA
ATOM     36  C   UNL     1       0.810   4.263  20.089  0.00  0.00    +0.000 C 
ENDBRANCH  30  32
ENDBRANCH   6  30
TORSDOF 9
ENDMDL
MODEL 4
REMARK VINA RESULT:      -7.8      2.016      2.372
REMARK  Name = 
REMARK  11 active torsions:
REMARK  status: ('A' for Active; 'I' for Inactive)
REMARK    1  A    between atoms: C_1  and  C_2
REMARK    2  A    between atoms: C_2  and  C_3
REMARK    3  A    between atoms: C_2  and  O_4
REMARK    4  A    between atoms: C_2  and  C_5
REMARK    5  A    between atoms: C_5  and  C_7
REMARK    6  A    between atoms: C_7  and  N_8
REMARK    7  A    between atoms: C_9  and  C_11
REMARK    8  A    between atoms: C_14  and  N_15
REMARK    9  A    between atoms: C_20  and  C_21
REMARK   10  A    between atoms: C_27  and  N_28
REMARK   11  A    between atoms: N_28  and  C_29
REMARK                            x       y       z     vdW  Elec       q    Type
REMARK                         _______ _______ _______ _____ _____    ______ ____
ROOT
ATOM      1  C   UNL     1       2.571   7.376  18.518  0.00  0.00    +0.000 A 
ATOM      2  C   UNL     1       2.155   8.598  17.972  0.00  0.00    +0.000 A 
ATOM      3  N   UNL     1       1.526   9.603  18.663  0.00  0.00    +0.000 NA
ATOM      4  C   UNL     1       1.262   9.380  19.971  0.00  0.00    +0.000 A 
ATOM      5  C   UNL     1       1.579   8.158  20.575  0.00  0.00    +0.000 A 
ATOM      6  C   UNL     1       2.224   7.130  19.856  0.00  0.00    +0.000 A 
ENDROOT
BRANCH   4   7
ATOM      7  N   UNL     1       0.545  10.346  20.763  0.00  0.00    +0.000 N 
ATOM      8  N   UNL     1       0.785  10.435  22.117  0.00  0.00    +0.000 NA
ATOM      9  C   UNL     1      -0.347  10.949  22.603  0.00  0.00    +0.000 A 
ATOM     10  C   UNL     1      -1.240  11.351  21.593  0.00  0.00    +0.000 A 
ATOM     11  C   UNL     1      -2.535  11.900  21.518  0.00  0.00    +0.000 A 
ATOM     12  C   UNL     1      -2.903  12.486  20.309  0.00  0.00    +0.000 A 
ATOM     13  C   UNL     1      -1.988  12.483  19.266  0.00  0.00    +0.000 A 
ATOM     14  N   UNL     1      -0.811  11.780  19.231  0.00  0.00    +0.000 NA
ATOM     15  C   UNL     1      -0.511  11.193  20.415  0.00  0.00    +0.000 A 
BRANCH  12  16
ATOM     16  C   UNL     1      -4.206  13.090  20.147  0.00  0.00    +0.000 C 
ATOM     17  N   UNL     1      -5.239  13.584  20.002  0.00  0.00    +0.000 NA
ENDBRANCH  12  16
ENDBRANCH   4   7
BRANCH   1  19
ATOM     18  N   UNL     1       4.572   6.924  17.136  0.00  0.00    +0.000 N 
ATOM     19  C   UNL     1       3.377   6.448  17.648  0.00  0.00    +0.000 C 
ATOM     20  O   UNL     1       2.952   5.328  17.393  0.00  0.00    +0.000 OA
ATOM     21  H   UNL     1       4.886   7.830  17.498  0.00  0.00    +0.000 HD
BRANCH  18  22
ATOM     22  C   UNL     1       5.480   6.212  16.229  0.00  0.00    +0.000 C 
BRANCH  22  23
ATOM     23  C   UNL     1       6.924   6.146  16.763  0.00  0.00    +0.000 C 
ATOM     24  F   UNL     1       7.235   7.394  17.253  0.00  0.00    +0.000 F 
BRANCH  23  26
ATOM     25  C   UNL     1       5.955   4.265  18.211  0.00  0.00    +0.000 C 
ATOM     26  C   UNL     1       7.195   5.101  17.888  0.00  0.00    +0.000 C 
ATOM     27  C   UNL     1       7.759   5.741  19.162  0.00  0.00    +0.000 C 
BRANCH  26  28
ATOM     28  O   UNL     1       8.188   4.168  17.415  0.00  0.00    +0.000 OA
ATOM     29  H   UNL     1       8.884   4.673  16.953  0.00  0.00    +0.000 HD
ENDBRANCH  26  28
ENDBRANCH  23  26
ENDBRANCH  22  23
ENDBRANCH  18  22
ENDBRANCH   1  19
BRANCH   6  30
ATOM     30  N   UNL     1       2.651   5.947  20.510  0.00  0.00    +0.000 N 
ATOM     31  H   UNL     1       3.120   6.229  21.380  0.00  0.00    +0.000 HD
BRANCH  30  32
ATOM     32  C   UNL     1       1.646   4.912  20.798  0.00  0.00    +0.000 C 
ATOM     33  C   UNL     1       1.235   4.131  19.566  0.00  0.00    +0.000 C 
ATOM     34  C   UNL     1       0.759   2.826  20.161  0.00  0.00    +0.000 C 
ATOM     35  O   UNL     1       1.565   2.579  21.318  0.00  0.00    +0.000 OA
ATOM     36  C   UNL     1       2.223   3.803  21.678  0.00  0.00    +0.000 C 
ENDBRANCH  30  32
ENDBRANCH   6  30
TORSDOF 9
ENDMDL
MODEL 5
REMARK VINA RESULT:      -7.7      1.674      2.696
REMARK  Name = 
REMARK  11 active torsions:
REMARK  status: ('A' for Active; 'I' for Inactive)
REMARK    1  A    between atoms: C_1  and  C_2
REMARK    2  A    between atoms: C_2  and  C_3
REMARK    3  A    between atoms: C_2  and  O_4
REMARK    4  A    between atoms: C_2  and  C_5
REMARK    5  A    between atoms: C_5  and  C_7
REMARK    6  A    between atoms: C_7  and  N_8
REMARK    7  A    between atoms: C_9  and  C_11
REMARK    8  A    between atoms: C_14  and  N_15
REMARK    9  A    between atoms: C_20  and  C_21
REMARK   10  A    between atoms: C_27  and  N_28
REMARK   11  A    between atoms: N_28  and  C_29
REMARK                            x       y       z     vdW  Elec       q    Type
REMARK                         _______ _______ _______ _____ _____    ______ ____
ROOT
ATOM      1  C   UNL     1       3.466   6.650  18.775  0.00  0.00    +0.000 A 
ATOM      2  C   UNL     1       3.311   7.688  17.846  0.00  0.00    +0.000 A 
ATOM      3  N   UNL     1       2.385   8.697  17.930  0.00  0.00    +0.000 NA
ATOM      4  C   UNL     1       1.534   8.666  18.982  0.00  0.00    +0.000 A 
ATOM      5  C   UNL     1       1.575   7.624  19.915  0.00  0.00    +0.000 A 
ATOM      6  C   UNL     1       2.530   6.591  19.819  0.00  0.00    +0.000 A 
ENDROOT
BRANCH   4   7
ATOM      7  N   UNL     1       0.484   9.642  19.120  0.00  0.00    +0.000 N 
ATOM      8  N   UNL     1      -0.165  10.112  17.999  0.00  0.00    +0.000 NA
ATOM      9  C   UNL     1      -0.612  11.312  18.376  0.00  0.00    +0.000 A 
ATOM     10  C   UNL     1      -0.421  11.559  19.747  0.00  0.00    +0.000 A 
ATOM     11  C   UNL     1      -0.652  12.616  20.649  0.00  0.00    +0.000 A 
ATOM     12  C   UNL     1      -0.646  12.302  22.006  0.00  0.00    +0.000 A 
ATOM     13  C   UNL     1      -0.405  10.987  22.379  0.00  0.00    +0.000 A 
ATOM     14  N   UNL     1       0.030   9.983  21.553  0.00  0.00    +0.000 NA
ATOM     15  C   UNL     1       0.046  10.344  20.247  0.00  0.00    +0.000 A 
BRANCH  12  16
ATOM     16  C   UNL     1      -0.892  13.320  23.001  0.00  0.00    +0.000 C 
ATOM     17  N   UNL     1      -1.075  14.124  23.809  0.00  0.00    +0.000 NA
ENDBRANCH  12  16
ENDBRANCH   4   7
BRANCH   1  19
ATOM     18  N   UNL     1       5.529   5.984  17.585  0.00  0.00    +0.000 N 
ATOM     19  C   UNL     1       4.629   5.710  18.601  0.00  0.00    +0.000 C 
ATOM     20  O   UNL     1       4.736   4.730  19.327  0.00  0.00    +0.000 OA
ATOM     21  H   UNL     1       5.409   6.884  17.110  0.00  0.00    +0.000 HD
BRANCH  18  22
ATOM     22  C   UNL     1       6.694   5.175  17.207  0.00  0.00    +0.000 C 
BRANCH  22  23
ATOM     23  C   UNL     1       6.392   4.200  16.052  0.00  0.00    +0.000 C 
ATOM     24  F   UNL     1       5.227   3.540  16.370  0.00  0.00    +0.000 F 
BRANCH  23  26
ATOM     25  C   UNL     1       5.358   3.972  13.717  0.00  0.00    +0.000 C 
ATOM     26  C   UNL     1       6.219   4.838  14.639  0.00  0.00    +0.000 C 
ATOM     27  C   UNL     1       7.560   5.165  13.973  0.00  0.00    +0.000 C 
BRANCH  26  28
ATOM     28  O   UNL     1       5.510   6.085  14.785  0.00  0.00    +0.000 OA
ATOM     29  H   UNL     1       4.555   5.902  14.706  0.00  0.00    +0.000 HD
ENDBRANCH  26  28
ENDBRANCH  23  26
ENDBRANCH  22  23
ENDBRANCH  18  22
ENDBRANCH   1  19
BRANCH   6  30
ATOM     30  N   UNL     1       2.641   5.611  20.838  0.00  0.00    +0.000 N 
ATOM     31  H   UNL     1       2.640   6.104  21.739  0.00  0.00    +0.000 HD
BRANCH  30  32
ATOM     32  C   UNL     1       1.652   4.522  20.864  0.00  0.00    +0.000 C 
ATOM     33  C   UNL     1       1.327   3.988  19.483  0.00  0.00    +0.000 C 
ATOM     34  C   UNL     1       0.857   2.584  19.788  0.00  0.00    +0.000 C 
ATOM     35  O   UNL     1       1.609   2.132  20.919  0.00  0.00    +0.000 OA
ATOM     36  C   UNL     1       2.213   3.274  21.545  0.00  0.00    +0.000 C 
ENDBRANCH  30  32
ENDBRANCH   6  30
TORSDOF 9
ENDMDL
MODEL 6
REMARK VINA RESULT:      -7.7      1.114      1.321
REMARK  Name = 
REMARK  11 active torsions:
REMARK  status: ('A' for Active; 'I' for Inactive)
REMARK    1  A    between atoms: C_1  and  C_2
REMARK    2  A    between atoms: C_2  and  C_3
REMARK    3  A    between atoms: C_2  and  O_4
REMARK    4  A    between atoms: C_2  and  C_5
REMARK    5  A    between atoms: C_5  and  C_7
REMARK    6  A    between atoms: C_7  and  N_8
REMARK    7  A    between atoms: C_9  and  C_11
REMARK    8  A    between atoms: C_14  and  N_15
REMARK    9  A    between atoms: C_20  and  C_21
REMARK   10  A    between atoms: C_27  and  N_28
REMARK   11  A    between atoms: N_28  and  C_29
REMARK                            x       y       z     vdW  Elec       q    Type
REMARK                         _______ _______ _______ _____ _____    ______ ____
ROOT
ATOM      1  C   UNL     1       2.933   6.784  18.366  0.00  0.00    +0.000 A 
ATOM      2  C   UNL     1       2.703   7.807  17.436  0.00  0.00    +0.000 A 
ATOM      3  N   UNL     1       2.038   8.979  17.692  0.00  0.00    +0.000 NA
ATOM      4  C   UNL     1       1.539   9.144  18.940  0.00  0.00    +0.000 A 
ATOM      5  C   UNL     1       1.662   8.140  19.906  0.00  0.00    +0.000 A 
ATOM      6  C   UNL     1       2.347   6.938  19.632  0.00  0.00    +0.000 A 
ENDROOT
BRANCH   4   7
ATOM      7  N   UNL     1       0.768  10.310  19.286  0.00  0.00    +0.000 N 
ATOM      8  N   UNL     1       1.169  11.109  20.335  0.00  0.00    +0.000 NA
ATOM      9  C   UNL     1       0.037  11.693  20.734  0.00  0.00    +0.000 A 
ATOM     10  C   UNL     1      -1.045  11.430  19.874  0.00  0.00    +0.000 A 
ATOM     11  C   UNL     1      -2.418  11.739  19.816  0.00  0.00    +0.000 A 
ATOM     12  C   UNL     1      -3.050  11.578  18.586  0.00  0.00    +0.000 A 
ATOM     13  C   UNL     1      -2.301  11.119  17.511  0.00  0.00    +0.000 A 
ATOM     14  N   UNL     1      -1.029  10.611  17.577  0.00  0.00    +0.000 NA
ATOM     15  C   UNL     1      -0.466  10.753  18.802  0.00  0.00    +0.000 A 
BRANCH  12  16
ATOM     16  C   UNL     1      -4.453  11.888  18.430  0.00  0.00    +0.000 C 
ATOM     17  N   UNL     1      -5.578  12.123  18.321  0.00  0.00    +0.000 NA
ENDBRANCH  12  16
ENDBRANCH   4   7
BRANCH   1  19
ATOM     18  N   UNL     1       5.116   5.622  18.405  0.00  0.00    +0.000 N 
ATOM     19  C   UNL     1       3.808   5.631  17.951  0.00  0.00    +0.000 C 
ATOM     20  O   UNL     1       3.362   4.761  17.214  0.00  0.00    +0.000 OA
ATOM     21  H   UNL     1       5.354   6.335  19.101  0.00  0.00    +0.000 HD
BRANCH  18  22
ATOM     22  C   UNL     1       6.148   4.631  18.079  0.00  0.00    +0.000 C 
BRANCH  22  23
ATOM     23  C   UNL     1       7.077   5.092  16.938  0.00  0.00    +0.000 C 
ATOM     24  F   UNL     1       8.219   4.328  17.007  0.00  0.00    +0.000 F 
BRANCH  23  26
ATOM     25  C   UNL     1       5.739   3.670  15.277  0.00  0.00    +0.000 C 
ATOM     26  C   UNL     1       6.503   4.978  15.493  0.00  0.00    +0.000 C 
ATOM     27  C   UNL     1       7.579   5.157  14.416  0.00  0.00    +0.000 C 
BRANCH  26  28
ATOM     28  O   UNL     1       5.540   6.034  15.299  0.00  0.00    +0.000 OA
ATOM     29  H   UNL     1       4.876   5.725  14.654  0.00  0.00    +0.000 HD
ENDBRANCH  26  28
ENDBRANCH  23  26
ENDBRANCH  22  23
ENDBRANCH  18  22
ENDBRANCH   1  19
BRANCH   6  30
ATOM     30  N   UNL     1       2.572   5.983  20.656  0.00  0.00    +0.000 N 
ATOM     31  H   UNL     1       2.696   6.499  21.535  0.00  0.00    +0.000 HD
BRANCH  30  32
ATOM     32  C   UNL     1       1.576   4.916  20.841  0.00  0.00    +0.000 C 
ATOM     33  C   UNL     1       1.171   4.256  19.538  0.00  0.00    +0.000 C 
ATOM     34  C   UNL     1       0.705   2.895  20.003  0.00  0.00    +0.000 C 
ATOM     35  O   UNL     1       1.514   2.543  21.131  0.00  0.00    +0.000 OA
ATOM     36  C   UNL     1       2.162   3.732  21.609  0.00  0.00    +0.000 C 
ENDBRANCH  30  32
ENDBRANCH   6  30
TORSDOF 9
ENDMDL
MODEL 7
REMARK VINA RESULT:      -7.7      3.917      6.287
REMARK  Name = 
REMARK  11 active torsions:
REMARK  status: ('A' for Active; 'I' for Inactive)
REMARK    1  A    between atoms: C_1  and  C_2
REMARK    2  A    between atoms: C_2  and  C_3
REMARK    3  A    between atoms: C_2  and  O_4
REMARK    4  A    between atoms: C_2  and  C_5
REMARK    5  A    between atoms: C_5  and  C_7
REMARK    6  A    between atoms: C_7  and  N_8
REMARK    7  A    between atoms: C_9  and  C_11
REMARK    8  A    between atoms: C_14  and  N_15
REMARK    9  A    between atoms: C_20  and  C_21
REMARK   10  A    between atoms: C_27  and  N_28
REMARK   11  A    between atoms: N_28  and  C_29
REMARK                            x       y       z     vdW  Elec       q    Type
REMARK                         _______ _______ _______ _____ _____    ______ ____
ROOT
ATOM      1  C   UNL     1       0.638  10.099  19.678  0.00  0.00    +0.000 A 
ATOM      2  C   UNL     1       0.934  10.340  21.026  0.00  0.00    +0.000 A 
ATOM      3  N   UNL     1       0.240  11.186  21.853  0.00  0.00    +0.000 NA
ATOM      4  C   UNL     1      -0.799  11.864  21.309  0.00  0.00    +0.000 A 
ATOM      5  C   UNL     1      -1.115  11.735  19.952  0.00  0.00    +0.000 A 
ATOM      6  C   UNL     1      -0.394  10.863  19.110  0.00  0.00    +0.000 A 
ENDROOT
BRANCH   4   7
ATOM      7  N   UNL     1      -1.546  12.826  22.078  0.00  0.00    +0.000 N 
ATOM      8  N   UNL     1      -0.879  13.723  22.884  0.00  0.00    +0.000 NA
ATOM      9  C   UNL     1      -1.782  14.037  23.816  0.00  0.00    +0.000 A 
ATOM     10  C   UNL     1      -3.055  13.506  23.542  0.00  0.00    +0.000 A 
ATOM     11  C   UNL     1      -4.321  13.483  24.161  0.00  0.00    +0.000 A 
ATOM     12  C   UNL     1      -5.409  13.146  23.360  0.00  0.00    +0.000 A 
ATOM     13  C   UNL     1      -5.182  12.848  22.024  0.00  0.00    +0.000 A 
ATOM     14  N   UNL     1      -3.955  12.654  21.441  0.00  0.00    +0.000 NA
ATOM     15  C   UNL     1      -2.924  12.955  22.268  0.00  0.00    +0.000 A 
BRANCH  12  16
ATOM     16  C   UNL     1      -6.747  13.116  23.906  0.00  0.00    +0.000 C 
ATOM     17  N   UNL     1      -7.807  13.087  24.362  0.00  0.00    +0.000 NA
ENDBRANCH  12  16
ENDBRANCH   4   7
BRANCH   1  19
ATOM     18  N   UNL     1       1.831   7.932  19.699  0.00  0.00    +0.000 N 
ATOM     19  C   UNL     1       1.418   9.028  18.961  0.00  0.00    +0.000 C 
ATOM     20  O   UNL     1       1.688   9.161  17.774  0.00  0.00    +0.000 OA
ATOM     21  H   UNL     1       1.460   7.867  20.652  0.00  0.00    +0.000 HD
BRANCH  18  22
ATOM     22  C   UNL     1       2.643   6.809  19.216  0.00  0.00    +0.000 C 
BRANCH  22  23
ATOM     23  C   UNL     1       2.426   5.523  20.038  0.00  0.00    +0.000 C 
ATOM     24  F   UNL     1       1.414   5.777  20.935  0.00  0.00    +0.000 F 
BRANCH  23  26
ATOM     25  C   UNL     1       1.732   4.559  17.766  0.00  0.00    +0.000 C 
ATOM     26  C   UNL     1       2.049   4.244  19.230  0.00  0.00    +0.000 C 
ATOM     27  C   UNL     1       0.900   3.459  19.872  0.00  0.00    +0.000 C 
BRANCH  26  28
ATOM     28  O   UNL     1       3.193   3.365  19.206  0.00  0.00    +0.000 OA
ATOM     29  H   UNL     1       3.833   3.718  18.559  0.00  0.00    +0.000 HD
ENDBRANCH  26  28
ENDBRANCH  23  26
ENDBRANCH  22  23
ENDBRANCH  18  22
ENDBRANCH   1  19
BRANCH   6  30
ATOM     30  N   UNL     1      -0.802  10.648  17.770  0.00  0.00    +0.000 N 
ATOM     31  H   UNL     1      -0.203   9.909  17.382  0.00  0.00    +0.000 HD
BRANCH  30  32
ATOM     32  C   UNL     1      -2.215  10.329  17.517  0.00  0.00    +0.000 C 
ATOM     33  C   UNL     1      -3.121  11.540  17.625  0.00  0.00    +0.000 C 
ATOM     34  C   UNL     1      -4.291  11.140  16.756  0.00  0.00    +0.000 C 
ATOM     35  O   UNL     1      -3.763  10.337  15.694  0.00  0.00    +0.000 OA
ATOM     36  C   UNL     1      -2.443   9.912  16.065  0.00  0.00    +0.000 C 
ENDBRANCH  30  32
ENDBRANCH   6  30
TORSDOF 9
ENDMDL
MODEL 8
REMARK VINA RESULT:      -7.6      1.446      1.752
REMARK  Name = 
REMARK  11 active torsions:
REMARK  status: ('A' for Active; 'I' for Inactive)
REMARK    1  A    between atoms: C_1  and  C_2
REMARK    2  A    between atoms: C_2  and  C_3
REMARK    3  A    between atoms: C_2  and  O_4
REMARK    4  A    between atoms: C_2  and  C_5
REMARK    5  A    between atoms: C_5  and  C_7
REMARK    6  A    between atoms: C_7  and  N_8
REMARK    7  A    between atoms: C_9  and  C_11
REMARK    8  A    between atoms: C_14  and  N_15
REMARK    9  A    between atoms: C_20  and  C_21
REMARK   10  A    between atoms: C_27  and  N_28
REMARK   11  A    between atoms: N_28  and  C_29
REMARK                            x       y       z     vdW  Elec       q    Type
REMARK                         _______ _______ _______ _____ _____    ______ ____
ROOT
ATOM      1  C   UNL     1       2.695   6.948  18.750  0.00  0.00    +0.000 A 
ATOM      2  C   UNL     1       2.532   8.031  17.876  0.00  0.00    +0.000 A 
ATOM      3  N   UNL     1       1.928   9.222  18.191  0.00  0.00    +0.000 NA
ATOM      4  C   UNL     1       1.422   9.344  19.441  0.00  0.00    +0.000 A 
ATOM      5  C   UNL     1       1.478   8.283  20.351  0.00  0.00    +0.000 A 
ATOM      6  C   UNL     1       2.101   7.063  20.017  0.00  0.00    +0.000 A 
ENDROOT
BRANCH   4   7
ATOM      7  N   UNL     1       0.709  10.529  19.844  0.00  0.00    +0.000 N 
ATOM      8  N   UNL     1       1.169  11.275  20.908  0.00  0.00    +0.000 NA
ATOM      9  C   UNL     1       0.073  11.893  21.354  0.00  0.00    +0.000 A 
ATOM     10  C   UNL     1      -1.040  11.704  20.514  0.00  0.00    +0.000 A 
ATOM     11  C   UNL     1      -2.399  12.072  20.501  0.00  0.00    +0.000 A 
ATOM     12  C   UNL     1      -3.068  11.978  19.282  0.00  0.00    +0.000 A 
ATOM     13  C   UNL     1      -2.364  11.525  18.175  0.00  0.00    +0.000 A 
ATOM     14  N   UNL     1      -1.114  10.962  18.191  0.00  0.00    +0.000 NA
ATOM     15  C   UNL     1      -0.516  11.040  19.406  0.00  0.00    +0.000 A 
BRANCH  12  16
ATOM     16  C   UNL     1      -4.459  12.351  19.172  0.00  0.00    +0.000 C 
ATOM     17  N   UNL     1      -5.565  12.668  19.078  0.00  0.00    +0.000 NA
ENDBRANCH  12  16
ENDBRANCH   4   7
BRANCH   1  19
ATOM     18  N   UNL     1       4.826   5.693  18.710  0.00  0.00    +0.000 N 
ATOM     19  C   UNL     1       3.512   5.774  18.280  0.00  0.00    +0.000 C 
ATOM     20  O   UNL     1       3.018   4.950  17.521  0.00  0.00    +0.000 OA
ATOM     21  H   UNL     1       5.106   6.370  19.427  0.00  0.00    +0.000 HD
BRANCH  18  22
ATOM     22  C   UNL     1       5.809   4.671  18.332  0.00  0.00    +0.000 C 
BRANCH  22  23
ATOM     23  C   UNL     1       6.858   5.196  17.332  0.00  0.00    +0.000 C 
ATOM     24  F   UNL     1       8.008   4.466  17.526  0.00  0.00    +0.000 F 
BRANCH  23  26
ATOM     25  C   UNL     1       5.509   6.217  15.405  0.00  0.00    +0.000 C 
ATOM     26  C   UNL     1       6.476   5.107  15.822  0.00  0.00    +0.000 C 
ATOM     27  C   UNL     1       5.915   3.733  15.437  0.00  0.00    +0.000 C 
BRANCH  26  28
ATOM     28  O   UNL     1       7.669   5.306  15.037  0.00  0.00    +0.000 OA
ATOM     29  H   UNL     1       8.441   5.112  15.602  0.00  0.00    +0.000 HD
ENDBRANCH  26  28
ENDBRANCH  23  26
ENDBRANCH  22  23
ENDBRANCH  18  22
ENDBRANCH   1  19
BRANCH   6  30
ATOM     30  N   UNL     1       2.261   6.042  20.988  0.00  0.00    +0.000 N 
ATOM     31  H   UNL     1       1.579   6.220  21.735  0.00  0.00    +0.000 HD
BRANCH  30  32
ATOM     32  C   UNL     1       2.163   4.642  20.546  0.00  0.00    +0.000 C 
ATOM     33  C   UNL     1       2.421   3.652  21.664  0.00  0.00    +0.000 C 
ATOM     34  C   UNL     1       1.679   2.427  21.180  0.00  0.00    +0.000 C 
ATOM     35  O   UNL     1       0.534   2.893  20.458  0.00  0.00    +0.000 OA
ATOM     36  C   UNL     1       0.732   4.281  20.148  0.00  0.00    +0.000 C 
ENDBRANCH  30  32
ENDBRANCH   6  30
TORSDOF 9
ENDMDL
MODEL 9
REMARK VINA RESULT:      -7.5      2.567      2.950
REMARK  Name = 
REMARK  11 active torsions:
REMARK  status: ('A' for Active; 'I' for Inactive)
REMARK    1  A    between atoms: C_1  and  C_2
REMARK    2  A    between atoms: C_2  and  C_3
REMARK    3  A    between atoms: C_2  and  O_4
REMARK    4  A    between atoms: C_2  and  C_5
REMARK    5  A    between atoms: C_5  and  C_7
REMARK    6  A    between atoms: C_7  and  N_8
REMARK    7  A    between atoms: C_9  and  C_11
REMARK    8  A    between atoms: C_14  and  N_15
REMARK    9  A    between atoms: C_20  and  C_21
REMARK   10  A    between atoms: C_27  and  N_28
REMARK   11  A    between atoms: N_28  and  C_29
REMARK                            x       y       z     vdW  Elec       q    Type
REMARK                         _______ _______ _______ _____ _____    ______ ____
ROOT
ATOM      1  C   UNL     1       2.500   7.139  18.759  0.00  0.00    +0.000 A 
ATOM      2  C   UNL     1       1.908   8.349  18.371  0.00  0.00    +0.000 A 
ATOM      3  N   UNL     1       1.309   9.247  19.217  0.00  0.00    +0.000 NA
ATOM      4  C   UNL     1       1.261   8.919  20.530  0.00  0.00    +0.000 A 
ATOM      5  C   UNL     1       1.764   7.697  20.988  0.00  0.00    +0.000 A 
ATOM      6  C   UNL     1       2.377   6.780  20.110  0.00  0.00    +0.000 A 
ENDROOT
BRANCH   4   7
ATOM      7  N   UNL     1       0.593   9.765  21.485  0.00  0.00    +0.000 N 
ATOM      8  N   UNL     1       0.257   9.263  22.724  0.00  0.00    +0.000 NA
ATOM      9  C   UNL     1      -0.772  10.026  23.102  0.00  0.00    +0.000 A 
ATOM     10  C   UNL     1      -0.999  11.106  22.229  0.00  0.00    +0.000 A 
ATOM     11  C   UNL     1      -1.921  12.164  22.112  0.00  0.00    +0.000 A 
ATOM     12  C   UNL     1      -1.559  13.229  21.291  0.00  0.00    +0.000 A 
ATOM     13  C   UNL     1      -0.335  13.177  20.640  0.00  0.00    +0.000 A 
ATOM     14  N   UNL     1       0.487  12.082  20.560  0.00  0.00    +0.000 NA
ATOM     15  C   UNL     1       0.077  11.056  21.344  0.00  0.00    +0.000 A 
BRANCH  12  16
ATOM     16  C   UNL     1      -2.436  14.366  21.126  0.00  0.00    +0.000 C 
ATOM     17  N   UNL     1      -3.132  15.280  21.015  0.00  0.00    +0.000 NA
ENDBRANCH  12  16
ENDBRANCH   4   7
BRANCH   1  19
ATOM     18  N   UNL     1       4.339   6.938  17.117  0.00  0.00    +0.000 N 
ATOM     19  C   UNL     1       3.240   6.345  17.715  0.00  0.00    +0.000 C 
ATOM     20  O   UNL     1       2.846   5.228  17.404  0.00  0.00    +0.000 OA
ATOM     21  H   UNL     1       4.648   7.825  17.527  0.00  0.00    +0.000 HD
BRANCH  18  22
ATOM     22  C   UNL     1       5.165   6.369  16.046  0.00  0.00    +0.000 C 
BRANCH  22  23
ATOM     23  C   UNL     1       6.609   6.074  16.501  0.00  0.00    +0.000 C 
ATOM     24  F   UNL     1       7.067   7.195  17.155  0.00  0.00    +0.000 F 
BRANCH  23  26
ATOM     25  C   UNL     1       5.727   3.777  17.223  0.00  0.00    +0.000 C 
ATOM     26  C   UNL     1       6.796   4.849  17.447  0.00  0.00    +0.000 C 
ATOM     27  C   UNL     1       6.854   5.250  18.926  0.00  0.00    +0.000 C 
BRANCH  26  28
ATOM     28  O   UNL     1       8.057   4.221  17.137  0.00  0.00    +0.000 OA
ATOM     29  H   UNL     1       8.207   3.505  17.783  0.00  0.00    +0.000 HD
ENDBRANCH  26  28
ENDBRANCH  23  26
ENDBRANCH  22  23
ENDBRANCH  18  22
ENDBRANCH   1  19
BRANCH   6  30
ATOM     30  N   UNL     1       2.992   5.603  20.606  0.00  0.00    +0.000 N 
ATOM     31  H   UNL     1       3.518   5.863  21.449  0.00  0.00    +0.000 HD
BRANCH  30  32
ATOM     32  C   UNL     1       2.137   4.440  20.891  0.00  0.00    +0.000 C 
ATOM     33  C   UNL     1       0.913   4.376  19.999  0.00  0.00    +0.000 C 
ATOM     34  C   UNL     1       0.584   2.901  20.016  0.00  0.00    +0.000 C 
ATOM     35  O   UNL     1       1.829   2.200  20.112  0.00  0.00    +0.000 OA
ATOM     36  C   UNL     1       2.839   3.130  20.532  0.00  0.00    +0.000 C 
ENDBRANCH  30  32
ENDBRANCH   6  30
TORSDOF 9
ENDMDL
