MODEL 1
REMARK VINA RESULT:      -8.1      0.000      0.000
REMARK  Name = 
REMARK  5 active torsions:
REMARK  status: ('A' for Active; 'I' for Inactive)
REMARK    1  A    between atoms: C_1  and  C_2
REMARK    2  A    between atoms: C_5  and  C_6
REMARK    3  A    between atoms: C_7  and  C_8
REMARK    4  A    between atoms: C_16  and  C_17
REMARK    5  A    between atoms: C_16  and  C_18
REMARK                            x       y       z     vdW  Elec       q    Type
REMARK                         _______ _______ _______ _____ _____    ______ ____
ROOT
ATOM      1  C   UNL     1       3.090   6.444  18.434  0.00  0.00    +0.000 C 
ATOM      2  N   UNL     1       3.858   7.057  17.567  0.00  0.00    +0.000 NA
ATOM      3  C   UNL     1       4.522   6.064  16.839  0.00  0.00    +0.000 A 
ATOM      4  C   UNL     1       5.441   6.285  15.833  0.00  0.00    +0.000 A 
ATOM      5  C   UNL     1       6.088   5.184  15.271  0.00  0.00    +0.000 A 
ATOM      6  C   UNL     1       5.811   3.889  15.733  0.00  0.00    +0.000 A 
ATOM      7  C   UNL     1       4.851   3.671  16.729  0.00  0.00    +0.000 A 
ATOM      8  C   UNL     1       4.189   4.774  17.254  0.00  0.00    +0.000 A 
ATOM      9  C   UNL     1       3.111   4.886  18.316  0.00  0.00    +0.000 C 
ATOM     10  C   UNL     1       1.769   4.396  17.765  0.00  0.00    +0.000 C 
ATOM     11  C   UNL     1       3.520   4.113  19.566  0.00  0.00    +0.000 C 
ENDROOT
BRANCH   1  13
ATOM     12  C   UNL     1       1.742   8.499  19.166  0.00  0.00    +0.000 C 
ATOM     13  C   UNL     1       2.259   7.274  19.340  0.00  0.00    +0.000 C 
BRANCH  12  18
ATOM     14  C   UNL     1      -1.405  11.241  23.236  0.00  0.00    +0.000 C 
ATOM     15  C   UNL     1      -0.581  10.539  22.188  0.00  0.00    +0.000 A 
ATOM     16  C   UNL     1      -0.519  11.017  20.878  0.00  0.00    +0.000 A 
ATOM     17  C   UNL     1       0.243  10.349  19.906  0.00  0.00    +0.000 A 
ATOM     18  C   UNL     1       0.964   9.192  20.226  0.00  0.00    +0.000 A 
ATOM     19  C   UNL     1       0.887   8.716  21.545  0.00  0.00    +0.000 A 
ATOM     20  C   UNL     1       0.129   9.385  22.519  0.00  0.00    +0.000 A 
ENDBRANCH  12  18
ENDBRANCH   1  13
TORSDOF 2
ENDMDL
MODEL 2
REMARK VINA RESULT:      -8.0      0.526      1.188
REMARK  Name = 
REMARK  5 active torsions:
REMARK  status: ('A' for Active; 'I' for Inactive)
REMARK    1  A    between atoms: C_1  and  C_2
REMARK    2  A    between atoms: C_5  and  C_6
REMARK    3  A    between atoms: C_7  and  C_8
REMARK    4  A    between atoms: C_16  and  C_17
REMARK    5  A    between atoms: C_16  and  C_18
REMARK                            x       y       z     vdW  Elec       q    Type
REMARK                         _______ _______ _______ _____ _____    ______ ____
ROOT
ATOM      1  C   UNL     1       2.980   6.810  18.316  0.00  0.00    +0.000 C 
ATOM      2  N   UNL     1       3.786   7.300  17.407  0.00  0.00    +0.000 NA
ATOM      3  C   UNL     1       4.431   6.214  16.806  0.00  0.00    +0.000 A 
ATOM      4  C   UNL     1       5.376   6.296  15.803  0.00  0.00    +0.000 A 
ATOM      5  C   UNL     1       5.997   5.121  15.378  0.00  0.00    +0.000 A 
ATOM      6  C   UNL     1       5.668   3.892  15.970  0.00  0.00    +0.000 A 
ATOM      7  C   UNL     1       4.682   3.814  16.961  0.00  0.00    +0.000 A 
ATOM      8  C   UNL     1       4.047   4.988  17.349  0.00  0.00    +0.000 A 
ATOM      9  C   UNL     1       2.952   5.247  18.368  0.00  0.00    +0.000 C 
ATOM     10  C   UNL     1       1.605   4.743  17.841  0.00  0.00    +0.000 C 
ATOM     11  C   UNL     1       3.310   4.602  19.703  0.00  0.00    +0.000 C 
ENDROOT
BRANCH   1  13
ATOM     12  C   UNL     1       1.818   7.738  20.404  0.00  0.00    +0.000 C 
ATOM     13  C   UNL     1       2.160   7.758  19.108  0.00  0.00    +0.000 C 
BRANCH  12  18
ATOM     14  C   UNL     1      -1.557  11.794  22.883  0.00  0.00    +0.000 C 
ATOM     15  C   UNL     1      -0.696  10.738  22.240  0.00  0.00    +0.000 A 
ATOM     16  C   UNL     1      -0.059   9.761  23.007  0.00  0.00    +0.000 A 
ATOM     17  C   UNL     1       0.752   8.788  22.398  0.00  0.00    +0.000 A 
ATOM     18  C   UNL     1       0.936   8.769  21.010  0.00  0.00    +0.000 A 
ATOM     19  C   UNL     1       0.298   9.763  20.251  0.00  0.00    +0.000 A 
ATOM     20  C   UNL     1      -0.516  10.734  20.856  0.00  0.00    +0.000 A 
ENDBRANCH  12  18
ENDBRANCH   1  13
TORSDOF 2
ENDMDL
MODEL 3
REMARK VINA RESULT:      -8.0      1.369      8.049
REMARK  Name = 
REMARK  5 active torsions:
REMARK  status: ('A' for Active; 'I' for Inactive)
REMARK    1  A    between atoms: C_1  and  C_2
REMARK    2  A    between atoms: C_5  and  C_6
REMARK    3  A    between atoms: C_7  and  C_8
REMARK    4  A    between atoms: C_16  and  C_17
REMARK    5  A    between atoms: C_16  and  C_18
REMARK                            x       y       z     vdW  Elec       q    Type
REMARK                         _______ _______ _______ _____ _____    ______ ____
ROOT
ATOM      1  C   UNL     1       1.410   8.839  19.470  0.00  0.00    +0.000 C 
ATOM      2  N   UNL     1       1.160   8.409  20.683  0.00  0.00    +0.000 NA
ATOM      3  C   UNL     1       0.376   9.385  21.306  0.00  0.00    +0.000 A 
ATOM      4  C   UNL     1      -0.094   9.330  22.603  0.00  0.00    +0.000 A 
ATOM      5  C   UNL     1      -0.783  10.433  23.107  0.00  0.00    +0.000 A 
ATOM      6  C   UNL     1      -0.979  11.571  22.310  0.00  0.00    +0.000 A 
ATOM      7  C   UNL     1      -0.530  11.604  20.984  0.00  0.00    +0.000 A 
ATOM      8  C   UNL     1       0.124  10.484  20.484  0.00  0.00    +0.000 A 
ATOM      9  C   UNL     1       0.716  10.194  19.117  0.00  0.00    +0.000 C 
ATOM     10  C   UNL     1      -0.398   9.947  18.096  0.00  0.00    +0.000 C 
ATOM     11  C   UNL     1       1.630  11.337  18.686  0.00  0.00    +0.000 C 
ENDROOT
BRANCH   1  13
ATOM     12  C   UNL     1       2.773   6.774  18.796  0.00  0.00    +0.000 C 
ATOM     13  C   UNL     1       2.228   7.980  18.580  0.00  0.00    +0.000 C 
BRANCH  12  18
ATOM     14  C   UNL     1       6.162   4.157  14.840  0.00  0.00    +0.000 C 
ATOM     15  C   UNL     1       5.276   4.833  15.854  0.00  0.00    +0.000 A 
ATOM     16  C   UNL     1       5.318   6.216  16.039  0.00  0.00    +0.000 A 
ATOM     17  C   UNL     1       4.496   6.837  16.995  0.00  0.00    +0.000 A 
ATOM     18  C   UNL     1       3.612   6.086  17.780  0.00  0.00    +0.000 A 
ATOM     19  C   UNL     1       3.586   4.696  17.590  0.00  0.00    +0.000 A 
ATOM     20  C   UNL     1       4.403   4.074  16.633  0.00  0.00    +0.000 A 
ENDBRANCH  12  18
ENDBRANCH   1  13
TORSDOF 2
ENDMDL
MODEL 4
REMARK VINA RESULT:      -8.0      1.367      8.094
REMARK  Name = 
REMARK  5 active torsions:
REMARK  status: ('A' for Active; 'I' for Inactive)
REMARK    1  A    between atoms: C_1  and  C_2
REMARK    2  A    between atoms: C_5  and  C_6
REMARK    3  A    between atoms: C_7  and  C_8
REMARK    4  A    between atoms: C_16  and  C_17
REMARK    5  A    between atoms: C_16  and  C_18
REMARK                            x       y       z     vdW  Elec       q    Type
REMARK                         _______ _______ _______ _____ _____    ______ ____
ROOT
ATOM      1  C   UNL     1       1.407   8.808  19.462  0.00  0.00    +0.000 C 
ATOM      2  N   UNL     1       1.156   8.375  20.673  0.00  0.00    +0.000 NA
ATOM      3  C   UNL     1       0.361   9.343  21.295  0.00  0.00    +0.000 A 
ATOM      4  C   UNL     1      -0.114   9.281  22.589  0.00  0.00    +0.000 A 
ATOM      5  C   UNL     1      -0.815  10.377  23.093  0.00  0.00    +0.000 A 
ATOM      6  C   UNL     1      -1.018  11.514  22.296  0.00  0.00    +0.000 A 
ATOM      7  C   UNL     1      -0.565  11.553  20.972  0.00  0.00    +0.000 A 
ATOM      8  C   UNL     1       0.101  10.440  20.473  0.00  0.00    +0.000 A 
ATOM      9  C   UNL     1       0.702  10.157  19.108  0.00  0.00    +0.000 C 
ATOM     10  C   UNL     1      -0.406   9.901  18.083  0.00  0.00    +0.000 C 
ATOM     11  C   UNL     1       1.606  11.309  18.682  0.00  0.00    +0.000 C 
ENDROOT
BRANCH   1  13
ATOM     12  C   UNL     1       2.870   6.803  18.820  0.00  0.00    +0.000 C 
ATOM     13  C   UNL     1       2.237   7.959  18.574  0.00  0.00    +0.000 C 
BRANCH  12  18
ATOM     14  C   UNL     1       6.033   4.042  14.776  0.00  0.00    +0.000 C 
ATOM     15  C   UNL     1       5.226   4.755  15.829  0.00  0.00    +0.000 A 
ATOM     16  C   UNL     1       4.310   4.064  16.626  0.00  0.00    +0.000 A 
ATOM     17  C   UNL     1       3.554   4.740  17.599  0.00  0.00    +0.000 A 
ATOM     18  C   UNL     1       3.703   6.118  17.797  0.00  0.00    +0.000 A 
ATOM     19  C   UNL     1       4.620   6.802  16.983  0.00  0.00    +0.000 A 
ATOM     20  C   UNL     1       5.380   6.128  16.014  0.00  0.00    +0.000 A 
ENDBRANCH  12  18
ENDBRANCH   1  13
TORSDOF 2
ENDMDL
MODEL 5
REMARK VINA RESULT:      -7.6      5.060      6.720
REMARK  Name = 
REMARK  5 active torsions:
REMARK  status: ('A' for Active; 'I' for Inactive)
REMARK    1  A    between atoms: C_1  and  C_2
REMARK    2  A    between atoms: C_5  and  C_6
REMARK    3  A    between atoms: C_7  and  C_8
REMARK    4  A    between atoms: C_16  and  C_17
REMARK    5  A    between atoms: C_16  and  C_18
REMARK                            x       y       z     vdW  Elec       q    Type
REMARK                         _______ _______ _______ _____ _____    ______ ____
ROOT
ATOM      1  C   UNL     1       7.264   6.939  17.357  0.00  0.00    +0.000 C 
ATOM      2  N   UNL     1       7.689   6.526  16.189  0.00  0.00    +0.000 NA
ATOM      3  C   UNL     1       6.885   5.442  15.823  0.00  0.00    +0.000 A 
ATOM      4  C   UNL     1       7.010   4.705  14.663  0.00  0.00    +0.000 A 
ATOM      5  C   UNL     1       6.188   3.591  14.492  0.00  0.00    +0.000 A 
ATOM      6  C   UNL     1       5.268   3.231  15.487  0.00  0.00    +0.000 A 
ATOM      7  C   UNL     1       5.122   4.006  16.644  0.00  0.00    +0.000 A 
ATOM      8  C   UNL     1       5.922   5.133  16.784  0.00  0.00    +0.000 A 
ATOM      9  C   UNL     1       6.010   6.171  17.888  0.00  0.00    +0.000 C 
ATOM     10  C   UNL     1       4.789   7.095  17.847  0.00  0.00    +0.000 C 
ATOM     11  C   UNL     1       6.151   5.488  19.244  0.00  0.00    +0.000 C 
ENDROOT
BRANCH   1  13
ATOM     12  C   UNL     1       7.948   9.394  17.638  0.00  0.00    +0.000 C 
ATOM     13  C   UNL     1       7.948   8.098  17.981  0.00  0.00    +0.000 C 
BRANCH  12  18
ATOM     14  C   UNL     1      10.994  13.475  20.475  0.00  0.00    +0.000 C 
ATOM     15  C   UNL     1      10.218  12.416  19.737  0.00  0.00    +0.000 A 
ATOM     16  C   UNL     1       9.654  12.674  18.487  0.00  0.00    +0.000 A 
ATOM     17  C   UNL     1       8.922  11.682  17.812  0.00  0.00    +0.000 A 
ATOM     18  C   UNL     1       8.746  10.411  18.372  0.00  0.00    +0.000 A 
ATOM     19  C   UNL     1       9.310  10.167  19.634  0.00  0.00    +0.000 A 
ATOM     20  C   UNL     1      10.046  11.155  20.308  0.00  0.00    +0.000 A 
ENDBRANCH  12  18
ENDBRANCH   1  13
TORSDOF 2
ENDMDL
MODEL 6
REMARK VINA RESULT:      -7.4      5.024      6.686
REMARK  Name = 
REMARK  5 active torsions:
REMARK  status: ('A' for Active; 'I' for Inactive)
REMARK    1  A    between atoms: C_1  and  C_2
REMARK    2  A    between atoms: C_5  and  C_6
REMARK    3  A    between atoms: C_7  and  C_8
REMARK    4  A    between atoms: C_16  and  C_17
REMARK    5  A    between atoms: C_16  and  C_18
REMARK                            x       y       z     vdW  Elec       q    Type
REMARK                         _______ _______ _______ _____ _____    ______ ____
ROOT
ATOM      1  C   UNL     1       7.073   7.027  17.353  0.00  0.00    +0.000 C 
ATOM      2  N   UNL     1       7.562   6.654  16.196  0.00  0.00    +0.000 NA
ATOM      3  C   UNL     1       6.833   5.533  15.788  0.00  0.00    +0.000 A 
ATOM      4  C   UNL     1       7.040   4.820  14.624  0.00  0.00    +0.000 A 
ATOM      5  C   UNL     1       6.288   3.664  14.411  0.00  0.00    +0.000 A 
ATOM      6  C   UNL     1       5.354   3.240  15.367  0.00  0.00    +0.000 A 
ATOM      7  C   UNL     1       5.124   3.990  16.528  0.00  0.00    +0.000 A 
ATOM      8  C   UNL     1       5.856   5.158  16.711  0.00  0.00    +0.000 A 
ATOM      9  C   UNL     1       5.846   6.183  17.829  0.00  0.00    +0.000 C 
ATOM     10  C   UNL     1       4.578   7.039  17.755  0.00  0.00    +0.000 C 
ATOM     11  C   UNL     1       5.977   5.490  19.181  0.00  0.00    +0.000 C 
ENDROOT
BRANCH   1  13
ATOM     12  C   UNL     1       8.172   9.339  17.490  0.00  0.00    +0.000 C 
ATOM     13  C   UNL     1       7.669   8.212  18.015  0.00  0.00    +0.000 C 
BRANCH  12  18
ATOM     14  C   UNL     1      10.632  13.442  20.822  0.00  0.00    +0.000 C 
ATOM     15  C   UNL     1       9.984  12.386  19.965  0.00  0.00    +0.000 A 
ATOM     16  C   UNL     1       9.861  11.069  20.413  0.00  0.00    +0.000 A 
ATOM     17  C   UNL     1       9.265  10.089  19.602  0.00  0.00    +0.000 A 
ATOM     18  C   UNL     1       8.776  10.407  18.329  0.00  0.00    +0.000 A 
ATOM     19  C   UNL     1       8.915  11.732  17.886  0.00  0.00    +0.000 A 
ATOM     20  C   UNL     1       9.505  12.715  18.697  0.00  0.00    +0.000 A 
ENDBRANCH  12  18
ENDBRANCH   1  13
TORSDOF 2
ENDMDL
MODEL 7
REMARK VINA RESULT:      -7.3      0.976      1.164
REMARK  Name = 
REMARK  5 active torsions:
REMARK  status: ('A' for Active; 'I' for Inactive)
REMARK    1  A    between atoms: C_1  and  C_2
REMARK    2  A    between atoms: C_5  and  C_6
REMARK    3  A    between atoms: C_7  and  C_8
REMARK    4  A    between atoms: C_16  and  C_17
REMARK    5  A    between atoms: C_16  and  C_18
REMARK                            x       y       z     vdW  Elec       q    Type
REMARK                         _______ _______ _______ _____ _____    ______ ____
ROOT
ATOM      1  C   UNL     1       3.047   6.876  18.091  0.00  0.00    +0.000 C 
ATOM      2  N   UNL     1       3.855   7.311  17.156  0.00  0.00    +0.000 NA
ATOM      3  C   UNL     1       4.588   6.207  16.706  0.00  0.00    +0.000 A 
ATOM      4  C   UNL     1       5.564   6.236  15.730  0.00  0.00    +0.000 A 
ATOM      5  C   UNL     1       6.271   5.063  15.464  0.00  0.00    +0.000 A 
ATOM      6  C   UNL     1       5.996   3.891  16.184  0.00  0.00    +0.000 A 
ATOM      7  C   UNL     1       4.979   3.862  17.147  0.00  0.00    +0.000 A 
ATOM      8  C   UNL     1       4.259   5.029  17.376  0.00  0.00    +0.000 A 
ATOM      9  C   UNL     1       3.112   5.331  18.323  0.00  0.00    +0.000 C 
ATOM     10  C   UNL     1       1.820   4.684  17.817  0.00  0.00    +0.000 C 
ATOM     11  C   UNL     1       3.458   4.867  19.734  0.00  0.00    +0.000 C 
ENDROOT
BRANCH   1  13
ATOM     12  C   UNL     1       1.459   8.884  18.223  0.00  0.00    +0.000 C 
ATOM     13  C   UNL     1       2.141   7.852  18.741  0.00  0.00    +0.000 C 
BRANCH  12  18
ATOM     14  C   UNL     1      -1.909  12.387  21.443  0.00  0.00    +0.000 C 
ATOM     15  C   UNL     1      -1.030  11.492  20.609  0.00  0.00    +0.000 A 
ATOM     16  C   UNL     1      -1.320  11.246  19.265  0.00  0.00    +0.000 A 
ATOM     17  C   UNL     1      -0.500  10.401  18.498  0.00  0.00    +0.000 A 
ATOM     18  C   UNL     1       0.628   9.789  19.059  0.00  0.00    +0.000 A 
ATOM     19  C   UNL     1       0.903  10.037  20.413  0.00  0.00    +0.000 A 
ATOM     20  C   UNL     1       0.088  10.886  21.180  0.00  0.00    +0.000 A 
ENDBRANCH  12  18
ENDBRANCH   1  13
TORSDOF 2
ENDMDL
MODEL 8
REMARK VINA RESULT:      -7.2      1.774      2.232
REMARK  Name = 
REMARK  5 active torsions:
REMARK  status: ('A' for Active; 'I' for Inactive)
REMARK    1  A    between atoms: C_1  and  C_2
REMARK    2  A    between atoms: C_5  and  C_6
REMARK    3  A    between atoms: C_7  and  C_8
REMARK    4  A    between atoms: C_16  and  C_17
REMARK    5  A    between atoms: C_16  and  C_18
REMARK                            x       y       z     vdW  Elec       q    Type
REMARK                         _______ _______ _______ _____ _____    ______ ____
ROOT
ATOM      1  C   UNL     1       2.922   7.106  18.114  0.00  0.00    +0.000 C 
ATOM      2  N   UNL     1       3.910   7.565  17.385  0.00  0.00    +0.000 NA
ATOM      3  C   UNL     1       4.852   6.537  17.282  0.00  0.00    +0.000 A 
ATOM      4  C   UNL     1       6.054   6.614  16.609  0.00  0.00    +0.000 A 
ATOM      5  C   UNL     1       6.929   5.529  16.684  0.00  0.00    +0.000 A 
ATOM      6  C   UNL     1       6.588   4.396  17.438  0.00  0.00    +0.000 A 
ATOM      7  C   UNL     1       5.350   4.312  18.088  0.00  0.00    +0.000 A 
ATOM      8  C   UNL     1       4.475   5.386  17.975  0.00  0.00    +0.000 A 
ATOM      9  C   UNL     1       3.083   5.610  18.536  0.00  0.00    +0.000 C 
ATOM     10  C   UNL     1       2.062   4.753  17.783  0.00  0.00    +0.000 C 
ATOM     11  C   UNL     1       3.065   5.318  20.033  0.00  0.00    +0.000 C 
ENDROOT
BRANCH   1  13
ATOM     12  C   UNL     1       1.537   9.259  17.967  0.00  0.00    +0.000 C 
ATOM     13  C   UNL     1       1.771   8.003  18.376  0.00  0.00    +0.000 C 
BRANCH  12  18
ATOM     14  C   UNL     1      -3.129  12.341  19.614  0.00  0.00    +0.000 C 
ATOM     15  C   UNL     1      -1.927  11.534  19.195  0.00  0.00    +0.000 A 
ATOM     16  C   UNL     1      -0.713  11.643  19.876  0.00  0.00    +0.000 A 
ATOM     17  C   UNL     1       0.405  10.894  19.470  0.00  0.00    +0.000 A 
ATOM     18  C   UNL     1       0.328  10.018  18.381  0.00  0.00    +0.000 A 
ATOM     19  C   UNL     1      -0.896   9.925  17.699  0.00  0.00    +0.000 A 
ATOM     20  C   UNL     1      -2.015  10.668  18.106  0.00  0.00    +0.000 A 
ENDBRANCH  12  18
ENDBRANCH   1  13
TORSDOF 2
ENDMDL
MODEL 9
REMARK VINA RESULT:      -7.2      1.645      8.257
REMARK  Name = 
REMARK  5 active torsions:
REMARK  status: ('A' for Active; 'I' for Inactive)
REMARK    1  A    between atoms: C_1  and  C_2
REMARK    2  A    between atoms: C_5  and  C_6
REMARK    3  A    between atoms: C_7  and  C_8
REMARK    4  A    between atoms: C_16  and  C_17
REMARK    5  A    between atoms: C_16  and  C_18
REMARK                            x       y       z     vdW  Elec       q    Type
REMARK                         _______ _______ _______ _____ _____    ______ ____
ROOT
ATOM      1  C   UNL     1       0.787   9.453  20.157  0.00  0.00    +0.000 C 
ATOM      2  N   UNL     1       0.419   9.297  21.405  0.00  0.00    +0.000 NA
ATOM      3  C   UNL     1      -0.385  10.394  21.732  0.00  0.00    +0.000 A 
ATOM      4  C   UNL     1      -0.968  10.624  22.962  0.00  0.00    +0.000 A 
ATOM      5  C   UNL     1      -1.663  11.818  23.155  0.00  0.00    +0.000 A 
ATOM      6  C   UNL     1      -1.753  12.760  22.119  0.00  0.00    +0.000 A 
ATOM      7  C   UNL     1      -1.190  12.502  20.863  0.00  0.00    +0.000 A 
ATOM      8  C   UNL     1      -0.531  11.293  20.675  0.00  0.00    +0.000 A 
ATOM      9  C   UNL     1       0.169  10.709  19.461  0.00  0.00    +0.000 C 
ATOM     10  C   UNL     1      -0.860  10.262  18.419  0.00  0.00    +0.000 C 
ATOM     11  C   UNL     1       1.152  11.722  18.882  0.00  0.00    +0.000 C 
ENDROOT
BRANCH   1  13
ATOM     12  C   UNL     1       2.111   8.291  18.294  0.00  0.00    +0.000 C 
ATOM     13  C   UNL     1       1.652   8.414  19.548  0.00  0.00    +0.000 C 
BRANCH  12  18
ATOM     14  C   UNL     1       5.251   3.699  16.552  0.00  0.00    +0.000 C 
ATOM     15  C   UNL     1       4.446   4.886  17.013  0.00  0.00    +0.000 A 
ATOM     16  C   UNL     1       3.207   4.720  17.634  0.00  0.00    +0.000 A 
ATOM     17  C   UNL     1       2.459   5.834  18.051  0.00  0.00    +0.000 A 
ATOM     18  C   UNL     1       2.940   7.136  17.860  0.00  0.00    +0.000 A 
ATOM     19  C   UNL     1       4.183   7.289  17.226  0.00  0.00    +0.000 A 
ATOM     20  C   UNL     1       4.934   6.177  16.813  0.00  0.00    +0.000 A 
ENDBRANCH  12  18
ENDBRANCH   1  13
TORSDOF 2
ENDMDL
