MODEL 1
REMARK VINA RESULT:      -8.2      0.000      0.000
REMARK  Name = 
REMARK  13 active torsions:
REMARK  status: ('A' for Active; 'I' for Inactive)
REMARK    1  A    between atoms: C_1  and  C_2
REMARK    2  A    between atoms: C_3  and  C_4
REMARK    3  A    between atoms: C_5  and  C_6
REMARK    4  A    between atoms: C_6  and  C_7
REMARK    5  A    between atoms: C_8  and  C_9
REMARK    6  A    between atoms: C_10  and  C_11
REMARK    7  A    between atoms: C_11  and  C_12
REMARK    8  A    between atoms: C_13  and  C_14
REMARK    9  A    between atoms: C_14  and  C_16
REMARK   10  A    between atoms: C_16  and  C_17
REMARK   11  A    between atoms: C_20  and  O_21
REMARK   12  A    between atoms: C_24  and  C_25
REMARK   13  A    between atoms: C_24  and  C_26
REMARK                            x       y       z     vdW  Elec       q    Type
REMARK                         _______ _______ _______ _____ _____    ______ ____
ROOT
ATOM      1  C   UNL     1       8.820   9.290  18.243  0.00  0.00    +0.000 C 
ATOM      2  C   UNL     1       7.676   8.721  17.823  0.00  0.00    +0.000 C 
ENDROOT
BRANCH   1   5
ATOM      3  C   UNL     1       9.308  11.457  19.465  0.00  0.00    +0.000 C 
ATOM      4  C   UNL     1       9.342  10.819  20.836  0.00  0.00    +0.000 C 
ATOM      5  C   UNL     1       9.095  10.720  18.353  0.00  0.00    +0.000 C 
BRANCH   3   7
ATOM      6  C   UNL     1       8.952  13.709  18.392  0.00  0.00    +0.000 C 
ATOM      7  C   UNL     1       9.468  12.919  19.354  0.00  0.00    +0.000 C 
BRANCH   6  10
ATOM      8  C   UNL     1      11.280  14.945  16.934  0.00  0.00    +0.000 C 
ATOM      9  C   UNL     1      10.192  15.715  17.642  0.00  0.00    +0.000 C 
ATOM     10  C   UNL     1       9.120  15.161  18.264  0.00  0.00    +0.000 C 
ATOM     11  C   UNL     1       7.940  16.021  18.791  0.00  0.00    +0.000 C 
ATOM     12  C   UNL     1       6.563  15.500  18.313  0.00  0.00    +0.000 C 
ATOM     13  C   UNL     1       7.944  16.017  20.335  0.00  0.00    +0.000 C 
ATOM     14  C   UNL     1       8.033  17.488  18.285  0.00  0.00    +0.000 C 
ATOM     15  C   UNL     1       9.443  18.042  18.388  0.00  0.00    +0.000 C 
ATOM     16  C   UNL     1      10.388  17.214  17.529  0.00  0.00    +0.000 C 
ENDBRANCH   6  10
ENDBRANCH   3   7
ENDBRANCH   1   5
BRANCH   2  17
ATOM     17  C   UNL     1       7.473   7.289  17.654  0.00  0.00    +0.000 C 
ATOM     18  C   UNL     1       7.881   6.450  18.842  0.00  0.00    +0.000 C 
ATOM     19  C   UNL     1       7.028   6.779  16.492  0.00  0.00    +0.000 C 
BRANCH  19  20
ATOM     20  C   UNL     1       6.859   5.314  16.238  0.00  0.00    +0.000 C 
ATOM     21  O   UNL     1       7.817   4.552  16.130  0.00  0.00    +0.000 OA
BRANCH  20  22
ATOM     22  C   UNL     1       5.433   4.799  16.132  0.00  0.00    +0.000 C 
BRANCH  22  23
ATOM     23  C   UNL     1       4.679   4.915  17.431  0.00  0.00    +0.000 A 
ATOM     24  C   UNL     1       4.852   3.959  18.442  0.00  0.00    +0.000 A 
ATOM     25  C   UNL     1       4.132   4.053  19.638  0.00  0.00    +0.000 A 
ATOM     26  C   UNL     1       3.246   5.109  19.822  0.00  0.00    +0.000 A 
ATOM     27  C   UNL     1       3.081   6.080  18.844  0.00  0.00    +0.000 A 
ATOM     28  C   UNL     1       3.801   5.987  17.652  0.00  0.00    +0.000 A 
BRANCH  26  29
ATOM     29  O   UNL     1       2.509   5.226  20.964  0.00  0.00    +0.000 OA
ATOM     30  H   UNL     1       1.892   5.968  20.858  0.00  0.00    +0.000 HD
ENDBRANCH  26  29
ENDBRANCH  22  23
ENDBRANCH  20  22
ENDBRANCH  19  20
ENDBRANCH   2  17
TORSDOF 8
ENDMDL
MODEL 2
REMARK VINA RESULT:      -8.0      1.083      1.547
REMARK  Name = 
REMARK  13 active torsions:
REMARK  status: ('A' for Active; 'I' for Inactive)
REMARK    1  A    between atoms: C_1  and  C_2
REMARK    2  A    between atoms: C_3  and  C_4
REMARK    3  A    between atoms: C_5  and  C_6
REMARK    4  A    between atoms: C_6  and  C_7
REMARK    5  A    between atoms: C_8  and  C_9
REMARK    6  A    between atoms: C_10  and  C_11
REMARK    7  A    between atoms: C_11  and  C_12
REMARK    8  A    between atoms: C_13  and  C_14
REMARK    9  A    between atoms: C_14  and  C_16
REMARK   10  A    between atoms: C_16  and  C_17
REMARK   11  A    between atoms: C_20  and  O_21
REMARK   12  A    between atoms: C_24  and  C_25
REMARK   13  A    between atoms: C_24  and  C_26
REMARK                            x       y       z     vdW  Elec       q    Type
REMARK                         _______ _______ _______ _____ _____    ______ ____
ROOT
ATOM      1  C   UNL     1       8.698   9.178  18.305  0.00  0.00    +0.000 C 
ATOM      2  C   UNL     1       7.726   8.512  17.658  0.00  0.00    +0.000 C 
ENDROOT
BRANCH   1   5
ATOM      3  C   UNL     1       9.312  11.464  19.212  0.00  0.00    +0.000 C 
ATOM      4  C   UNL     1       9.494  10.987  20.636  0.00  0.00    +0.000 C 
ATOM      5  C   UNL     1       8.982  10.608  18.220  0.00  0.00    +0.000 C 
BRANCH   3   7
ATOM      6  C   UNL     1      10.276  13.769  19.547  0.00  0.00    +0.000 C 
ATOM      7  C   UNL     1       9.458  12.902  18.918  0.00  0.00    +0.000 C 
BRANCH   6  10
ATOM      8  C   UNL     1      11.261  14.822  16.902  0.00  0.00    +0.000 C 
ATOM      9  C   UNL     1      10.898  15.673  18.094  0.00  0.00    +0.000 C 
ATOM     10  C   UNL     1      10.414  15.203  19.272  0.00  0.00    +0.000 C 
ATOM     11  C   UNL     1       9.872  16.152  20.375  0.00  0.00    +0.000 C 
ATOM     12  C   UNL     1       8.467  15.737  20.879  0.00  0.00    +0.000 C 
ATOM     13  C   UNL     1      10.834  16.148  21.582  0.00  0.00    +0.000 C 
ATOM     14  C   UNL     1       9.717  17.607  19.850  0.00  0.00    +0.000 C 
ATOM     15  C   UNL     1      10.916  18.052  19.031  0.00  0.00    +0.000 C 
ATOM     16  C   UNL     1      11.070  17.153  17.812  0.00  0.00    +0.000 C 
ENDBRANCH   6  10
ENDBRANCH   3   7
ENDBRANCH   1   5
BRANCH   2  17
ATOM     17  C   UNL     1       7.529   7.070  17.711  0.00  0.00    +0.000 C 
ATOM     18  C   UNL     1       7.891   6.433  19.031  0.00  0.00    +0.000 C 
ATOM     19  C   UNL     1       7.127   6.379  16.629  0.00  0.00    +0.000 C 
BRANCH  19  20
ATOM     20  C   UNL     1       6.968   4.892  16.605  0.00  0.00    +0.000 C 
ATOM     21  O   UNL     1       7.926   4.127  16.694  0.00  0.00    +0.000 OA
BRANCH  20  22
ATOM     22  C   UNL     1       5.551   4.359  16.480  0.00  0.00    +0.000 C 
BRANCH  22  23
ATOM     23  C   UNL     1       4.635   4.893  17.550  0.00  0.00    +0.000 A 
ATOM     24  C   UNL     1       3.838   6.020  17.306  0.00  0.00    +0.000 A 
ATOM     25  C   UNL     1       3.006   6.531  18.308  0.00  0.00    +0.000 A 
ATOM     26  C   UNL     1       2.969   5.906  19.550  0.00  0.00    +0.000 A 
ATOM     27  C   UNL     1       3.729   4.773  19.802  0.00  0.00    +0.000 A 
ATOM     28  C   UNL     1       4.557   4.263  18.801  0.00  0.00    +0.000 A 
BRANCH  26  29
ATOM     29  O   UNL     1       2.188   6.384  20.562  0.00  0.00    +0.000 OA
ATOM     30  H   UNL     1       2.498   7.273  20.798  0.00  0.00    +0.000 HD
ENDBRANCH  26  29
ENDBRANCH  22  23
ENDBRANCH  20  22
ENDBRANCH  19  20
ENDBRANCH   2  17
TORSDOF 8
ENDMDL
MODEL 3
REMARK VINA RESULT:      -7.8      1.598      2.211
REMARK  Name = 
REMARK  13 active torsions:
REMARK  status: ('A' for Active; 'I' for Inactive)
REMARK    1  A    between atoms: C_1  and  C_2
REMARK    2  A    between atoms: C_3  and  C_4
REMARK    3  A    between atoms: C_5  and  C_6
REMARK    4  A    between atoms: C_6  and  C_7
REMARK    5  A    between atoms: C_8  and  C_9
REMARK    6  A    between atoms: C_10  and  C_11
REMARK    7  A    between atoms: C_11  and  C_12
REMARK    8  A    between atoms: C_13  and  C_14
REMARK    9  A    between atoms: C_14  and  C_16
REMARK   10  A    between atoms: C_16  and  C_17
REMARK   11  A    between atoms: C_20  and  O_21
REMARK   12  A    between atoms: C_24  and  C_25
REMARK   13  A    between atoms: C_24  and  C_26
REMARK                            x       y       z     vdW  Elec       q    Type
REMARK                         _______ _______ _______ _____ _____    ______ ____
ROOT
ATOM      1  C   UNL     1       8.309   9.035  18.265  0.00  0.00    +0.000 C 
ATOM      2  C   UNL     1       7.367   8.642  17.390  0.00  0.00    +0.000 C 
ENDROOT
BRANCH   1   5
ATOM      3  C   UNL     1       9.389  11.069  19.326  0.00  0.00    +0.000 C 
ATOM      4  C   UNL     1       9.136  10.614  20.746  0.00  0.00    +0.000 C 
ATOM      5  C   UNL     1       9.019  10.311  18.270  0.00  0.00    +0.000 C 
BRANCH   3   7
ATOM      6  C   UNL     1       9.714  13.252  18.110  0.00  0.00    +0.000 C 
ATOM      7  C   UNL     1      10.012  12.385  19.098  0.00  0.00    +0.000 C 
BRANCH   6  10
ATOM      8  C   UNL     1      12.333  13.539  16.650  0.00  0.00    +0.000 C 
ATOM      9  C   UNL     1      11.541  14.678  17.244  0.00  0.00    +0.000 C 
ATOM     10  C   UNL     1      10.341  14.556  17.865  0.00  0.00    +0.000 C 
ATOM     11  C   UNL     1       9.493  15.792  18.268  0.00  0.00    +0.000 C 
ATOM     12  C   UNL     1       8.027  15.694  17.779  0.00  0.00    +0.000 C 
ATOM     13  C   UNL     1       9.477  15.933  19.805  0.00  0.00    +0.000 C 
ATOM     14  C   UNL     1      10.058  17.099  17.643  0.00  0.00    +0.000 C 
ATOM     15  C   UNL     1      11.570  17.182  17.757  0.00  0.00    +0.000 C 
ATOM     16  C   UNL     1      12.209  16.020  17.012  0.00  0.00    +0.000 C 
ENDBRANCH   6  10
ENDBRANCH   3   7
ENDBRANCH   1   5
BRANCH   2  17
ATOM     17  C   UNL     1       6.742   7.326  17.376  0.00  0.00    +0.000 C 
ATOM     18  C   UNL     1       5.481   7.237  16.551  0.00  0.00    +0.000 C 
ATOM     19  C   UNL     1       7.233   6.313  18.111  0.00  0.00    +0.000 C 
BRANCH  19  20
ATOM     20  C   UNL     1       6.600   4.959  18.186  0.00  0.00    +0.000 C 
ATOM     21  O   UNL     1       6.779   4.102  17.324  0.00  0.00    +0.000 OA
BRANCH  20  22
ATOM     22  C   UNL     1       5.727   4.679  19.398  0.00  0.00    +0.000 C 
BRANCH  22  23
ATOM     23  C   UNL     1       4.461   3.944  19.042  0.00  0.00    +0.000 A 
ATOM     24  C   UNL     1       3.436   4.592  18.338  0.00  0.00    +0.000 A 
ATOM     25  C   UNL     1       2.251   3.917  18.030  0.00  0.00    +0.000 A 
ATOM     26  C   UNL     1       2.097   2.591  18.421  0.00  0.00    +0.000 A 
ATOM     27  C   UNL     1       3.111   1.924  19.094  0.00  0.00    +0.000 A 
ATOM     28  C   UNL     1       4.294   2.598  19.400  0.00  0.00    +0.000 A 
BRANCH  26  29
ATOM     29  O   UNL     1       0.949   1.902  18.159  0.00  0.00    +0.000 OA
ATOM     30  H   UNL     1       0.821   1.869  17.198  0.00  0.00    +0.000 HD
ENDBRANCH  26  29
ENDBRANCH  22  23
ENDBRANCH  20  22
ENDBRANCH  19  20
ENDBRANCH   2  17
TORSDOF 8
ENDMDL
MODEL 4
REMARK VINA RESULT:      -7.6      4.345      6.532
REMARK  Name = 
REMARK  13 active torsions:
REMARK  status: ('A' for Active; 'I' for Inactive)
REMARK    1  A    between atoms: C_1  and  C_2
REMARK    2  A    between atoms: C_3  and  C_4
REMARK    3  A    between atoms: C_5  and  C_6
REMARK    4  A    between atoms: C_6  and  C_7
REMARK    5  A    between atoms: C_8  and  C_9
REMARK    6  A    between atoms: C_10  and  C_11
REMARK    7  A    between atoms: C_11  and  C_12
REMARK    8  A    between atoms: C_13  and  C_14
REMARK    9  A    between atoms: C_14  and  C_16
REMARK   10  A    between atoms: C_16  and  C_17
REMARK   11  A    between atoms: C_20  and  O_21
REMARK   12  A    between atoms: C_24  and  C_25
REMARK   13  A    between atoms: C_24  and  C_26
REMARK                            x       y       z     vdW  Elec       q    Type
REMARK                         _______ _______ _______ _____ _____    ______ ____
ROOT
ATOM      1  C   UNL     1       1.939   8.276  18.050  0.00  0.00    +0.000 C 
ATOM      2  C   UNL     1       2.445   7.460  18.992  0.00  0.00    +0.000 C 
ENDROOT
BRANCH   1   5
ATOM      3  C   UNL     1       1.329  10.594  18.874  0.00  0.00    +0.000 C 
ATOM      4  C   UNL     1       0.474  10.096  20.018  0.00  0.00    +0.000 C 
ATOM      5  C   UNL     1       1.971   9.736  18.051  0.00  0.00    +0.000 C 
BRANCH   3   7
ATOM      6  C   UNL     1       1.547  13.007  19.569  0.00  0.00    +0.000 C 
ATOM      7  C   UNL     1       1.422  12.046  18.632  0.00  0.00    +0.000 C 
BRANCH   6  10
ATOM      8  C   UNL     1      -0.896  14.769  19.530  0.00  0.00    +0.000 C 
ATOM      9  C   UNL     1       0.517  15.238  19.281  0.00  0.00    +0.000 C 
ATOM     10  C   UNL     1       1.623  14.454  19.339  0.00  0.00    +0.000 C 
ATOM     11  C   UNL     1       3.056  15.047  19.272  0.00  0.00    +0.000 C 
ATOM     12  C   UNL     1       3.964  14.541  20.420  0.00  0.00    +0.000 C 
ATOM     13  C   UNL     1       3.717  14.659  17.932  0.00  0.00    +0.000 C 
ATOM     14  C   UNL     1       3.039  16.596  19.402  0.00  0.00    +0.000 C 
ATOM     15  C   UNL     1       1.947  17.230  18.558  0.00  0.00    +0.000 C 
ATOM     16  C   UNL     1       0.584  16.729  19.016  0.00  0.00    +0.000 C 
ENDBRANCH   6  10
ENDBRANCH   3   7
ENDBRANCH   1   5
BRANCH   2  17
ATOM     17  C   UNL     1       2.321   6.009  18.988  0.00  0.00    +0.000 C 
ATOM     18  C   UNL     1       2.354   5.371  20.356  0.00  0.00    +0.000 C 
ATOM     19  C   UNL     1       2.259   5.316  17.837  0.00  0.00    +0.000 C 
BRANCH  19  20
ATOM     20  C   UNL     1       2.194   3.822  17.769  0.00  0.00    +0.000 C 
ATOM     21  O   UNL     1       1.130   3.209  17.825  0.00  0.00    +0.000 OA
BRANCH  20  22
ATOM     22  C   UNL     1       3.514   3.087  17.610  0.00  0.00    +0.000 C 
BRANCH  22  23
ATOM     23  C   UNL     1       4.657   4.014  17.288  0.00  0.00    +0.000 A 
ATOM     24  C   UNL     1       5.540   4.431  18.294  0.00  0.00    +0.000 A 
ATOM     25  C   UNL     1       6.587   5.311  17.999  0.00  0.00    +0.000 A 
ATOM     26  C   UNL     1       6.751   5.766  16.695  0.00  0.00    +0.000 A 
ATOM     27  C   UNL     1       5.904   5.342  15.680  0.00  0.00    +0.000 A 
ATOM     28  C   UNL     1       4.862   4.463  15.974  0.00  0.00    +0.000 A 
BRANCH  26  29
ATOM     29  O   UNL     1       7.745   6.641  16.368  0.00  0.00    +0.000 OA
ATOM     30  H   UNL     1       8.536   6.417  16.884  0.00  0.00    +0.000 HD
ENDBRANCH  26  29
ENDBRANCH  22  23
ENDBRANCH  20  22
ENDBRANCH  19  20
ENDBRANCH   2  17
TORSDOF 8
ENDMDL
MODEL 5
REMARK VINA RESULT:      -7.6      5.517      7.996
REMARK  Name = 
REMARK  13 active torsions:
REMARK  status: ('A' for Active; 'I' for Inactive)
REMARK    1  A    between atoms: C_1  and  C_2
REMARK    2  A    between atoms: C_3  and  C_4
REMARK    3  A    between atoms: C_5  and  C_6
REMARK    4  A    between atoms: C_6  and  C_7
REMARK    5  A    between atoms: C_8  and  C_9
REMARK    6  A    between atoms: C_10  and  C_11
REMARK    7  A    between atoms: C_11  and  C_12
REMARK    8  A    between atoms: C_13  and  C_14
REMARK    9  A    between atoms: C_14  and  C_16
REMARK   10  A    between atoms: C_16  and  C_17
REMARK   11  A    between atoms: C_20  and  O_21
REMARK   12  A    between atoms: C_24  and  C_25
REMARK   13  A    between atoms: C_24  and  C_26
REMARK                            x       y       z     vdW  Elec       q    Type
REMARK                         _______ _______ _______ _____ _____    ______ ____
ROOT
ATOM      1  C   UNL     1       1.861   6.817  20.240  0.00  0.00    +0.000 C 
ATOM      2  C   UNL     1       1.608   5.586  20.720  0.00  0.00    +0.000 C 
ENDROOT
BRANCH   1   5
ATOM      3  C   UNL     1       1.157   9.252  20.232  0.00  0.00    +0.000 C 
ATOM      4  C   UNL     1       1.131   9.367  18.724  0.00  0.00    +0.000 C 
ATOM      5  C   UNL     1       1.465   8.087  20.842  0.00  0.00    +0.000 C 
BRANCH   3   7
ATOM      6  C   UNL     1       0.039  11.456  20.727  0.00  0.00    +0.000 C 
ATOM      7  C   UNL     1       0.881  10.452  21.043  0.00  0.00    +0.000 C 
BRANCH   6  10
ATOM      8  C   UNL     1      -1.681  11.416  23.200  0.00  0.00    +0.000 C 
ATOM      9  C   UNL     1      -1.037  12.648  22.610  0.00  0.00    +0.000 C 
ATOM     10  C   UNL     1      -0.228  12.661  21.520  0.00  0.00    +0.000 C 
ATOM     11  C   UNL     1       0.558  13.930  21.096  0.00  0.00    +0.000 C 
ATOM     12  C   UNL     1       2.063  13.648  20.863  0.00  0.00    +0.000 C 
ATOM     13  C   UNL     1      -0.032  14.493  19.786  0.00  0.00    +0.000 C 
ATOM     14  C   UNL     1       0.502  15.030  22.194  0.00  0.00    +0.000 C 
ATOM     15  C   UNL     1      -0.894  15.195  22.770  0.00  0.00    +0.000 C 
ATOM     16  C   UNL     1      -1.341  13.893  23.419  0.00  0.00    +0.000 C 
ENDBRANCH   6  10
ENDBRANCH   3   7
ENDBRANCH   1   5
BRANCH   2  17
ATOM     17  C   UNL     1       1.952   4.343  20.044  0.00  0.00    +0.000 C 
ATOM     18  C   UNL     1       2.127   3.156  20.960  0.00  0.00    +0.000 C 
ATOM     19  C   UNL     1       2.166   4.306  18.717  0.00  0.00    +0.000 C 
BRANCH  19  20
ATOM     20  C   UNL     1       2.582   3.074  17.976  0.00  0.00    +0.000 C 
ATOM     21  O   UNL     1       1.767   2.299  17.481  0.00  0.00    +0.000 OA
BRANCH  20  22
ATOM     22  C   UNL     1       4.076   2.827  17.847  0.00  0.00    +0.000 C 
BRANCH  22  23
ATOM     23  C   UNL     1       4.848   4.088  17.560  0.00  0.00    +0.000 A 
ATOM     24  C   UNL     1       4.752   4.711  16.307  0.00  0.00    +0.000 A 
ATOM     25  C   UNL     1       5.489   5.868  16.032  0.00  0.00    +0.000 A 
ATOM     26  C   UNL     1       6.315   6.403  17.015  0.00  0.00    +0.000 A 
ATOM     27  C   UNL     1       6.402   5.817  18.270  0.00  0.00    +0.000 A 
ATOM     28  C   UNL     1       5.665   4.664  18.544  0.00  0.00    +0.000 A 
BRANCH  26  29
ATOM     29  O   UNL     1       7.066   7.517  16.781  0.00  0.00    +0.000 OA
ATOM     30  H   UNL     1       6.745   7.942  15.970  0.00  0.00    +0.000 HD
ENDBRANCH  26  29
ENDBRANCH  22  23
ENDBRANCH  20  22
ENDBRANCH  19  20
ENDBRANCH   2  17
TORSDOF 8
ENDMDL
MODEL 6
REMARK VINA RESULT:      -7.5      0.779      1.954
REMARK  Name = 
REMARK  13 active torsions:
REMARK  status: ('A' for Active; 'I' for Inactive)
REMARK    1  A    between atoms: C_1  and  C_2
REMARK    2  A    between atoms: C_3  and  C_4
REMARK    3  A    between atoms: C_5  and  C_6
REMARK    4  A    between atoms: C_6  and  C_7
REMARK    5  A    between atoms: C_8  and  C_9
REMARK    6  A    between atoms: C_10  and  C_11
REMARK    7  A    between atoms: C_11  and  C_12
REMARK    8  A    between atoms: C_13  and  C_14
REMARK    9  A    between atoms: C_14  and  C_16
REMARK   10  A    between atoms: C_16  and  C_17
REMARK   11  A    between atoms: C_20  and  O_21
REMARK   12  A    between atoms: C_24  and  C_25
REMARK   13  A    between atoms: C_24  and  C_26
REMARK                            x       y       z     vdW  Elec       q    Type
REMARK                         _______ _______ _______ _____ _____    ______ ____
ROOT
ATOM      1  C   UNL     1       8.636   9.389  18.174  0.00  0.00    +0.000 C 
ATOM      2  C   UNL     1       7.515   8.736  17.819  0.00  0.00    +0.000 C 
ENDROOT
BRANCH   1   5
ATOM      3  C   UNL     1       9.942  11.547  18.423  0.00  0.00    +0.000 C 
ATOM      4  C   UNL     1      11.297  10.876  18.380  0.00  0.00    +0.000 C 
ATOM      5  C   UNL     1       8.801  10.834  18.303  0.00  0.00    +0.000 C 
BRANCH   3   7
ATOM      6  C   UNL     1       9.167  13.892  17.918  0.00  0.00    +0.000 C 
ATOM      7  C   UNL     1       9.874  13.004  18.644  0.00  0.00    +0.000 C 
BRANCH   6  10
ATOM      8  C   UNL     1       6.593  15.336  18.521  0.00  0.00    +0.000 C 
ATOM      9  C   UNL     1       7.939  15.996  18.351  0.00  0.00    +0.000 C 
ATOM     10  C   UNL     1       9.107  15.343  18.120  0.00  0.00    +0.000 C 
ATOM     11  C   UNL     1      10.477  16.071  18.160  0.00  0.00    +0.000 C 
ATOM     12  C   UNL     1      11.508  15.349  19.062  0.00  0.00    +0.000 C 
ATOM     13  C   UNL     1      11.063  16.155  16.734  0.00  0.00    +0.000 C 
ATOM     14  C   UNL     1      10.344  17.507  18.741  0.00  0.00    +0.000 C 
ATOM     15  C   UNL     1       9.142  18.245  18.177  0.00  0.00    +0.000 C 
ATOM     16  C   UNL     1       7.864  17.500  18.534  0.00  0.00    +0.000 C 
ENDBRANCH   6  10
ENDBRANCH   3   7
ENDBRANCH   1   5
BRANCH   2  17
ATOM     17  C   UNL     1       7.418   7.296  17.626  0.00  0.00    +0.000 C 
ATOM     18  C   UNL     1       8.010   6.469  18.742  0.00  0.00    +0.000 C 
ATOM     19  C   UNL     1       6.905   6.776  16.497  0.00  0.00    +0.000 C 
BRANCH  19  20
ATOM     20  C   UNL     1       6.836   5.308  16.215  0.00  0.00    +0.000 C 
ATOM     21  O   UNL     1       7.842   4.625  16.040  0.00  0.00    +0.000 OA
BRANCH  20  22
ATOM     22  C   UNL     1       5.450   4.686  16.169  0.00  0.00    +0.000 C 
BRANCH  22  23
ATOM     23  C   UNL     1       4.693   4.863  17.459  0.00  0.00    +0.000 A 
ATOM     24  C   UNL     1       4.896   3.981  18.530  0.00  0.00    +0.000 A 
ATOM     25  C   UNL     1       4.174   4.131  19.719  0.00  0.00    +0.000 A 
ATOM     26  C   UNL     1       3.256   5.169  19.836  0.00  0.00    +0.000 A 
ATOM     27  C   UNL     1       3.062   6.069  18.797  0.00  0.00    +0.000 A 
ATOM     28  C   UNL     1       3.783   5.920  17.612  0.00  0.00    +0.000 A 
BRANCH  26  29
ATOM     29  O   UNL     1       2.516   5.339  20.969  0.00  0.00    +0.000 OA
ATOM     30  H   UNL     1       1.582   5.187  20.754  0.00  0.00    +0.000 HD
ENDBRANCH  26  29
ENDBRANCH  22  23
ENDBRANCH  20  22
ENDBRANCH  19  20
ENDBRANCH   2  17
TORSDOF 8
ENDMDL
MODEL 7
REMARK VINA RESULT:      -7.5      1.580      2.674
REMARK  Name = 
REMARK  13 active torsions:
REMARK  status: ('A' for Active; 'I' for Inactive)
REMARK    1  A    between atoms: C_1  and  C_2
REMARK    2  A    between atoms: C_3  and  C_4
REMARK    3  A    between atoms: C_5  and  C_6
REMARK    4  A    between atoms: C_6  and  C_7
REMARK    5  A    between atoms: C_8  and  C_9
REMARK    6  A    between atoms: C_10  and  C_11
REMARK    7  A    between atoms: C_11  and  C_12
REMARK    8  A    between atoms: C_13  and  C_14
REMARK    9  A    between atoms: C_14  and  C_16
REMARK   10  A    between atoms: C_16  and  C_17
REMARK   11  A    between atoms: C_20  and  O_21
REMARK   12  A    between atoms: C_24  and  C_25
REMARK   13  A    between atoms: C_24  and  C_26
REMARK                            x       y       z     vdW  Elec       q    Type
REMARK                         _______ _______ _______ _____ _____    ______ ____
ROOT
ATOM      1  C   UNL     1       8.225   8.452  17.763  0.00  0.00    +0.000 C 
ATOM      2  C   UNL     1       7.026   7.861  17.615  0.00  0.00    +0.000 C 
ENDROOT
BRANCH   1   5
ATOM      3  C   UNL     1       9.037  10.739  18.495  0.00  0.00    +0.000 C 
ATOM      4  C   UNL     1       9.444  10.287  19.880  0.00  0.00    +0.000 C 
ATOM      5  C   UNL     1       8.524   9.872  17.595  0.00  0.00    +0.000 C 
BRANCH   3   7
ATOM      6  C   UNL     1       9.418  13.180  18.994  0.00  0.00    +0.000 C 
ATOM      7  C   UNL     1       9.166  12.166  18.144  0.00  0.00    +0.000 C 
BRANCH   6  10
ATOM      8  C   UNL     1       7.080  15.072  19.167  0.00  0.00    +0.000 C 
ATOM      9  C   UNL     1       8.465  15.444  18.696  0.00  0.00    +0.000 C 
ATOM     10  C   UNL     1       9.530  14.603  18.657  0.00  0.00    +0.000 C 
ATOM     11  C   UNL     1      10.966  15.109  18.354  0.00  0.00    +0.000 C 
ATOM     12  C   UNL     1      12.000  14.624  19.400  0.00  0.00    +0.000 C 
ATOM     13  C   UNL     1      11.414  14.602  16.967  0.00  0.00    +0.000 C 
ATOM     14  C   UNL     1      11.041  16.662  18.378  0.00  0.00    +0.000 C 
ATOM     15  C   UNL     1       9.873  17.303  17.649  0.00  0.00    +0.000 C 
ATOM     16  C   UNL     1       8.566  16.910  18.322  0.00  0.00    +0.000 C 
ENDBRANCH   6  10
ENDBRANCH   3   7
ENDBRANCH   1   5
BRANCH   2  17
ATOM     17  C   UNL     1       6.789   6.428  17.714  0.00  0.00    +0.000 C 
ATOM     18  C   UNL     1       7.807   5.676  18.538  0.00  0.00    +0.000 C 
ATOM     19  C   UNL     1       5.777   5.840  17.051  0.00  0.00    +0.000 C 
BRANCH  19  20
ATOM     20  C   UNL     1       5.521   4.365  17.064  0.00  0.00    +0.000 C 
ATOM     21  O   UNL     1       5.509   3.692  16.036  0.00  0.00    +0.000 OA
BRANCH  20  22
ATOM     22  C   UNL     1       5.288   3.725  18.422  0.00  0.00    +0.000 C 
BRANCH  22  23
ATOM     23  C   UNL     1       3.826   3.538  18.731  0.00  0.00    +0.000 A 
ATOM     24  C   UNL     1       3.124   4.506  19.462  0.00  0.00    +0.000 A 
ATOM     25  C   UNL     1       1.772   4.321  19.771  0.00  0.00    +0.000 A 
ATOM     26  C   UNL     1       1.124   3.169  19.338  0.00  0.00    +0.000 A 
ATOM     27  C   UNL     1       1.794   2.212  18.588  0.00  0.00    +0.000 A 
ATOM     28  C   UNL     1       3.142   2.398  18.280  0.00  0.00    +0.000 A 
BRANCH  26  29
ATOM     29  O   UNL     1      -0.188   2.939  19.635  0.00  0.00    +0.000 OA
ATOM     30  H   UNL     1      -0.282   2.016  19.923  0.00  0.00    +0.000 HD
ENDBRANCH  26  29
ENDBRANCH  22  23
ENDBRANCH  20  22
ENDBRANCH  19  20
ENDBRANCH   2  17
TORSDOF 8
ENDMDL
MODEL 8
REMARK VINA RESULT:      -7.5      4.264      6.389
REMARK  Name = 
REMARK  13 active torsions:
REMARK  status: ('A' for Active; 'I' for Inactive)
REMARK    1  A    between atoms: C_1  and  C_2
REMARK    2  A    between atoms: C_3  and  C_4
REMARK    3  A    between atoms: C_5  and  C_6
REMARK    4  A    between atoms: C_6  and  C_7
REMARK    5  A    between atoms: C_8  and  C_9
REMARK    6  A    between atoms: C_10  and  C_11
REMARK    7  A    between atoms: C_11  and  C_12
REMARK    8  A    between atoms: C_13  and  C_14
REMARK    9  A    between atoms: C_14  and  C_16
REMARK   10  A    between atoms: C_16  and  C_17
REMARK   11  A    between atoms: C_20  and  O_21
REMARK   12  A    between atoms: C_24  and  C_25
REMARK   13  A    between atoms: C_24  and  C_26
REMARK                            x       y       z     vdW  Elec       q    Type
REMARK                         _______ _______ _______ _____ _____    ______ ____
ROOT
ATOM      1  C   UNL     1       2.035   8.315  18.154  0.00  0.00    +0.000 C 
ATOM      2  C   UNL     1       2.358   7.480  19.158  0.00  0.00    +0.000 C 
ENDROOT
BRANCH   1   5
ATOM      3  C   UNL     1       1.170  10.602  18.824  0.00  0.00    +0.000 C 
ATOM      4  C   UNL     1       0.035  10.062  19.666  0.00  0.00    +0.000 C 
ATOM      5  C   UNL     1       2.036   9.775  18.198  0.00  0.00    +0.000 C 
BRANCH   3   7
ATOM      6  C   UNL     1       1.765  12.936  19.565  0.00  0.00    +0.000 C 
ATOM      7  C   UNL     1       1.299  12.061  18.652  0.00  0.00    +0.000 C 
BRANCH   6  10
ATOM      8  C   UNL     1       4.032  14.225  18.058  0.00  0.00    +0.000 C 
ATOM      9  C   UNL     1       2.925  14.969  18.765  0.00  0.00    +0.000 C 
ATOM     10  C   UNL     1       1.881  14.390  19.409  0.00  0.00    +0.000 C 
ATOM     11  C   UNL     1       0.678  15.218  19.935  0.00  0.00    +0.000 C 
ATOM     12  C   UNL     1      -0.686  14.640  19.483  0.00  0.00    +0.000 C 
ATOM     13  C   UNL     1       0.699  15.242  21.479  0.00  0.00    +0.000 C 
ATOM     14  C   UNL     1       0.714  16.678  19.402  0.00  0.00    +0.000 C 
ATOM     15  C   UNL     1       2.105  17.283  19.479  0.00  0.00    +0.000 C 
ATOM     16  C   UNL     1       3.068  16.472  18.623  0.00  0.00    +0.000 C 
ENDBRANCH   6  10
ENDBRANCH   3   7
ENDBRANCH   1   5
BRANCH   2  17
ATOM     17  C   UNL     1       2.266   6.028  19.094  0.00  0.00    +0.000 C 
ATOM     18  C   UNL     1       2.263   5.337  20.436  0.00  0.00    +0.000 C 
ATOM     19  C   UNL     1       2.262   5.380  17.915  0.00  0.00    +0.000 C 
BRANCH  19  20
ATOM     20  C   UNL     1       2.232   3.889  17.787  0.00  0.00    +0.000 C 
ATOM     21  O   UNL     1       1.181   3.255  17.754  0.00  0.00    +0.000 OA
BRANCH  20  22
ATOM     22  C   UNL     1       3.575   3.186  17.682  0.00  0.00    +0.000 C 
BRANCH  22  23
ATOM     23  C   UNL     1       4.703   4.135  17.371  0.00  0.00    +0.000 A 
ATOM     24  C   UNL     1       5.562   4.576  18.387  0.00  0.00    +0.000 A 
ATOM     25  C   UNL     1       6.594   5.476  18.102  0.00  0.00    +0.000 A 
ATOM     26  C   UNL     1       6.768   5.927  16.798  0.00  0.00    +0.000 A 
ATOM     27  C   UNL     1       5.945   5.481  15.774  0.00  0.00    +0.000 A 
ATOM     28  C   UNL     1       4.917   4.581  16.058  0.00  0.00    +0.000 A 
BRANCH  26  29
ATOM     29  O   UNL     1       7.748   6.822  16.481  0.00  0.00    +0.000 OA
ATOM     30  H   UNL     1       8.594   6.484  16.815  0.00  0.00    +0.000 HD
ENDBRANCH  26  29
ENDBRANCH  22  23
ENDBRANCH  20  22
ENDBRANCH  19  20
ENDBRANCH   2  17
TORSDOF 8
ENDMDL
MODEL 9
REMARK VINA RESULT:      -7.4      5.856      8.322
REMARK  Name = 
REMARK  13 active torsions:
REMARK  status: ('A' for Active; 'I' for Inactive)
REMARK    1  A    between atoms: C_1  and  C_2
REMARK    2  A    between atoms: C_3  and  C_4
REMARK    3  A    between atoms: C_5  and  C_6
REMARK    4  A    between atoms: C_6  and  C_7
REMARK    5  A    between atoms: C_8  and  C_9
REMARK    6  A    between atoms: C_10  and  C_11
REMARK    7  A    between atoms: C_11  and  C_12
REMARK    8  A    between atoms: C_13  and  C_14
REMARK    9  A    between atoms: C_14  and  C_16
REMARK   10  A    between atoms: C_16  and  C_17
REMARK   11  A    between atoms: C_20  and  O_21
REMARK   12  A    between atoms: C_24  and  C_25
REMARK   13  A    between atoms: C_24  and  C_26
REMARK                            x       y       z     vdW  Elec       q    Type
REMARK                         _______ _______ _______ _____ _____    ______ ____
ROOT
ATOM      1  C   UNL     1       1.709   7.231  20.500  0.00  0.00    +0.000 C 
ATOM      2  C   UNL     1       1.298   5.978  20.767  0.00  0.00    +0.000 C 
ENDROOT
BRANCH   1   5
ATOM      3  C   UNL     1       0.801   9.597  20.473  0.00  0.00    +0.000 C 
ATOM      4  C   UNL     1       0.796   9.710  18.965  0.00  0.00    +0.000 C 
ATOM      5  C   UNL     1       1.195   8.463  21.092  0.00  0.00    +0.000 C 
BRANCH   3   7
ATOM      6  C   UNL     1      -0.197  11.885  20.823  0.00  0.00    +0.000 C 
ATOM      7  C   UNL     1       0.407  10.769  21.277  0.00  0.00    +0.000 C 
BRANCH   6  10
ATOM      8  C   UNL     1       1.687  14.185  21.303  0.00  0.00    +0.000 C 
ATOM      9  C   UNL     1       0.288  14.078  21.861  0.00  0.00    +0.000 C 
ATOM     10  C   UNL     1      -0.577  13.062  21.612  0.00  0.00    +0.000 C 
ATOM     11  C   UNL     1      -2.064  13.121  22.054  0.00  0.00    +0.000 C 
ATOM     12  C   UNL     1      -3.041  12.793  20.899  0.00  0.00    +0.000 C 
ATOM     13  C   UNL     1      -2.308  12.108  23.192  0.00  0.00    +0.000 C 
ATOM     14  C   UNL     1      -2.456  14.543  22.545  0.00  0.00    +0.000 C 
ATOM     15  C   UNL     1      -1.400  15.148  23.454  0.00  0.00    +0.000 C 
ATOM     16  C   UNL     1      -0.086  15.285  22.699  0.00  0.00    +0.000 C 
ENDBRANCH   6  10
ENDBRANCH   3   7
ENDBRANCH   1   5
BRANCH   2  17
ATOM     17  C   UNL     1       1.785   4.783  20.093  0.00  0.00    +0.000 C 
ATOM     18  C   UNL     1       1.877   3.558  20.971  0.00  0.00    +0.000 C 
ATOM     19  C   UNL     1       2.185   4.818  18.809  0.00  0.00    +0.000 C 
BRANCH  19  20
ATOM     20  C   UNL     1       2.751   3.639  18.083  0.00  0.00    +0.000 C 
ATOM     21  O   UNL     1       2.086   2.972  17.294  0.00  0.00    +0.000 OA
BRANCH  20  22
ATOM     22  C   UNL     1       4.209   3.307  18.353  0.00  0.00    +0.000 C 
BRANCH  22  23
ATOM     23  C   UNL     1       5.143   3.945  17.358  0.00  0.00    +0.000 A 
ATOM     24  C   UNL     1       4.806   3.994  15.997  0.00  0.00    +0.000 A 
ATOM     25  C   UNL     1       5.685   4.565  15.070  0.00  0.00    +0.000 A 
ATOM     26  C   UNL     1       6.895   5.092  15.508  0.00  0.00    +0.000 A 
ATOM     27  C   UNL     1       7.233   5.078  16.854  0.00  0.00    +0.000 A 
ATOM     28  C   UNL     1       6.356   4.510  17.779  0.00  0.00    +0.000 A 
BRANCH  26  29
ATOM     29  O   UNL     1       7.789   5.638  14.635  0.00  0.00    +0.000 OA
ATOM     30  H   UNL     1       7.355   6.367  14.163  0.00  0.00    +0.000 HD
ENDBRANCH  26  29
ENDBRANCH  22  23
ENDBRANCH  20  22
ENDBRANCH  19  20
ENDBRANCH   2  17
TORSDOF 8
ENDMDL
