MODEL 1
REMARK VINA RESULT:      -6.4      0.000      0.000
REMARK  Name = 
REMARK  6 active torsions:
REMARK  status: ('A' for Active; 'I' for Inactive)
REMARK    1  A    between atoms: C_1  and  O_2
REMARK    2  A    between atoms: O_2  and  C_3
REMARK    3  A    between atoms: C_5  and  C_6
REMARK    4  A    between atoms: N_7  and  N_8
REMARK    5  A    between atoms: C_14  and  O_15
REMARK    6  A    between atoms: O_15  and  C_16
REMARK                            x       y       z     vdW  Elec       q    Type
REMARK                         _______ _______ _______ _____ _____    ______ ____
ROOT
ATOM      1  C   UNL     1       1.752   4.234  19.885  0.00  0.00    +0.000 A 
ATOM      2  C   UNL     1       1.561   5.453  20.537  0.00  0.00    +0.000 A 
ATOM      3  C   UNL     1       2.120   6.617  20.019  0.00  0.00    +0.000 A 
ATOM      4  C   UNL     1       2.933   6.562  18.887  0.00  0.00    +0.000 A 
ATOM      5  C   UNL     1       3.174   5.339  18.240  0.00  0.00    +0.000 A 
ATOM      6  C   UNL     1       2.564   4.168  18.728  0.00  0.00    +0.000 A 
ATOM      7 BR   UNL     1       2.646   2.499  17.805  0.00  0.00    +0.000 Br
ENDROOT
BRANCH   1   9
ATOM      8  C   UNL     1       1.601   2.635  21.628  0.00  0.00    +0.000 C 
ATOM      9  O   UNL     1       1.169   3.073  20.340  0.00  0.00    +0.000 OA
ENDBRANCH   1   9
BRANCH   3  10
ATOM     10  C   UNL     1       1.778   7.927  20.616  0.00  0.00    +0.000 C 
ATOM     11  N   UNL     1       0.711   8.063  21.333  0.00  0.00    +0.000 NA
BRANCH  11  12
ATOM     12  N   UNL     1       0.400   9.307  21.792  0.00  0.00    +0.000 N 
ATOM     13  C   UNL     1       0.588  10.562  21.270  0.00  0.00    +0.000 A 
ATOM     14  N   UNL     1       0.089  11.478  22.074  0.00  0.00    +0.000 NA
ATOM     15  N   UNL     1      -0.455  10.826  23.153  0.00  0.00    +0.000 NA
ATOM     16  C   UNL     1      -0.265   9.539  22.970  0.00  0.00    +0.000 A 
ENDBRANCH  11  12
ENDBRANCH   3  10
BRANCH   5  17
ATOM     17  O   UNL     1       3.897   5.493  17.086  0.00  0.00    +0.000 OA
ATOM     18  C   UNL     1       5.309   5.627  17.199  0.00  0.00    +0.000 C 
ENDBRANCH   5  17
TORSDOF 4
ENDMDL
MODEL 2
REMARK VINA RESULT:      -6.0      0.844      3.180
REMARK  Name = 
REMARK  6 active torsions:
REMARK  status: ('A' for Active; 'I' for Inactive)
REMARK    1  A    between atoms: C_1  and  O_2
REMARK    2  A    between atoms: O_2  and  C_3
REMARK    3  A    between atoms: C_5  and  C_6
REMARK    4  A    between atoms: N_7  and  N_8
REMARK    5  A    between atoms: C_14  and  O_15
REMARK    6  A    between atoms: O_15  and  C_16
REMARK                            x       y       z     vdW  Elec       q    Type
REMARK                         _______ _______ _______ _____ _____    ______ ____
ROOT
ATOM      1  C   UNL     1       3.389   5.971  18.194  0.00  0.00    +0.000 A 
ATOM      2  C   UNL     1       2.754   7.128  18.652  0.00  0.00    +0.000 A 
ATOM      3  C   UNL     1       2.063   7.114  19.859  0.00  0.00    +0.000 A 
ATOM      4  C   UNL     1       1.938   5.928  20.583  0.00  0.00    +0.000 A 
ATOM      5  C   UNL     1       2.532   4.743  20.120  0.00  0.00    +0.000 A 
ATOM      6  C   UNL     1       3.280   4.766  18.928  0.00  0.00    +0.000 A 
ATOM      7 BR   UNL     1       4.305   3.273  18.322  0.00  0.00    +0.000 Br
ENDROOT
BRANCH   1   9
ATOM      8  C   UNL     1       5.276   6.808  17.031  0.00  0.00    +0.000 C 
ATOM      9  O   UNL     1       4.125   5.964  17.032  0.00  0.00    +0.000 OA
ENDBRANCH   1   9
BRANCH   3  10
ATOM     10  C   UNL     1       1.536   8.378  20.419  0.00  0.00    +0.000 C 
ATOM     11  N   UNL     1       0.938   8.390  21.565  0.00  0.00    +0.000 NA
BRANCH  11  12
ATOM     12  N   UNL     1       0.402   9.564  21.998  0.00  0.00    +0.000 N 
ATOM     13  C   UNL     1      -0.388   9.882  23.074  0.00  0.00    +0.000 A 
ATOM     14  N   UNL     1      -0.639  11.174  23.100  0.00  0.00    +0.000 NA
ATOM     15  N   UNL     1       0.004  11.740  22.026  0.00  0.00    +0.000 NA
ATOM     16  C   UNL     1       0.620  10.773  21.384  0.00  0.00    +0.000 A 
ENDBRANCH  11  12
ENDBRANCH   3  10
BRANCH   5  17
ATOM     17  O   UNL     1       2.404   3.711  21.014  0.00  0.00    +0.000 OA
ATOM     18  C   UNL     1       1.300   2.828  20.855  0.00  0.00    +0.000 C 
ENDBRANCH   5  17
TORSDOF 4
ENDMDL
MODEL 3
REMARK VINA RESULT:      -6.0      0.725      1.111
REMARK  Name = 
REMARK  6 active torsions:
REMARK  status: ('A' for Active; 'I' for Inactive)
REMARK    1  A    between atoms: C_1  and  O_2
REMARK    2  A    between atoms: O_2  and  C_3
REMARK    3  A    between atoms: C_5  and  C_6
REMARK    4  A    between atoms: N_7  and  N_8
REMARK    5  A    between atoms: C_14  and  O_15
REMARK    6  A    between atoms: O_15  and  C_16
REMARK                            x       y       z     vdW  Elec       q    Type
REMARK                         _______ _______ _______ _____ _____    ______ ____
ROOT
ATOM      1  C   UNL     1       2.399   4.224  19.861  0.00  0.00    +0.000 A 
ATOM      2  C   UNL     1       1.866   5.221  20.681  0.00  0.00    +0.000 A 
ATOM      3  C   UNL     1       2.003   6.561  20.331  0.00  0.00    +0.000 A 
ATOM      4  C   UNL     1       2.735   6.918  19.199  0.00  0.00    +0.000 A 
ATOM      5  C   UNL     1       3.317   5.934  18.384  0.00  0.00    +0.000 A 
ATOM      6  C   UNL     1       3.132   4.576  18.704  0.00  0.00    +0.000 A 
ATOM      7 BR   UNL     1       3.691   3.159  17.552  0.00  0.00    +0.000 Br
ENDROOT
BRANCH   1   9
ATOM      8  C   UNL     1       1.636   2.604  21.413  0.00  0.00    +0.000 C 
ATOM      9  O   UNL     1       2.235   2.889  20.150  0.00  0.00    +0.000 OA
ENDBRANCH   1   9
BRANCH   3  10
ATOM     10  C   UNL     1       1.295   7.600  21.110  0.00  0.00    +0.000 C 
ATOM     11  N   UNL     1       1.181   8.802  20.649  0.00  0.00    +0.000 NA
BRANCH  11  12
ATOM     12  N   UNL     1       0.591   9.741  21.440  0.00  0.00    +0.000 N 
ATOM     13  C   UNL     1      -0.059   9.661  22.646  0.00  0.00    +0.000 A 
ATOM     14  N   UNL     1      -0.442  10.855  23.047  0.00  0.00    +0.000 NA
ATOM     15  N   UNL     1      -0.032  11.759  22.097  0.00  0.00    +0.000 NA
ATOM     16  C   UNL     1       0.582  11.083  21.152  0.00  0.00    +0.000 A 
ENDBRANCH  11  12
ENDBRANCH   3  10
BRANCH   5  17
ATOM     17  O   UNL     1       3.896   6.463  17.259  0.00  0.00    +0.000 OA
ATOM     18  C   UNL     1       5.304   6.665  17.271  0.00  0.00    +0.000 C 
ENDBRANCH   5  17
TORSDOF 4
ENDMDL
MODEL 4
REMARK VINA RESULT:      -6.0      5.588      8.029
REMARK  Name = 
REMARK  6 active torsions:
REMARK  status: ('A' for Active; 'I' for Inactive)
REMARK    1  A    between atoms: C_1  and  O_2
REMARK    2  A    between atoms: O_2  and  C_3
REMARK    3  A    between atoms: C_5  and  C_6
REMARK    4  A    between atoms: N_7  and  N_8
REMARK    5  A    between atoms: C_14  and  O_15
REMARK    6  A    between atoms: O_15  and  C_16
REMARK                            x       y       z     vdW  Elec       q    Type
REMARK                         _______ _______ _______ _____ _____    ______ ____
ROOT
ATOM      1  C   UNL     1       3.181   6.249  18.695  0.00  0.00    +0.000 A 
ATOM      2  C   UNL     1       3.965   6.336  17.544  0.00  0.00    +0.000 A 
ATOM      3  C   UNL     1       4.585   5.200  17.033  0.00  0.00    +0.000 A 
ATOM      4  C   UNL     1       4.486   3.983  17.708  0.00  0.00    +0.000 A 
ATOM      5  C   UNL     1       3.737   3.882  18.891  0.00  0.00    +0.000 A 
ATOM      6  C   UNL     1       3.062   5.017  19.379  0.00  0.00    +0.000 A 
ATOM      7 BR   UNL     1       1.846   4.942  20.850  0.00  0.00    +0.000 Br
ENDROOT
BRANCH   1   9
ATOM      8  C   UNL     1       2.173   8.344  18.239  0.00  0.00    +0.000 C 
ATOM      9  O   UNL     1       2.511   7.341  19.196  0.00  0.00    +0.000 OA
ENDBRANCH   1   9
BRANCH   3  10
ATOM     10  C   UNL     1       5.275   5.263  15.726  0.00  0.00    +0.000 C 
ATOM     11  N   UNL     1       5.638   4.180  15.122  0.00  0.00    +0.000 NA
BRANCH  11  12
ATOM     12  N   UNL     1       6.340   4.296  13.961  0.00  0.00    +0.000 N 
ATOM     13  C   UNL     1       7.408   5.077  13.597  0.00  0.00    +0.000 A 
ATOM     14  N   UNL     1       7.771   4.820  12.358  0.00  0.00    +0.000 NA
ATOM     15  N   UNL     1       6.937   3.838  11.881  0.00  0.00    +0.000 NA
ATOM     16  C   UNL     1       6.096   3.536  12.844  0.00  0.00    +0.000 A 
ENDBRANCH  11  12
ENDBRANCH   3  10
BRANCH   5  17
ATOM     17  O   UNL     1       3.656   2.592  19.349  0.00  0.00    +0.000 OA
ATOM     18  C   UNL     1       2.610   1.772  18.841  0.00  0.00    +0.000 C 
ENDBRANCH   5  17
TORSDOF 4
ENDMDL
MODEL 5
REMARK VINA RESULT:      -6.0      0.805      3.039
REMARK  Name = 
REMARK  6 active torsions:
REMARK  status: ('A' for Active; 'I' for Inactive)
REMARK    1  A    between atoms: C_1  and  O_2
REMARK    2  A    between atoms: O_2  and  C_3
REMARK    3  A    between atoms: C_5  and  C_6
REMARK    4  A    between atoms: N_7  and  N_8
REMARK    5  A    between atoms: C_14  and  O_15
REMARK    6  A    between atoms: O_15  and  C_16
REMARK                            x       y       z     vdW  Elec       q    Type
REMARK                         _______ _______ _______ _____ _____    ______ ____
ROOT
ATOM      1  C   UNL     1       3.754   4.722  18.547  0.00  0.00    +0.000 A 
ATOM      2  C   UNL     1       3.351   6.018  18.873  0.00  0.00    +0.000 A 
ATOM      3  C   UNL     1       2.249   6.220  19.698  0.00  0.00    +0.000 A 
ATOM      4  C   UNL     1       1.499   5.133  20.145  0.00  0.00    +0.000 A 
ATOM      5  C   UNL     1       1.861   3.823  19.795  0.00  0.00    +0.000 A 
ATOM      6  C   UNL     1       3.008   3.611  19.007  0.00  0.00    +0.000 A 
ATOM      7 BR   UNL     1       3.712   1.872  18.654  0.00  0.00    +0.000 Br
ENDROOT
BRANCH   1   9
ATOM      8  C   UNL     1       4.746   4.826  16.398  0.00  0.00    +0.000 C 
ATOM      9  O   UNL     1       4.870   4.486  17.778  0.00  0.00    +0.000 OA
ENDBRANCH   1   9
BRANCH   3  10
ATOM     10  C   UNL     1       1.927   7.583  20.175  0.00  0.00    +0.000 C 
ATOM     11  N   UNL     1       1.211   7.756  21.237  0.00  0.00    +0.000 NA
BRANCH  11  12
ATOM     12  N   UNL     1       0.877   9.029  21.587  0.00  0.00    +0.000 N 
ATOM     13  C   UNL     1       0.917  10.219  20.905  0.00  0.00    +0.000 A 
ATOM     14  N   UNL     1       0.460  11.199  21.655  0.00  0.00    +0.000 NA
ATOM     15  N   UNL     1       0.094  10.657  22.863  0.00  0.00    +0.000 NA
ATOM     16  C   UNL     1       0.345   9.368  22.806  0.00  0.00    +0.000 A 
ENDBRANCH  11  12
ENDBRANCH   3  10
BRANCH   5  17
ATOM     17  O   UNL     1       1.081   2.882  20.416  0.00  0.00    +0.000 OA
ATOM     18  C   UNL     1       1.338   2.609  21.789  0.00  0.00    +0.000 C 
ENDBRANCH   5  17
TORSDOF 4
ENDMDL
MODEL 6
REMARK VINA RESULT:      -6.0      5.749      7.053
REMARK  Name = 
REMARK  6 active torsions:
REMARK  status: ('A' for Active; 'I' for Inactive)
REMARK    1  A    between atoms: C_1  and  O_2
REMARK    2  A    between atoms: O_2  and  C_3
REMARK    3  A    between atoms: C_5  and  C_6
REMARK    4  A    between atoms: N_7  and  N_8
REMARK    5  A    between atoms: C_14  and  O_15
REMARK    6  A    between atoms: O_15  and  C_16
REMARK                            x       y       z     vdW  Elec       q    Type
REMARK                         _______ _______ _______ _____ _____    ______ ____
ROOT
ATOM      1  C   UNL     1       6.022   3.976  14.095  0.00  0.00    +0.000 A 
ATOM      2  C   UNL     1       5.033   3.611  15.010  0.00  0.00    +0.000 A 
ATOM      3  C   UNL     1       4.962   4.240  16.249  0.00  0.00    +0.000 A 
ATOM      4  C   UNL     1       5.920   5.187  16.611  0.00  0.00    +0.000 A 
ATOM      5  C   UNL     1       6.948   5.538  15.723  0.00  0.00    +0.000 A 
ATOM      6  C   UNL     1       6.990   4.945  14.447  0.00  0.00    +0.000 A 
ATOM      7 BR   UNL     1       8.208   5.505  13.087  0.00  0.00    +0.000 Br
ENDROOT
BRANCH   1   9
ATOM      8  C   UNL     1       4.890   3.490  12.070  0.00  0.00    +0.000 C 
ATOM      9  O   UNL     1       6.088   3.412  12.841  0.00  0.00    +0.000 OA
ENDBRANCH   1   9
BRANCH   3  10
ATOM     10  C   UNL     1       3.817   3.970  17.147  0.00  0.00    +0.000 C 
ATOM     11  N   UNL     1       3.986   3.316  18.248  0.00  0.00    +0.000 NA
BRANCH  11  12
ATOM     12  N   UNL     1       2.887   3.025  18.998  0.00  0.00    +0.000 N 
ATOM     13  C   UNL     1       2.718   2.768  20.335  0.00  0.00    +0.000 A 
ATOM     14  N   UNL     1       1.447   2.564  20.612  0.00  0.00    +0.000 NA
ATOM     15  N   UNL     1       0.745   2.697  19.439  0.00  0.00    +0.000 NA
ATOM     16  C   UNL     1       1.612   2.973  18.492  0.00  0.00    +0.000 A 
ENDBRANCH  11  12
ENDBRANCH   3  10
BRANCH   5  17
ATOM     17  O   UNL     1       7.724   6.563  16.201  0.00  0.00    +0.000 OA
ATOM     18  C   UNL     1       7.358   7.147  17.445  0.00  0.00    +0.000 C 
ENDBRANCH   5  17
TORSDOF 4
ENDMDL
MODEL 7
REMARK VINA RESULT:      -5.9      5.544      7.679
REMARK  Name = 
REMARK  6 active torsions:
REMARK  status: ('A' for Active; 'I' for Inactive)
REMARK    1  A    between atoms: C_1  and  O_2
REMARK    2  A    between atoms: O_2  and  C_3
REMARK    3  A    between atoms: C_5  and  C_6
REMARK    4  A    between atoms: N_7  and  N_8
REMARK    5  A    between atoms: C_14  and  O_15
REMARK    6  A    between atoms: O_15  and  C_16
REMARK                            x       y       z     vdW  Elec       q    Type
REMARK                         _______ _______ _______ _____ _____    ______ ____
ROOT
ATOM      1  C   UNL     1       3.417   3.483  18.774  0.00  0.00    +0.000 A 
ATOM      2  C   UNL     1       4.058   3.646  17.544  0.00  0.00    +0.000 A 
ATOM      3  C   UNL     1       4.222   4.918  17.004  0.00  0.00    +0.000 A 
ATOM      4  C   UNL     1       3.683   6.030  17.653  0.00  0.00    +0.000 A 
ATOM      5  C   UNL     1       2.997   5.884  18.869  0.00  0.00    +0.000 A 
ATOM      6  C   UNL     1       2.880   4.606  19.446  0.00  0.00    +0.000 A 
ATOM      7 BR   UNL     1       2.162   4.323  21.193  0.00  0.00    +0.000 Br
ENDROOT
BRANCH   1   9
ATOM      8  C   UNL     1       3.721   1.142  18.567  0.00  0.00    +0.000 C 
ATOM      9  O   UNL     1       3.287   2.246  19.361  0.00  0.00    +0.000 OA
ENDBRANCH   1   9
BRANCH   3  10
ATOM     10  C   UNL     1       5.045   5.102  15.789  0.00  0.00    +0.000 C 
ATOM     11  N   UNL     1       5.505   4.079  15.147  0.00  0.00    +0.000 NA
BRANCH  11  12
ATOM     12  N   UNL     1       6.323   4.304  14.082  0.00  0.00    +0.000 N 
ATOM     13  C   UNL     1       6.378   3.760  12.823  0.00  0.00    +0.000 A 
ATOM     14  N   UNL     1       7.337   4.320  12.117  0.00  0.00    +0.000 NA
ATOM     15  N   UNL     1       7.933   5.269  12.912  0.00  0.00    +0.000 NA
ATOM     16  C   UNL     1       7.319   5.249  14.073  0.00  0.00    +0.000 A 
ENDBRANCH  11  12
ENDBRANCH   3  10
BRANCH   5  17
ATOM     17  O   UNL     1       2.641   7.090  19.415  0.00  0.00    +0.000 OA
ATOM     18  C   UNL     1       2.242   8.129  18.528  0.00  0.00    +0.000 C 
ENDBRANCH   5  17
TORSDOF 4
ENDMDL
MODEL 8
REMARK VINA RESULT:      -5.9      5.578      8.036
REMARK  Name = 
REMARK  6 active torsions:
REMARK  status: ('A' for Active; 'I' for Inactive)
REMARK    1  A    between atoms: C_1  and  O_2
REMARK    2  A    between atoms: O_2  and  C_3
REMARK    3  A    between atoms: C_5  and  C_6
REMARK    4  A    between atoms: N_7  and  N_8
REMARK    5  A    between atoms: C_14  and  O_15
REMARK    6  A    between atoms: O_15  and  C_16
REMARK                            x       y       z     vdW  Elec       q    Type
REMARK                         _______ _______ _______ _____ _____    ______ ____
ROOT
ATOM      1  C   UNL     1       3.292   6.189  18.660  0.00  0.00    +0.000 A 
ATOM      2  C   UNL     1       4.179   6.216  17.582  0.00  0.00    +0.000 A 
ATOM      3  C   UNL     1       4.791   5.042  17.153  0.00  0.00    +0.000 A 
ATOM      4  C   UNL     1       4.578   3.847  17.840  0.00  0.00    +0.000 A 
ATOM      5  C   UNL     1       3.723   3.806  18.953  0.00  0.00    +0.000 A 
ATOM      6  C   UNL     1       3.058   4.980  19.355  0.00  0.00    +0.000 A 
ATOM      7 BR   UNL     1       1.714   4.992  20.712  0.00  0.00    +0.000 Br
ENDROOT
BRANCH   1   9
ATOM      8  C   UNL     1       2.248   8.224  18.039  0.00  0.00    +0.000 C 
ATOM      9  O   UNL     1       2.630   7.321  19.076  0.00  0.00    +0.000 OA
ENDBRANCH   1   9
BRANCH   3  10
ATOM     10  C   UNL     1       5.597   5.044  15.912  0.00  0.00    +0.000 C 
ATOM     11  N   UNL     1       5.294   4.260  14.930  0.00  0.00    +0.000 NA
BRANCH  11  12
ATOM     12  N   UNL     1       6.115   4.244  13.844  0.00  0.00    +0.000 N 
ATOM     13  C   UNL     1       6.148   3.458  12.719  0.00  0.00    +0.000 A 
ATOM     14  N   UNL     1       7.121   3.838  11.917  0.00  0.00    +0.000 NA
ATOM     15  N   UNL     1       7.749   4.907  12.509  0.00  0.00    +0.000 NA
ATOM     16  C   UNL     1       7.138   5.137  13.649  0.00  0.00    +0.000 A 
ENDBRANCH  11  12
ENDBRANCH   3  10
BRANCH   5  17
ATOM     17  O   UNL     1       3.544   2.533  19.428  0.00  0.00    +0.000 OA
ATOM     18  C   UNL     1       4.487   2.038  20.372  0.00  0.00    +0.000 C 
ENDBRANCH   5  17
TORSDOF 4
ENDMDL
MODEL 9
REMARK VINA RESULT:      -5.9      2.119      3.815
REMARK  Name = 
REMARK  6 active torsions:
REMARK  status: ('A' for Active; 'I' for Inactive)
REMARK    1  A    between atoms: C_1  and  O_2
REMARK    2  A    between atoms: O_2  and  C_3
REMARK    3  A    between atoms: C_5  and  C_6
REMARK    4  A    between atoms: N_7  and  N_8
REMARK    5  A    between atoms: C_14  and  O_15
REMARK    6  A    between atoms: O_15  and  C_16
REMARK                            x       y       z     vdW  Elec       q    Type
REMARK                         _______ _______ _______ _____ _____    ______ ____
ROOT
ATOM      1  C   UNL     1       4.974   6.247  16.938  0.00  0.00    +0.000 A 
ATOM      2  C   UNL     1       4.123   6.942  17.799  0.00  0.00    +0.000 A 
ATOM      3  C   UNL     1       3.100   6.271  18.462  0.00  0.00    +0.000 A 
ATOM      4  C   UNL     1       2.873   4.917  18.215  0.00  0.00    +0.000 A 
ATOM      5  C   UNL     1       3.690   4.208  17.320  0.00  0.00    +0.000 A 
ATOM      6  C   UNL     1       4.762   4.870  16.691  0.00  0.00    +0.000 A 
ATOM      7 BR   UNL     1       6.061   3.957  15.630  0.00  0.00    +0.000 Br
ENDROOT
BRANCH   1   9
ATOM      8  C   UNL     1       7.086   7.298  17.165  0.00  0.00    +0.000 C 
ATOM      9  O   UNL     1       6.028   6.868  16.309  0.00  0.00    +0.000 OA
ENDBRANCH   1   9
BRANCH   3  10
ATOM     10  C   UNL     1       2.309   6.974  19.496  0.00  0.00    +0.000 C 
ATOM     11  N   UNL     1       1.896   8.182  19.299  0.00  0.00    +0.000 NA
BRANCH  11  12
ATOM     12  N   UNL     1       1.241   8.811  20.315  0.00  0.00    +0.000 N 
ATOM     13  C   UNL     1       1.256   8.637  21.676  0.00  0.00    +0.000 A 
ATOM     14  N   UNL     1       0.468   9.512  22.264  0.00  0.00    +0.000 NA
ATOM     15  N   UNL     1      -0.080  10.299  21.280  0.00  0.00    +0.000 NA
ATOM     16  C   UNL     1       0.391   9.872  20.130  0.00  0.00    +0.000 A 
ENDBRANCH  11  12
ENDBRANCH   3  10
BRANCH   5  17
ATOM     17  O   UNL     1       3.394   2.870  17.291  0.00  0.00    +0.000 OA
ATOM     18  C   UNL     1       2.204   2.439  17.942  0.00  0.00    +0.000 C 
ENDBRANCH   5  17
TORSDOF 4
ENDMDL
