MODEL 1
REMARK VINA RESULT:      -7.3      0.000      0.000
REMARK  Name = 
REMARK  3 active torsions:
REMARK  status: ('A' for Active; 'I' for Inactive)
REMARK    1  A    between atoms: C_2  and  C_3
REMARK    2  A    between atoms: C_4  and  C_5
REMARK    3  A    between atoms: C_8  and  N_9
REMARK                            x       y       z     vdW  Elec       q    Type
REMARK                         _______ _______ _______ _____ _____    ______ ____
ROOT
ATOM      1  C   UNL     1       2.173   8.499  18.892  0.00  0.00    +0.000 C 
ATOM      2  C   UNL     1       2.556   7.849  17.780  0.00  0.00    +0.000 C 
ENDROOT
BRANCH   1   4
ATOM      3  O   UNL     1       0.661   9.904  17.807  0.00  0.00    +0.000 OA
ATOM      4  C   UNL     1       0.974   9.372  18.870  0.00  0.00    +0.000 C 
ATOM      5  N   UNL     1       0.266   9.509  20.066  0.00  0.00    +0.000 N 
ATOM      6  C   UNL     1      -0.909  10.402  20.038  0.00  0.00    +0.000 C 
ATOM      7  C   UNL     1      -0.839  11.554  21.048  0.00  0.00    +0.000 C 
ATOM      8  C   UNL     1      -1.209  11.161  22.481  0.00  0.00    +0.000 C 
ATOM      9  C   UNL     1      -0.313  10.091  23.084  0.00  0.00    +0.000 C 
ATOM     10  C   UNL     1      -0.417   8.773  22.336  0.00  0.00    +0.000 C 
ATOM     11  C   UNL     1       0.555   8.751  21.202  0.00  0.00    +0.000 C 
ATOM     12  O   UNL     1       1.585   8.091  21.371  0.00  0.00    +0.000 OA
ENDBRANCH   1   4
BRANCH   2  13
ATOM     13  C   UNL     1       3.761   7.011  17.717  0.00  0.00    +0.000 A 
ATOM     14  C   UNL     1       4.720   7.298  16.739  0.00  0.00    +0.000 A 
ATOM     15  C   UNL     1       5.879   6.522  16.621  0.00  0.00    +0.000 A 
ATOM     16  C   UNL     1       6.094   5.463  17.510  0.00  0.00    +0.000 A 
ATOM     17  C   UNL     1       5.154   5.171  18.505  0.00  0.00    +0.000 A 
ATOM     18  C   UNL     1       3.998   5.949  18.609  0.00  0.00    +0.000 A 
BRANCH  16  19
ATOM     19  N   UNL     1       7.317   4.657  17.406  0.00  0.00    +0.000 N 
ATOM     20  O   UNL     1       7.926   4.399  18.454  0.00  0.00    +0.000 OA
ATOM     21  O   UNL     1       7.665   4.280  16.279  0.00  0.00    +0.000 OA
ENDBRANCH  16  19
ENDBRANCH   2  13
TORSDOF 3
ENDMDL
MODEL 2
REMARK VINA RESULT:      -7.3      2.579      3.988
REMARK  Name = 
REMARK  3 active torsions:
REMARK  status: ('A' for Active; 'I' for Inactive)
REMARK    1  A    between atoms: C_2  and  C_3
REMARK    2  A    between atoms: C_4  and  C_5
REMARK    3  A    between atoms: C_8  and  N_9
REMARK                            x       y       z     vdW  Elec       q    Type
REMARK                         _______ _______ _______ _____ _____    ______ ____
ROOT
ATOM      1  C   UNL     1       0.273   8.961  21.246  0.00  0.00    +0.000 C 
ATOM      2  C   UNL     1       1.439   8.294  21.293  0.00  0.00    +0.000 C 
ENDROOT
BRANCH   1   4
ATOM      3  O   UNL     1       0.348   9.744  23.442  0.00  0.00    +0.000 OA
ATOM      4  C   UNL     1      -0.066   9.946  22.302  0.00  0.00    +0.000 C 
ATOM      5  N   UNL     1      -0.819  11.058  21.916  0.00  0.00    +0.000 N 
ATOM      6  C   UNL     1      -1.173  12.017  22.980  0.00  0.00    +0.000 C 
ATOM      7  C   UNL     1      -2.683  12.236  23.144  0.00  0.00    +0.000 C 
ATOM      8  C   UNL     1      -3.296  13.192  22.119  0.00  0.00    +0.000 C 
ATOM      9  C   UNL     1      -3.148  12.738  20.676  0.00  0.00    +0.000 C 
ATOM     10  C   UNL     1      -1.692  12.674  20.246  0.00  0.00    +0.000 C 
ATOM     11  C   UNL     1      -1.118  11.336  20.581  0.00  0.00    +0.000 C 
ATOM     12  O   UNL     1      -0.992  10.540  19.645  0.00  0.00    +0.000 OA
ENDBRANCH   1   4
BRANCH   2  13
ATOM     13  C   UNL     1       1.815   7.269  20.312  0.00  0.00    +0.000 A 
ATOM     14  C   UNL     1       1.661   5.923  20.664  0.00  0.00    +0.000 A 
ATOM     15  C   UNL     1       2.020   4.903  19.776  0.00  0.00    +0.000 A 
ATOM     16  C   UNL     1       2.513   5.233  18.509  0.00  0.00    +0.000 A 
ATOM     17  C   UNL     1       2.659   6.573  18.131  0.00  0.00    +0.000 A 
ATOM     18  C   UNL     1       2.302   7.583  19.030  0.00  0.00    +0.000 A 
BRANCH  16  19
ATOM     19  N   UNL     1       2.873   4.169  17.563  0.00  0.00    +0.000 N 
ATOM     20  O   UNL     1       4.069   4.046  17.262  0.00  0.00    +0.000 OA
ATOM     21  O   UNL     1       1.961   3.456  17.124  0.00  0.00    +0.000 OA
ENDBRANCH  16  19
ENDBRANCH   2  13
TORSDOF 3
ENDMDL
MODEL 3
REMARK VINA RESULT:      -7.3      3.198      8.113
REMARK  Name = 
REMARK  3 active torsions:
REMARK  status: ('A' for Active; 'I' for Inactive)
REMARK    1  A    between atoms: C_2  and  C_3
REMARK    2  A    between atoms: C_4  and  C_5
REMARK    3  A    between atoms: C_8  and  N_9
REMARK                            x       y       z     vdW  Elec       q    Type
REMARK                         _______ _______ _______ _____ _____    ______ ____
ROOT
ATOM      1  C   UNL     1       2.026   7.391  19.899  0.00  0.00    +0.000 C 
ATOM      2  C   UNL     1       1.581   8.624  19.608  0.00  0.00    +0.000 C 
ENDROOT
BRANCH   1   4
ATOM      3  O   UNL     1       3.415   7.232  18.032  0.00  0.00    +0.000 OA
ATOM      4  C   UNL     1       2.787   6.614  18.890  0.00  0.00    +0.000 C 
ATOM      5  N   UNL     1       2.755   5.222  19.002  0.00  0.00    +0.000 N 
ATOM      6  C   UNL     1       3.494   4.460  17.976  0.00  0.00    +0.000 C 
ATOM      7  C   UNL     1       2.624   3.471  17.189  0.00  0.00    +0.000 C 
ATOM      8  C   UNL     1       2.344   2.157  17.921  0.00  0.00    +0.000 C 
ATOM      9  C   UNL     1       1.606   2.323  19.240  0.00  0.00    +0.000 C 
ATOM     10  C   UNL     1       2.423   3.105  20.255  0.00  0.00    +0.000 C 
ATOM     11  C   UNL     1       2.175   4.570  20.090  0.00  0.00    +0.000 C 
ATOM     12  O   UNL     1       1.423   5.097  20.916  0.00  0.00    +0.000 OA
ENDBRANCH   1   4
BRANCH   2  13
ATOM     13  C   UNL     1       0.778   9.426  20.539  0.00  0.00    +0.000 A 
ATOM     14  C   UNL     1       0.383  10.709  20.143  0.00  0.00    +0.000 A 
ATOM     15  C   UNL     1      -0.369  11.525  20.997  0.00  0.00    +0.000 A 
ATOM     16  C   UNL     1      -0.752  11.041  22.253  0.00  0.00    +0.000 A 
ATOM     17  C   UNL     1      -0.381   9.754  22.661  0.00  0.00    +0.000 A 
ATOM     18  C   UNL     1       0.375   8.952  21.801  0.00  0.00    +0.000 A 
BRANCH  16  19
ATOM     19  N   UNL     1      -1.558  11.882  23.147  0.00  0.00    +0.000 N 
ATOM     20  O   UNL     1      -1.099  12.988  23.465  0.00  0.00    +0.000 OA
ATOM     21  O   UNL     1      -2.650  11.439  23.527  0.00  0.00    +0.000 OA
ENDBRANCH  16  19
ENDBRANCH   2  13
TORSDOF 3
ENDMDL
MODEL 4
REMARK VINA RESULT:      -7.3      2.583      3.855
REMARK  Name = 
REMARK  3 active torsions:
REMARK  status: ('A' for Active; 'I' for Inactive)
REMARK    1  A    between atoms: C_2  and  C_3
REMARK    2  A    between atoms: C_4  and  C_5
REMARK    3  A    between atoms: C_8  and  N_9
REMARK                            x       y       z     vdW  Elec       q    Type
REMARK                         _______ _______ _______ _____ _____    ______ ____
ROOT
ATOM      1  C   UNL     1       0.179   8.755  21.473  0.00  0.00    +0.000 C 
ATOM      2  C   UNL     1       1.444   8.381  21.219  0.00  0.00    +0.000 C 
ENDROOT
BRANCH   1   4
ATOM      3  O   UNL     1       0.301   9.702  23.602  0.00  0.00    +0.000 OA
ATOM      4  C   UNL     1      -0.097   9.841  22.447  0.00  0.00    +0.000 C 
ATOM      5  N   UNL     1      -0.774  10.965  21.969  0.00  0.00    +0.000 N 
ATOM      6  C   UNL     1      -1.066  12.026  22.953  0.00  0.00    +0.000 C 
ATOM      7  C   UNL     1      -2.558  12.356  23.089  0.00  0.00    +0.000 C 
ATOM      8  C   UNL     1      -3.105  13.267  21.988  0.00  0.00    +0.000 C 
ATOM      9  C   UNL     1      -2.984  12.692  20.586  0.00  0.00    +0.000 C 
ATOM     10  C   UNL     1      -1.535  12.499  20.173  0.00  0.00    +0.000 C 
ATOM     11  C   UNL     1      -1.052  11.157  20.615  0.00  0.00    +0.000 C 
ATOM     12  O   UNL     1      -0.977  10.284  19.745  0.00  0.00    +0.000 OA
ENDBRANCH   1   4
BRANCH   2  13
ATOM     13  C   UNL     1       1.785   7.280  20.309  0.00  0.00    +0.000 A 
ATOM     14  C   UNL     1       2.303   7.597  19.048  0.00  0.00    +0.000 A 
ATOM     15  C   UNL     1       2.629   6.589  18.132  0.00  0.00    +0.000 A 
ATOM     16  C   UNL     1       2.460   5.248  18.493  0.00  0.00    +0.000 A 
ATOM     17  C   UNL     1       1.960   4.911  19.757  0.00  0.00    +0.000 A 
ATOM     18  C   UNL     1       1.633   5.926  20.660  0.00  0.00    +0.000 A 
BRANCH  16  19
ATOM     19  N   UNL     1       2.819   4.184  17.547  0.00  0.00    +0.000 N 
ATOM     20  O   UNL     1       1.975   3.305  17.322  0.00  0.00    +0.000 OA
ATOM     21  O   UNL     1       3.942   4.230  17.027  0.00  0.00    +0.000 OA
ENDBRANCH  16  19
ENDBRANCH   2  13
TORSDOF 3
ENDMDL
MODEL 5
REMARK VINA RESULT:      -7.2      3.177      8.015
REMARK  Name = 
REMARK  3 active torsions:
REMARK  status: ('A' for Active; 'I' for Inactive)
REMARK    1  A    between atoms: C_2  and  C_3
REMARK    2  A    between atoms: C_4  and  C_5
REMARK    3  A    between atoms: C_8  and  N_9
REMARK                            x       y       z     vdW  Elec       q    Type
REMARK                         _______ _______ _______ _____ _____    ______ ____
ROOT
ATOM      1  C   UNL     1       2.328   7.483  19.721  0.00  0.00    +0.000 C 
ATOM      2  C   UNL     1       1.554   8.499  19.303  0.00  0.00    +0.000 C 
ENDROOT
BRANCH   1   4
ATOM      3  O   UNL     1       3.580   7.059  17.799  0.00  0.00    +0.000 OA
ATOM      4  C   UNL     1       2.954   6.567  18.735  0.00  0.00    +0.000 C 
ATOM      5  N   UNL     1       2.805   5.197  18.958  0.00  0.00    +0.000 N 
ATOM      6  C   UNL     1       3.408   4.296  17.956  0.00  0.00    +0.000 C 
ATOM      7  C   UNL     1       2.407   3.338  17.298  0.00  0.00    +0.000 C 
ATOM      8  C   UNL     1       2.057   2.112  18.145  0.00  0.00    +0.000 C 
ATOM      9  C   UNL     1       1.419   2.442  19.485  0.00  0.00    +0.000 C 
ATOM     10  C   UNL     1       2.363   3.217  20.389  0.00  0.00    +0.000 C 
ATOM     11  C   UNL     1       2.237   4.682  20.124  0.00  0.00    +0.000 C 
ATOM     12  O   UNL     1       1.587   5.336  20.946  0.00  0.00    +0.000 OA
ENDBRANCH   1   4
BRANCH   2  13
ATOM     13  C   UNL     1       0.863   9.410  20.225  0.00  0.00    +0.000 A 
ATOM     14  C   UNL     1       0.334   8.883  21.408  0.00  0.00    +0.000 A 
ATOM     15  C   UNL     1      -0.351   9.701  22.315  0.00  0.00    +0.000 A 
ATOM     16  C   UNL     1      -0.484  11.068  22.046  0.00  0.00    +0.000 A 
ATOM     17  C   UNL     1       0.053  11.616  20.876  0.00  0.00    +0.000 A 
ATOM     18  C   UNL     1       0.729  10.788  19.976  0.00  0.00    +0.000 A 
BRANCH  16  19
ATOM     19  N   UNL     1      -1.183  11.937  23.002  0.00  0.00    +0.000 N 
ATOM     20  O   UNL     1      -0.609  12.974  23.362  0.00  0.00    +0.000 OA
ATOM     21  O   UNL     1      -2.305  11.584  23.389  0.00  0.00    +0.000 OA
ENDBRANCH  16  19
ENDBRANCH   2  13
TORSDOF 3
ENDMDL
MODEL 6
REMARK VINA RESULT:      -7.1      3.197      7.440
REMARK  Name = 
REMARK  3 active torsions:
REMARK  status: ('A' for Active; 'I' for Inactive)
REMARK    1  A    between atoms: C_2  and  C_3
REMARK    2  A    between atoms: C_4  and  C_5
REMARK    3  A    between atoms: C_8  and  N_9
REMARK                            x       y       z     vdW  Elec       q    Type
REMARK                         _______ _______ _______ _____ _____    ______ ____
ROOT
ATOM      1  C   UNL     1       2.568   7.644  18.655  0.00  0.00    +0.000 C 
ATOM      2  C   UNL     1       2.062   8.497  17.749  0.00  0.00    +0.000 C 
ENDROOT
BRANCH   1   4
ATOM      3  O   UNL     1       3.801   6.288  17.212  0.00  0.00    +0.000 OA
ATOM      4  C   UNL     1       3.105   6.329  18.224  0.00  0.00    +0.000 C 
ATOM      5  N   UNL     1       2.797   5.225  19.023  0.00  0.00    +0.000 N 
ATOM      6  C   UNL     1       3.314   3.919  18.569  0.00  0.00    +0.000 C 
ATOM      7  C   UNL     1       2.224   2.864  18.339  0.00  0.00    +0.000 C 
ATOM      8  C   UNL     1       1.721   2.188  19.616  0.00  0.00    +0.000 C 
ATOM      9  C   UNL     1       1.099   3.142  20.622  0.00  0.00    +0.000 C 
ATOM     10  C   UNL     1       2.106   4.150  21.150  0.00  0.00    +0.000 C 
ATOM     11  C   UNL     1       2.152   5.344  20.254  0.00  0.00    +0.000 C 
ATOM     12  O   UNL     1       1.564   6.355  20.653  0.00  0.00    +0.000 OA
ENDBRANCH   1   4
BRANCH   2  13
ATOM     13  C   UNL     1       1.467   9.789  18.111  0.00  0.00    +0.000 A 
ATOM     14  C   UNL     1       2.297  10.915  18.155  0.00  0.00    +0.000 A 
ATOM     15  C   UNL     1       1.789  12.169  18.511  0.00  0.00    +0.000 A 
ATOM     16  C   UNL     1       0.426  12.304  18.802  0.00  0.00    +0.000 A 
ATOM     17  C   UNL     1      -0.424  11.194  18.748  0.00  0.00    +0.000 A 
ATOM     18  C   UNL     1       0.098   9.945  18.396  0.00  0.00    +0.000 A 
BRANCH  16  19
ATOM     19  N   UNL     1      -0.120  13.620  19.157  0.00  0.00    +0.000 N 
ATOM     20  O   UNL     1       0.579  14.616  18.920  0.00  0.00    +0.000 OA
ATOM     21  O   UNL     1      -1.247  13.658  19.667  0.00  0.00    +0.000 OA
ENDBRANCH  16  19
ENDBRANCH   2  13
TORSDOF 3
ENDMDL
MODEL 7
REMARK VINA RESULT:      -7.0      3.200      7.510
REMARK  Name = 
REMARK  3 active torsions:
REMARK  status: ('A' for Active; 'I' for Inactive)
REMARK    1  A    between atoms: C_2  and  C_3
REMARK    2  A    between atoms: C_4  and  C_5
REMARK    3  A    between atoms: C_8  and  N_9
REMARK                            x       y       z     vdW  Elec       q    Type
REMARK                         _______ _______ _______ _____ _____    ______ ____
ROOT
ATOM      1  C   UNL     1       2.573   7.657  18.705  0.00  0.00    +0.000 C 
ATOM      2  C   UNL     1       2.111   8.566  17.830  0.00  0.00    +0.000 C 
ENDROOT
BRANCH   1   4
ATOM      3  O   UNL     1       3.759   6.327  17.200  0.00  0.00    +0.000 OA
ATOM      4  C   UNL     1       3.078   6.347  18.223  0.00  0.00    +0.000 C 
ATOM      5  N   UNL     1       2.760   5.223  18.988  0.00  0.00    +0.000 N 
ATOM      6  C   UNL     1       3.245   3.923  18.484  0.00  0.00    +0.000 C 
ATOM      7  C   UNL     1       2.131   2.898  18.234  0.00  0.00    +0.000 C 
ATOM      8  C   UNL     1       1.632   2.189  19.495  0.00  0.00    +0.000 C 
ATOM      9  C   UNL     1       1.042   3.120  20.542  0.00  0.00    +0.000 C 
ATOM     10  C   UNL     1       2.077   4.090  21.088  0.00  0.00    +0.000 C 
ATOM     11  C   UNL     1       2.133   5.313  20.232  0.00  0.00    +0.000 C 
ATOM     12  O   UNL     1       1.571   6.320  20.672  0.00  0.00    +0.000 OA
ENDBRANCH   1   4
BRANCH   2  13
ATOM     13  C   UNL     1       1.549   9.859  18.241  0.00  0.00    +0.000 A 
ATOM     14  C   UNL     1       0.270   9.877  18.810  0.00  0.00    +0.000 A 
ATOM     15  C   UNL     1      -0.324  11.082  19.204  0.00  0.00    +0.000 A 
ATOM     16  C   UNL     1       0.383  12.281  19.052  0.00  0.00    +0.000 A 
ATOM     17  C   UNL     1       1.669  12.281  18.501  0.00  0.00    +0.000 A 
ATOM     18  C   UNL     1       2.248  11.072  18.106  0.00  0.00    +0.000 A 
BRANCH  16  19
ATOM     19  N   UNL     1      -0.224  13.547  19.482  0.00  0.00    +0.000 N 
ATOM     20  O   UNL     1      -1.437  13.547  19.735  0.00  0.00    +0.000 OA
ATOM     21  O   UNL     1       0.512  14.539  19.570  0.00  0.00    +0.000 OA
ENDBRANCH  16  19
ENDBRANCH   2  13
TORSDOF 3
ENDMDL
MODEL 8
REMARK VINA RESULT:      -7.0      2.343      2.750
REMARK  Name = 
REMARK  3 active torsions:
REMARK  status: ('A' for Active; 'I' for Inactive)
REMARK    1  A    between atoms: C_2  and  C_3
REMARK    2  A    between atoms: C_4  and  C_5
REMARK    3  A    between atoms: C_8  and  N_9
REMARK                            x       y       z     vdW  Elec       q    Type
REMARK                         _______ _______ _______ _____ _____    ______ ____
ROOT
ATOM      1  C   UNL     1       2.190   8.149  18.865  0.00  0.00    +0.000 C 
ATOM      2  C   UNL     1       2.259   7.132  17.989  0.00  0.00    +0.000 C 
ENDROOT
BRANCH   1   4
ATOM      3  O   UNL     1       2.021   9.885  17.316  0.00  0.00    +0.000 OA
ATOM      4  C   UNL     1       1.691   9.477  18.428  0.00  0.00    +0.000 C 
ATOM      5  N   UNL     1       0.855  10.164  19.310  0.00  0.00    +0.000 N 
ATOM      6  C   UNL     1       0.388  11.495  18.876  0.00  0.00    +0.000 C 
ATOM      7  C   UNL     1       0.762  12.630  19.838  0.00  0.00    +0.000 C 
ATOM      8  C   UNL     1      -0.148  12.744  21.063  0.00  0.00    +0.000 C 
ATOM      9  C   UNL     1      -0.161  11.507  21.947  0.00  0.00    +0.000 C 
ATOM     10  C   UNL     1      -0.723  10.296  21.222  0.00  0.00    +0.000 C 
ATOM     11  C   UNL     1       0.367   9.589  20.485  0.00  0.00    +0.000 C 
ATOM     12  O   UNL     1       0.800   8.554  21.001  0.00  0.00    +0.000 OA
ENDBRANCH   1   4
BRANCH   2  13
ATOM     13  C   UNL     1       2.790   5.809  18.340  0.00  0.00    +0.000 A 
ATOM     14  C   UNL     1       1.990   4.686  18.101  0.00  0.00    +0.000 A 
ATOM     15  C   UNL     1       2.438   3.402  18.432  0.00  0.00    +0.000 A 
ATOM     16  C   UNL     1       3.713   3.237  18.985  0.00  0.00    +0.000 A 
ATOM     17  C   UNL     1       4.535   4.347  19.217  0.00  0.00    +0.000 A 
ATOM     18  C   UNL     1       4.073   5.625  18.887  0.00  0.00    +0.000 A 
BRANCH  16  19
ATOM     19  N   UNL     1       4.199   1.892  19.317  0.00  0.00    +0.000 N 
ATOM     20  O   UNL     1       4.944   1.775  20.300  0.00  0.00    +0.000 OA
ATOM     21  O   UNL     1       3.834   0.953  18.596  0.00  0.00    +0.000 OA
ENDBRANCH  16  19
ENDBRANCH   2  13
TORSDOF 3
ENDMDL
MODEL 9
REMARK VINA RESULT:      -7.0      2.020      3.028
REMARK  Name = 
REMARK  3 active torsions:
REMARK  status: ('A' for Active; 'I' for Inactive)
REMARK    1  A    between atoms: C_2  and  C_3
REMARK    2  A    between atoms: C_4  and  C_5
REMARK    3  A    between atoms: C_8  and  N_9
REMARK                            x       y       z     vdW  Elec       q    Type
REMARK                         _______ _______ _______ _____ _____    ______ ____
ROOT
ATOM      1  C   UNL     1       2.656   7.090  18.376  0.00  0.00    +0.000 C 
ATOM      2  C   UNL     1       3.764   6.335  18.461  0.00  0.00    +0.000 C 
ENDROOT
BRANCH   1   4
ATOM      3  O   UNL     1       1.906   6.763  20.561  0.00  0.00    +0.000 OA
ATOM      4  C   UNL     1       1.963   7.539  19.609  0.00  0.00    +0.000 C 
ATOM      5  N   UNL     1       1.439   8.834  19.608  0.00  0.00    +0.000 N 
ATOM      6  C   UNL     1       0.729   9.259  20.830  0.00  0.00    +0.000 C 
ATOM      7  C   UNL     1      -0.724   9.689  20.587  0.00  0.00    +0.000 C 
ATOM      8  C   UNL     1      -0.879  11.109  20.038  0.00  0.00    +0.000 C 
ATOM      9  C   UNL     1      -0.203  11.336  18.696  0.00  0.00    +0.000 C 
ATOM     10  C   UNL     1       1.305  11.172  18.784  0.00  0.00    +0.000 C 
ATOM     11  C   UNL     1       1.677   9.740  18.573  0.00  0.00    +0.000 C 
ATOM     12  O   UNL     1       2.132   9.446  17.463  0.00  0.00    +0.000 OA
ENDBRANCH   1   4
BRANCH   2  13
ATOM     13  C   UNL     1       4.469   5.813  17.284  0.00  0.00    +0.000 A 
ATOM     14  C   UNL     1       4.933   6.725  16.328  0.00  0.00    +0.000 A 
ATOM     15  C   UNL     1       5.596   6.283  15.177  0.00  0.00    +0.000 A 
ATOM     16  C   UNL     1       5.820   4.914  14.993  0.00  0.00    +0.000 A 
ATOM     17  C   UNL     1       5.378   3.988  15.945  0.00  0.00    +0.000 A 
ATOM     18  C   UNL     1       4.713   4.442  17.088  0.00  0.00    +0.000 A 
BRANCH  16  19
ATOM     19  N   UNL     1       6.533   4.443  13.798  0.00  0.00    +0.000 N 
ATOM     20  O   UNL     1       7.492   5.118  13.397  0.00  0.00    +0.000 OA
ATOM     21  O   UNL     1       6.137   3.398  13.264  0.00  0.00    +0.000 OA
ENDBRANCH  16  19
ENDBRANCH   2  13
TORSDOF 3
ENDMDL
