MODEL 1
REMARK VINA RESULT:      -9.5      0.000      0.000
REMARK  Name = 
REMARK  6 active torsions:
REMARK  status: ('A' for Active; 'I' for Inactive)
REMARK    1  A    between atoms: C_1  and  C_2
REMARK    2  A    between atoms: C_6  and  C_7
REMARK    3  A    between atoms: N_9  and  C_10
REMARK    4  A    between atoms: C_12  and  S_13
REMARK    5  A    between atoms: S_13  and  C_14
REMARK    6  A    between atoms: C_19  and  O_20
REMARK                            x       y       z     vdW  Elec       q    Type
REMARK                         _______ _______ _______ _____ _____    ______ ____
ROOT
ATOM      1  C   UNL     1       2.895   5.707  19.720  0.00  0.00    +0.000 A 
ATOM      2  C   UNL     1       4.206   5.892  19.235  0.00  0.00    +0.000 A 
ATOM      3  C   UNL     1       4.909   4.897  18.545  0.00  0.00    +0.000 A 
ATOM      4  C   UNL     1       4.265   3.669  18.351  0.00  0.00    +0.000 A 
ATOM      5  C   UNL     1       2.949   3.432  18.819  0.00  0.00    +0.000 A 
ATOM      6  C   UNL     1       2.302   2.201  18.570  0.00  0.00    +0.000 A 
ATOM      7  C   UNL     1       1.001   1.949  18.997  0.00  0.00    +0.000 A 
ATOM      8  C   UNL     1       0.317   2.923  19.704  0.00  0.00    +0.000 A 
ATOM      9  C   UNL     1       0.930   4.150  19.963  0.00  0.00    +0.000 A 
ATOM     10  C   UNL     1       2.250   4.449  19.526  0.00  0.00    +0.000 A 
ENDROOT
BRANCH   1  13
ATOM     11  C   UNL     1       1.826   7.971  19.838  0.00  0.00    +0.000 C 
ATOM     12  O   UNL     1       1.984   8.293  18.665  0.00  0.00    +0.000 OA
ATOM     13  N   UNL     1       2.215   6.765  20.405  0.00  0.00    +0.000 N 
ATOM     14  H   UNL     1       1.833   6.552  21.313  0.00  0.00    +0.000 HD
BRANCH  11  20
ATOM     15  C   UNL     1      -1.278  11.929  20.609  0.00  0.00    +0.000 C 
ATOM     16  C   UNL     1      -0.438  10.790  21.119  0.00  0.00    +0.000 A 
ATOM     17  C   UNL     1      -0.378  10.528  22.495  0.00  0.00    +0.000 A 
ATOM     18  C   UNL     1       0.393   9.476  22.977  0.00  0.00    +0.000 A 
ATOM     19  C   UNL     1       1.108   8.677  22.089  0.00  0.00    +0.000 A 
ATOM     20  C   UNL     1       1.067   8.921  20.706  0.00  0.00    +0.000 A 
ATOM     21  C   UNL     1       0.290   9.982  20.223  0.00  0.00    +0.000 A 
ENDBRANCH  11  20
ENDBRANCH   1  13
BRANCH   4  22
ATOM     22  O   UNL     1       4.901   2.640  17.699  0.00  0.00    +0.000 OA
ATOM     23  H   UNL     1       5.842   2.682  17.976  0.00  0.00    +0.000 HD
ENDBRANCH   4  22
BRANCH   3  24
ATOM     24  S   UNL     1       6.636   5.243  18.190  0.00  0.00    +0.000 S 
BRANCH  24  25
ATOM     25  C   UNL     1       6.750   5.059  16.479  0.00  0.00    +0.000 A 
ATOM     26  N   UNL     1       6.262   4.095  15.731  0.00  0.00    +0.000 NA
ATOM     27  C   UNL     1       6.758   4.417  14.489  0.00  0.00    +0.000 A 
ATOM     28  N   UNL     1       7.541   5.497  14.443  0.00  0.00    +0.000 NA
ATOM     29  N   UNL     1       7.525   5.885  15.739  0.00  0.00    +0.000 N 
ATOM     30  H   UNL     1       8.072   6.693  16.017  0.00  0.00    +0.000 HD
ENDBRANCH  24  25
ENDBRANCH   3  24
TORSDOF 5
ENDMDL
MODEL 2
REMARK VINA RESULT:      -9.4      0.648      1.296
REMARK  Name = 
REMARK  6 active torsions:
REMARK  status: ('A' for Active; 'I' for Inactive)
REMARK    1  A    between atoms: C_1  and  C_2
REMARK    2  A    between atoms: C_6  and  C_7
REMARK    3  A    between atoms: N_9  and  C_10
REMARK    4  A    between atoms: C_12  and  S_13
REMARK    5  A    between atoms: S_13  and  C_14
REMARK    6  A    between atoms: C_19  and  O_20
REMARK                            x       y       z     vdW  Elec       q    Type
REMARK                         _______ _______ _______ _____ _____    ______ ____
ROOT
ATOM      1  C   UNL     1       3.021   5.929  19.649  0.00  0.00    +0.000 A 
ATOM      2  C   UNL     1       4.319   6.039  19.111  0.00  0.00    +0.000 A 
ATOM      3  C   UNL     1       5.040   4.939  18.633  0.00  0.00    +0.000 A 
ATOM      4  C   UNL     1       4.428   3.682  18.714  0.00  0.00    +0.000 A 
ATOM      5  C   UNL     1       3.126   3.517  19.247  0.00  0.00    +0.000 A 
ATOM      6  C   UNL     1       2.510   2.246  19.275  0.00  0.00    +0.000 A 
ATOM      7  C   UNL     1       1.222   2.058  19.770  0.00  0.00    +0.000 A 
ATOM      8  C   UNL     1       0.521   3.142  20.269  0.00  0.00    +0.000 A 
ATOM      9  C   UNL     1       1.103   4.411  20.252  0.00  0.00    +0.000 A 
ATOM     10  C   UNL     1       2.408   4.643  19.737  0.00  0.00    +0.000 A 
ENDROOT
BRANCH   1  13
ATOM     11  C   UNL     1       1.867   8.127  19.304  0.00  0.00    +0.000 C 
ATOM     12  O   UNL     1       1.978   8.186  18.084  0.00  0.00    +0.000 OA
ATOM     13  N   UNL     1       2.320   7.091  20.108  0.00  0.00    +0.000 N 
ATOM     14  H   UNL     1       1.975   7.073  21.055  0.00  0.00    +0.000 HD
BRANCH  11  20
ATOM     15  C   UNL     1      -0.726  10.146  23.190  0.00  0.00    +0.000 C 
ATOM     16  C   UNL     1      -0.124  10.237  21.815  0.00  0.00    +0.000 A 
ATOM     17  C   UNL     1      -0.217  11.433  21.089  0.00  0.00    +0.000 A 
ATOM     18  C   UNL     1       0.339  11.528  19.817  0.00  0.00    +0.000 A 
ATOM     19  C   UNL     1       0.992  10.433  19.262  0.00  0.00    +0.000 A 
ATOM     20  C   UNL     1       1.098   9.222  19.968  0.00  0.00    +0.000 A 
ATOM     21  C   UNL     1       0.536   9.127  21.248  0.00  0.00    +0.000 A 
ENDBRANCH  11  20
ENDBRANCH   1  13
BRANCH   4  22
ATOM     22  O   UNL     1       5.084   2.554  18.282  0.00  0.00    +0.000 OA
ATOM     23  H   UNL     1       5.466   2.781  17.406  0.00  0.00    +0.000 HD
ENDBRANCH   4  22
BRANCH   3  24
ATOM     24  S   UNL     1       6.752   5.245  18.180  0.00  0.00    +0.000 S 
BRANCH  24  25
ATOM     25  C   UNL     1       6.773   5.014  16.471  0.00  0.00    +0.000 A 
ATOM     26  N   UNL     1       6.229   4.042  15.775  0.00  0.00    +0.000 NA
ATOM     27  C   UNL     1       6.666   4.322  14.501  0.00  0.00    +0.000 A 
ATOM     28  N   UNL     1       7.467   5.383  14.386  0.00  0.00    +0.000 NA
ATOM     29  N   UNL     1       7.525   5.805  15.670  0.00  0.00    +0.000 N 
ATOM     30  H   UNL     1       8.102   6.607  15.898  0.00  0.00    +0.000 HD
ENDBRANCH  24  25
ENDBRANCH   3  24
TORSDOF 5
ENDMDL
MODEL 3
REMARK VINA RESULT:      -9.3      1.960      2.085
REMARK  Name = 
REMARK  6 active torsions:
REMARK  status: ('A' for Active; 'I' for Inactive)
REMARK    1  A    between atoms: C_1  and  C_2
REMARK    2  A    between atoms: C_6  and  C_7
REMARK    3  A    between atoms: N_9  and  C_10
REMARK    4  A    between atoms: C_12  and  S_13
REMARK    5  A    between atoms: S_13  and  C_14
REMARK    6  A    between atoms: C_19  and  O_20
REMARK                            x       y       z     vdW  Elec       q    Type
REMARK                         _______ _______ _______ _____ _____    ______ ____
ROOT
ATOM      1  C   UNL     1       2.993   6.261  19.159  0.00  0.00    +0.000 A 
ATOM      2  C   UNL     1       4.297   6.298  18.625  0.00  0.00    +0.000 A 
ATOM      3  C   UNL     1       5.155   5.192  18.636  0.00  0.00    +0.000 A 
ATOM      4  C   UNL     1       4.678   4.012  19.217  0.00  0.00    +0.000 A 
ATOM      5  C   UNL     1       3.376   3.921  19.768  0.00  0.00    +0.000 A 
ATOM      6  C   UNL     1       2.900   2.706  20.307  0.00  0.00    +0.000 A 
ATOM      7  C   UNL     1       1.616   2.582  20.832  0.00  0.00    +0.000 A 
ATOM      8  C   UNL     1       0.778   3.684  20.848  0.00  0.00    +0.000 A 
ATOM      9  C   UNL     1       1.222   4.898  20.320  0.00  0.00    +0.000 A 
ATOM     10  C   UNL     1       2.518   5.056  19.758  0.00  0.00    +0.000 A 
ENDROOT
BRANCH   1  13
ATOM     11  C   UNL     1       2.149   8.367  18.094  0.00  0.00    +0.000 C 
ATOM     12  O   UNL     1       2.850   8.340  17.088  0.00  0.00    +0.000 OA
ATOM     13  N   UNL     1       2.150   7.418  19.106  0.00  0.00    +0.000 N 
ATOM     14  H   UNL     1       1.380   7.453  19.756  0.00  0.00    +0.000 HD
BRANCH  11  20
ATOM     15  C   UNL     1      -2.563  10.260  17.763  0.00  0.00    +0.000 C 
ATOM     16  C   UNL     1      -1.100  10.408  18.074  0.00  0.00    +0.000 A 
ATOM     17  C   UNL     1      -0.606  11.633  18.544  0.00  0.00    +0.000 A 
ATOM     18  C   UNL     1       0.746  11.780  18.836  0.00  0.00    +0.000 A 
ATOM     19  C   UNL     1       1.614  10.707  18.663  0.00  0.00    +0.000 A 
ATOM     20  C   UNL     1       1.144   9.469  18.191  0.00  0.00    +0.000 A 
ATOM     21  C   UNL     1      -0.217   9.323  17.896  0.00  0.00    +0.000 A 
ENDBRANCH  11  20
ENDBRANCH   1  13
BRANCH   4  22
ATOM     22  O   UNL     1       5.472   2.891  19.280  0.00  0.00    +0.000 OA
ATOM     23  H   UNL     1       6.397   3.216  19.328  0.00  0.00    +0.000 HD
ENDBRANCH   4  22
BRANCH   3  24
ATOM     24  S   UNL     1       6.845   5.491  18.102  0.00  0.00    +0.000 S 
BRANCH  24  25
ATOM     25  C   UNL     1       6.817   5.119  16.418  0.00  0.00    +0.000 A 
ATOM     26  N   UNL     1       6.269   4.084  15.823  0.00  0.00    +0.000 NA
ATOM     27  C   UNL     1       6.660   4.264  14.516  0.00  0.00    +0.000 A 
ATOM     28  N   UNL     1       7.437   5.324  14.288  0.00  0.00    +0.000 NA
ATOM     29  N   UNL     1       7.527   5.852  15.530  0.00  0.00    +0.000 N 
ATOM     30  H   UNL     1       8.096   6.681  15.672  0.00  0.00    +0.000 HD
ENDBRANCH  24  25
ENDBRANCH   3  24
TORSDOF 5
ENDMDL
MODEL 4
REMARK VINA RESULT:      -9.2      1.482      1.975
REMARK  Name = 
REMARK  6 active torsions:
REMARK  status: ('A' for Active; 'I' for Inactive)
REMARK    1  A    between atoms: C_1  and  C_2
REMARK    2  A    between atoms: C_6  and  C_7
REMARK    3  A    between atoms: N_9  and  C_10
REMARK    4  A    between atoms: C_12  and  S_13
REMARK    5  A    between atoms: S_13  and  C_14
REMARK    6  A    between atoms: C_19  and  O_20
REMARK                            x       y       z     vdW  Elec       q    Type
REMARK                         _______ _______ _______ _____ _____    ______ ____
ROOT
ATOM      1  C   UNL     1       2.964   6.528  19.161  0.00  0.00    +0.000 A 
ATOM      2  C   UNL     1       4.155   6.714  18.431  0.00  0.00    +0.000 A 
ATOM      3  C   UNL     1       5.097   5.696  18.238  0.00  0.00    +0.000 A 
ATOM      4  C   UNL     1       4.826   4.451  18.816  0.00  0.00    +0.000 A 
ATOM      5  C   UNL     1       3.645   4.211  19.560  0.00  0.00    +0.000 A 
ATOM      6  C   UNL     1       3.371   2.931  20.093  0.00  0.00    +0.000 A 
ATOM      7  C   UNL     1       2.206   2.661  20.808  0.00  0.00    +0.000 A 
ATOM      8  C   UNL     1       1.290   3.676  21.022  0.00  0.00    +0.000 A 
ATOM      9  C   UNL     1       1.533   4.950  20.505  0.00  0.00    +0.000 A 
ATOM     10  C   UNL     1       2.701   5.257  19.755  0.00  0.00    +0.000 A 
ENDROOT
BRANCH   1  13
ATOM     11  C   UNL     1       1.820   8.624  18.399  0.00  0.00    +0.000 C 
ATOM     12  O   UNL     1       2.391   8.745  17.321  0.00  0.00    +0.000 OA
ATOM     13  N   UNL     1       2.026   7.599  19.313  0.00  0.00    +0.000 N 
ATOM     14  H   UNL     1       1.342   7.509  20.048  0.00  0.00    +0.000 HD
BRANCH  11  20
ATOM     15  C   UNL     1      -2.499  11.114  17.379  0.00  0.00    +0.000 C 
ATOM     16  C   UNL     1      -1.333  10.806  18.277  0.00  0.00    +0.000 A 
ATOM     17  C   UNL     1      -1.235  11.424  19.532  0.00  0.00    +0.000 A 
ATOM     18  C   UNL     1      -0.162  11.144  20.371  0.00  0.00    +0.000 A 
ATOM     19  C   UNL     1       0.819  10.244  19.966  0.00  0.00    +0.000 A 
ATOM     20  C   UNL     1       0.745   9.613  18.712  0.00  0.00    +0.000 A 
ATOM     21  C   UNL     1      -0.336   9.898  17.868  0.00  0.00    +0.000 A 
ENDBRANCH  11  20
ENDBRANCH   1  13
BRANCH   4  22
ATOM     22  O   UNL     1       5.715   3.409  18.685  0.00  0.00    +0.000 OA
ATOM     23  H   UNL     1       5.241   2.709  18.185  0.00  0.00    +0.000 HD
ENDBRANCH   4  22
BRANCH   3  24
ATOM     24  S   UNL     1       6.644   6.179  17.462  0.00  0.00    +0.000 S 
BRANCH  24  25
ATOM     25  C   UNL     1       6.624   5.349  15.951  0.00  0.00    +0.000 A 
ATOM     26  N   UNL     1       7.492   5.427  14.968  0.00  0.00    +0.000 NA
ATOM     27  C   UNL     1       6.903   4.646  14.002  0.00  0.00    +0.000 A 
ATOM     28  N   UNL     1       5.717   4.126  14.324  0.00  0.00    +0.000 NA
ATOM     29  N   UNL     1       5.559   4.600  15.581  0.00  0.00    +0.000 N 
ATOM     30  H   UNL     1       4.706   4.380  16.085  0.00  0.00    +0.000 HD
ENDBRANCH  24  25
ENDBRANCH   3  24
TORSDOF 5
ENDMDL
MODEL 5
REMARK VINA RESULT:      -9.2      1.708      1.908
REMARK  Name = 
REMARK  6 active torsions:
REMARK  status: ('A' for Active; 'I' for Inactive)
REMARK    1  A    between atoms: C_1  and  C_2
REMARK    2  A    between atoms: C_6  and  C_7
REMARK    3  A    between atoms: N_9  and  C_10
REMARK    4  A    between atoms: C_12  and  S_13
REMARK    5  A    between atoms: S_13  and  C_14
REMARK    6  A    between atoms: C_19  and  O_20
REMARK                            x       y       z     vdW  Elec       q    Type
REMARK                         _______ _______ _______ _____ _____    ______ ____
ROOT
ATOM      1  C   UNL     1       2.461   6.430  19.336  0.00  0.00    +0.000 A 
ATOM      2  C   UNL     1       3.326   6.819  18.294  0.00  0.00    +0.000 A 
ATOM      3  C   UNL     1       3.923   5.903  17.419  0.00  0.00    +0.000 A 
ATOM      4  C   UNL     1       3.641   4.546  17.616  0.00  0.00    +0.000 A 
ATOM      5  C   UNL     1       2.778   4.103  18.649  0.00  0.00    +0.000 A 
ATOM      6  C   UNL     1       2.471   2.732  18.798  0.00  0.00    +0.000 A 
ATOM      7  C   UNL     1       1.607   2.271  19.789  0.00  0.00    +0.000 A 
ATOM      8  C   UNL     1       1.041   3.174  20.671  0.00  0.00    +0.000 A 
ATOM      9  C   UNL     1       1.325   4.536  20.547  0.00  0.00    +0.000 A 
ATOM     10  C   UNL     1       2.186   5.044  19.536  0.00  0.00    +0.000 A 
ENDROOT
BRANCH   1  13
ATOM     11  C   UNL     1       1.351   8.634  19.780  0.00  0.00    +0.000 C 
ATOM     12  O   UNL     1       1.313   9.039  18.623  0.00  0.00    +0.000 OA
ATOM     13  N   UNL     1       1.863   7.412  20.192  0.00  0.00    +0.000 N 
ATOM     14  H   UNL     1       1.636   7.123  21.130  0.00  0.00    +0.000 HD
BRANCH  11  20
ATOM     15  C   UNL     1      -0.337  13.078  21.596  0.00  0.00    +0.000 C 
ATOM     16  C   UNL     1      -0.140  11.592  21.714  0.00  0.00    +0.000 A 
ATOM     17  C   UNL     1      -0.629  10.911  22.839  0.00  0.00    +0.000 A 
ATOM     18  C   UNL     1      -0.454   9.536  22.957  0.00  0.00    +0.000 A 
ATOM     19  C   UNL     1       0.207   8.831  21.955  0.00  0.00    +0.000 A 
ATOM     20  C   UNL     1       0.708   9.491  20.820  0.00  0.00    +0.000 A 
ATOM     21  C   UNL     1       0.533  10.877  20.703  0.00  0.00    +0.000 A 
ENDBRANCH  11  20
ENDBRANCH   1  13
BRANCH   4  22
ATOM     22  O   UNL     1       4.206   3.588  16.808  0.00  0.00    +0.000 OA
ATOM     23  H   UNL     1       4.808   3.068  17.383  0.00  0.00    +0.000 HD
ENDBRANCH   4  22
BRANCH   3  24
ATOM     24  S   UNL     1       5.155   6.565  16.291  0.00  0.00    +0.000 S 
BRANCH  24  25
ATOM     25  C   UNL     1       6.550   6.777  17.283  0.00  0.00    +0.000 A 
ATOM     26  N   UNL     1       7.006   5.982  18.224  0.00  0.00    +0.000 NA
ATOM     27  C   UNL     1       8.056   6.711  18.733  0.00  0.00    +0.000 A 
ATOM     28  N   UNL     1       8.244   7.912  18.181  0.00  0.00    +0.000 NA
ATOM     29  N   UNL     1       7.256   7.930  17.256  0.00  0.00    +0.000 N 
ATOM     30  H   UNL     1       7.136   8.759  16.683  0.00  0.00    +0.000 HD
ENDBRANCH  24  25
ENDBRANCH   3  24
TORSDOF 5
ENDMDL
MODEL 6
REMARK VINA RESULT:      -9.2      1.628      2.198
REMARK  Name = 
REMARK  6 active torsions:
REMARK  status: ('A' for Active; 'I' for Inactive)
REMARK    1  A    between atoms: C_1  and  C_2
REMARK    2  A    between atoms: C_6  and  C_7
REMARK    3  A    between atoms: N_9  and  C_10
REMARK    4  A    between atoms: C_12  and  S_13
REMARK    5  A    between atoms: S_13  and  C_14
REMARK    6  A    between atoms: C_19  and  O_20
REMARK                            x       y       z     vdW  Elec       q    Type
REMARK                         _______ _______ _______ _____ _____    ______ ____
ROOT
ATOM      1  C   UNL     1       2.765   6.282  18.929  0.00  0.00    +0.000 A 
ATOM      2  C   UNL     1       3.718   6.437  17.902  0.00  0.00    +0.000 A 
ATOM      3  C   UNL     1       4.321   5.352  17.254  0.00  0.00    +0.000 A 
ATOM      4  C   UNL     1       3.953   4.067  17.670  0.00  0.00    +0.000 A 
ATOM      5  C   UNL     1       3.000   3.857  18.697  0.00  0.00    +0.000 A 
ATOM      6  C   UNL     1       2.610   2.550  19.066  0.00  0.00    +0.000 A 
ATOM      7  C   UNL     1       1.658   2.315  20.056  0.00  0.00    +0.000 A 
ATOM      8  C   UNL     1       1.084   3.387  20.716  0.00  0.00    +0.000 A 
ATOM      9  C   UNL     1       1.449   4.690  20.370  0.00  0.00    +0.000 A 
ATOM     10  C   UNL     1       2.402   4.968  19.353  0.00  0.00    +0.000 A 
ENDROOT
BRANCH   1  13
ATOM     11  C   UNL     1       1.670   8.536  18.875  0.00  0.00    +0.000 C 
ATOM     12  O   UNL     1       1.650   8.685  17.658  0.00  0.00    +0.000 OA
ATOM     13  N   UNL     1       2.165   7.427  19.546  0.00  0.00    +0.000 N 
ATOM     14  H   UNL     1       1.924   7.347  20.521  0.00  0.00    +0.000 HD
BRANCH  11  20
ATOM     15  C   UNL     1      -0.695  10.244  23.045  0.00  0.00    +0.000 C 
ATOM     16  C   UNL     1      -0.085  10.465  21.689  0.00  0.00    +0.000 A 
ATOM     17  C   UNL     1      -0.050  11.756  21.141  0.00  0.00    +0.000 A 
ATOM     18  C   UNL     1       0.514  11.972  19.888  0.00  0.00    +0.000 A 
ATOM     19  C   UNL     1       1.047  10.904  19.174  0.00  0.00    +0.000 A 
ATOM     20  C   UNL     1       1.022   9.601  19.699  0.00  0.00    +0.000 A 
ATOM     21  C   UNL     1       0.452   9.384  20.961  0.00  0.00    +0.000 A 
ENDBRANCH  11  20
ENDBRANCH   1  13
BRANCH   4  22
ATOM     22  O   UNL     1       4.518   2.955  17.092  0.00  0.00    +0.000 OA
ATOM     23  H   UNL     1       5.014   3.278  16.308  0.00  0.00    +0.000 HD
ENDBRANCH   4  22
BRANCH   3  24
ATOM     24  S   UNL     1       5.660   5.745  16.122  0.00  0.00    +0.000 S 
BRANCH  24  25
ATOM     25  C   UNL     1       6.852   6.476  17.131  0.00  0.00    +0.000 A 
ATOM     26  N   UNL     1       7.480   5.950  18.158  0.00  0.00    +0.000 NA
ATOM     27  C   UNL     1       8.209   7.018  18.627  0.00  0.00    +0.000 A 
ATOM     28  N   UNL     1       8.037   8.166  17.968  0.00  0.00    +0.000 NA
ATOM     29  N   UNL     1       7.154   7.790  17.016  0.00  0.00    +0.000 N 
ATOM     30  H   UNL     1       6.810   8.485  16.362  0.00  0.00    +0.000 HD
ENDBRANCH  24  25
ENDBRANCH   3  24
TORSDOF 5
ENDMDL
MODEL 7
REMARK VINA RESULT:      -9.1      1.102      1.313
REMARK  Name = 
REMARK  6 active torsions:
REMARK  status: ('A' for Active; 'I' for Inactive)
REMARK    1  A    between atoms: C_1  and  C_2
REMARK    2  A    between atoms: C_6  and  C_7
REMARK    3  A    between atoms: N_9  and  C_10
REMARK    4  A    between atoms: C_12  and  S_13
REMARK    5  A    between atoms: S_13  and  C_14
REMARK    6  A    between atoms: C_19  and  O_20
REMARK                            x       y       z     vdW  Elec       q    Type
REMARK                         _______ _______ _______ _____ _____    ______ ____
ROOT
ATOM      1  C   UNL     1       3.218   6.179  19.615  0.00  0.00    +0.000 A 
ATOM      2  C   UNL     1       4.499   6.205  19.027  0.00  0.00    +0.000 A 
ATOM      3  C   UNL     1       5.226   5.045  18.735  0.00  0.00    +0.000 A 
ATOM      4  C   UNL     1       4.638   3.817  19.062  0.00  0.00    +0.000 A 
ATOM      5  C   UNL     1       3.354   3.736  19.655  0.00  0.00    +0.000 A 
ATOM      6  C   UNL     1       2.762   2.484  19.931  0.00  0.00    +0.000 A 
ATOM      7  C   UNL     1       1.491   2.374  20.491  0.00  0.00    +0.000 A 
ATOM      8  C   UNL     1       0.785   3.522  20.805  0.00  0.00    +0.000 A 
ATOM      9  C   UNL     1       1.345   4.773  20.541  0.00  0.00    +0.000 A 
ATOM     10  C   UNL     1       2.630   4.924  19.953  0.00  0.00    +0.000 A 
ENDROOT
BRANCH   1  13
ATOM     11  C   UNL     1       1.908   8.199  18.916  0.00  0.00    +0.000 C 
ATOM     12  O   UNL     1       1.871   7.968  17.712  0.00  0.00    +0.000 OA
ATOM     13  N   UNL     1       2.510   7.397  19.875  0.00  0.00    +0.000 N 
ATOM     14  H   UNL     1       2.280   7.596  20.836  0.00  0.00    +0.000 HD
BRANCH  11  20
ATOM     15  C   UNL     1       0.341  13.027  18.552  0.00  0.00    +0.000 C 
ATOM     16  C   UNL     1       0.363  11.695  19.249  0.00  0.00    +0.000 A 
ATOM     17  C   UNL     1      -0.402  11.500  20.408  0.00  0.00    +0.000 A 
ATOM     18  C   UNL     1      -0.390  10.271  21.059  0.00  0.00    +0.000 A 
ATOM     19  C   UNL     1       0.383   9.228  20.558  0.00  0.00    +0.000 A 
ATOM     20  C   UNL     1       1.160   9.398  19.400  0.00  0.00    +0.000 A 
ATOM     21  C   UNL     1       1.148  10.637  18.746  0.00  0.00    +0.000 A 
ENDBRANCH  11  20
ENDBRANCH   1  13
BRANCH   4  22
ATOM     22  O   UNL     1       5.302   2.637  18.822  0.00  0.00    +0.000 OA
ATOM     23  H   UNL     1       5.690   2.364  19.682  0.00  0.00    +0.000 HD
ENDBRANCH   4  22
BRANCH   3  24
ATOM     24  S   UNL     1       6.920   5.284  18.183  0.00  0.00    +0.000 S 
BRANCH  24  25
ATOM     25  C   UNL     1       6.849   4.967  16.490  0.00  0.00    +0.000 A 
ATOM     26  N   UNL     1       6.252   3.973  15.873  0.00  0.00    +0.000 NA
ATOM     27  C   UNL     1       6.628   4.178  14.565  0.00  0.00    +0.000 A 
ATOM     28  N   UNL     1       7.441   5.216  14.356  0.00  0.00    +0.000 NA
ATOM     29  N   UNL     1       7.572   5.701  15.612  0.00  0.00    +0.000 N 
ATOM     30  H   UNL     1       8.174   6.502  15.769  0.00  0.00    +0.000 HD
ENDBRANCH  24  25
ENDBRANCH   3  24
TORSDOF 5
ENDMDL
MODEL 8
REMARK VINA RESULT:      -9.0      1.493      2.049
REMARK  Name = 
REMARK  6 active torsions:
REMARK  status: ('A' for Active; 'I' for Inactive)
REMARK    1  A    between atoms: C_1  and  C_2
REMARK    2  A    between atoms: C_6  and  C_7
REMARK    3  A    between atoms: N_9  and  C_10
REMARK    4  A    between atoms: C_12  and  S_13
REMARK    5  A    between atoms: S_13  and  C_14
REMARK    6  A    between atoms: C_19  and  O_20
REMARK                            x       y       z     vdW  Elec       q    Type
REMARK                         _______ _______ _______ _____ _____    ______ ____
ROOT
ATOM      1  C   UNL     1       2.965   6.547  19.203  0.00  0.00    +0.000 A 
ATOM      2  C   UNL     1       4.156   6.732  18.473  0.00  0.00    +0.000 A 
ATOM      3  C   UNL     1       5.079   5.704  18.250  0.00  0.00    +0.000 A 
ATOM      4  C   UNL     1       4.790   4.448  18.796  0.00  0.00    +0.000 A 
ATOM      5  C   UNL     1       3.607   4.209  19.539  0.00  0.00    +0.000 A 
ATOM      6  C   UNL     1       3.314   2.921  20.040  0.00  0.00    +0.000 A 
ATOM      7  C   UNL     1       2.148   2.653  20.752  0.00  0.00    +0.000 A 
ATOM      8  C   UNL     1       1.249   3.676  20.997  0.00  0.00    +0.000 A 
ATOM      9  C   UNL     1       1.512   4.959  20.512  0.00  0.00    +0.000 A 
ATOM     10  C   UNL     1       2.682   5.266  19.765  0.00  0.00    +0.000 A 
ENDROOT
BRANCH   1  13
ATOM     11  C   UNL     1       1.813   8.651  18.476  0.00  0.00    +0.000 C 
ATOM     12  O   UNL     1       2.340   8.759  17.374  0.00  0.00    +0.000 OA
ATOM     13  N   UNL     1       2.046   7.630  19.387  0.00  0.00    +0.000 N 
ATOM     14  H   UNL     1       1.392   7.552  20.150  0.00  0.00    +0.000 HD
BRANCH  11  20
ATOM     15  C   UNL     1      -0.145  12.357  21.362  0.00  0.00    +0.000 C 
ATOM     16  C   UNL     1      -0.195  11.450  20.164  0.00  0.00    +0.000 A 
ATOM     17  C   UNL     1      -1.256  11.556  19.252  0.00  0.00    +0.000 A 
ATOM     18  C   UNL     1      -1.311  10.723  18.139  0.00  0.00    +0.000 A 
ATOM     19  C   UNL     1      -0.309   9.781  17.927  0.00  0.00    +0.000 A 
ATOM     20  C   UNL     1       0.763   9.654  18.827  0.00  0.00    +0.000 A 
ATOM     21  C   UNL     1       0.816  10.493  19.948  0.00  0.00    +0.000 A 
ENDBRANCH  11  20
ENDBRANCH   1  13
BRANCH   4  22
ATOM     22  O   UNL     1       5.660   3.396  18.634  0.00  0.00    +0.000 OA
ATOM     23  H   UNL     1       5.130   2.581  18.772  0.00  0.00    +0.000 HD
ENDBRANCH   4  22
BRANCH   3  24
ATOM     24  S   UNL     1       6.632   6.181  17.479  0.00  0.00    +0.000 S 
BRANCH  24  25
ATOM     25  C   UNL     1       6.614   5.350  15.969  0.00  0.00    +0.000 A 
ATOM     26  N   UNL     1       7.487   5.424  14.990  0.00  0.00    +0.000 NA
ATOM     27  C   UNL     1       6.899   4.645  14.020  0.00  0.00    +0.000 A 
ATOM     28  N   UNL     1       5.709   4.130  14.338  0.00  0.00    +0.000 NA
ATOM     29  N   UNL     1       5.548   4.606  15.595  0.00  0.00    +0.000 N 
ATOM     30  H   UNL     1       4.692   4.390  16.095  0.00  0.00    +0.000 HD
ENDBRANCH  24  25
ENDBRANCH   3  24
TORSDOF 5
ENDMDL
MODEL 9
REMARK VINA RESULT:      -9.0      1.173      1.627
REMARK  Name = 
REMARK  6 active torsions:
REMARK  status: ('A' for Active; 'I' for Inactive)
REMARK    1  A    between atoms: C_1  and  C_2
REMARK    2  A    between atoms: C_6  and  C_7
REMARK    3  A    between atoms: N_9  and  C_10
REMARK    4  A    between atoms: C_12  and  S_13
REMARK    5  A    between atoms: S_13  and  C_14
REMARK    6  A    between atoms: C_19  and  O_20
REMARK                            x       y       z     vdW  Elec       q    Type
REMARK                         _______ _______ _______ _____ _____    ______ ____
ROOT
ATOM      1  C   UNL     1       2.827   6.326  19.304  0.00  0.00    +0.000 A 
ATOM      2  C   UNL     1       4.106   6.496  18.737  0.00  0.00    +0.000 A 
ATOM      3  C   UNL     1       5.032   5.453  18.623  0.00  0.00    +0.000 A 
ATOM      4  C   UNL     1       4.653   4.198  19.112  0.00  0.00    +0.000 A 
ATOM      5  C   UNL     1       3.379   3.973  19.692  0.00  0.00    +0.000 A 
ATOM      6  C   UNL     1       3.001   2.686  20.134  0.00  0.00    +0.000 A 
ATOM      7  C   UNL     1       1.748   2.432  20.685  0.00  0.00    +0.000 A 
ATOM      8  C   UNL     1       0.843   3.470  20.824  0.00  0.00    +0.000 A 
ATOM      9  C   UNL     1       1.189   4.753  20.393  0.00  0.00    +0.000 A 
ATOM     10  C   UNL     1       2.451   5.045  19.808  0.00  0.00    +0.000 A 
ENDROOT
BRANCH   1  13
ATOM     11  C   UNL     1       1.579   8.118  20.535  0.00  0.00    +0.000 C 
ATOM     12  O   UNL     1       2.043   7.910  21.651  0.00  0.00    +0.000 OA
ATOM     13  N   UNL     1       1.910   7.424  19.380  0.00  0.00    +0.000 N 
ATOM     14  H   UNL     1       1.619   7.838  18.508  0.00  0.00    +0.000 HD
BRANCH  11  20
ATOM     15  C   UNL     1      -1.427  11.785  22.383  0.00  0.00    +0.000 C 
ATOM     16  C   UNL     1      -0.774  11.066  21.235  0.00  0.00    +0.000 A 
ATOM     17  C   UNL     1      -0.979  11.516  19.923  0.00  0.00    +0.000 A 
ATOM     18  C   UNL     1      -0.378  10.859  18.854  0.00  0.00    +0.000 A 
ATOM     19  C   UNL     1       0.431   9.751  19.086  0.00  0.00    +0.000 A 
ATOM     20  C   UNL     1       0.650   9.280  20.392  0.00  0.00    +0.000 A 
ATOM     21  C   UNL     1       0.043   9.941  21.467  0.00  0.00    +0.000 A 
ENDBRANCH  11  20
ENDBRANCH   1  13
BRANCH   4  22
ATOM     22  O   UNL     1       5.518   3.131  19.051  0.00  0.00    +0.000 OA
ATOM     23  H   UNL     1       6.129   3.318  18.305  0.00  0.00    +0.000 HD
ENDBRANCH   4  22
BRANCH   3  24
ATOM     24  S   UNL     1       6.680   5.908  18.067  0.00  0.00    +0.000 S 
BRANCH  24  25
ATOM     25  C   UNL     1       6.743   5.323  16.446  0.00  0.00    +0.000 A 
ATOM     26  N   UNL     1       6.140   4.274  15.937  0.00  0.00    +0.000 NA
ATOM     27  C   UNL     1       6.647   4.243  14.658  0.00  0.00    +0.000 A 
ATOM     28  N   UNL     1       7.544   5.189  14.371  0.00  0.00    +0.000 NA
ATOM     29  N   UNL     1       7.592   5.865  15.542  0.00  0.00    +0.000 N 
ATOM     30  H   UNL     1       8.231   6.648  15.631  0.00  0.00    +0.000 HD
ENDBRANCH  24  25
ENDBRANCH   3  24
TORSDOF 5
ENDMDL
