MODEL 1
REMARK VINA RESULT:      -6.5      0.000      0.000
REMARK  Name = 
REMARK  6 active torsions:
REMARK  status: ('A' for Active; 'I' for Inactive)
REMARK    1  A    between atoms: C_1  and  C_2
REMARK    2  A    between atoms: C_5  and  C_6
REMARK    3  A    between atoms: C_7  and  N_8
REMARK    4  A    between atoms: C_12  and  O_13
REMARK    5  A    between atoms: O_13  and  C_14
REMARK    6  A    between atoms: C_14  and  C_15
REMARK                            x       y       z     vdW  Elec       q    Type
REMARK                         _______ _______ _______ _____ _____    ______ ____
ROOT
ATOM      1  N   UNL     1       4.968   4.764  18.564  0.00  0.00    +0.000 N 
ATOM      2  C   UNL     1       6.164   5.218  19.267  0.00  0.00    +0.000 C 
ATOM      3  C   UNL     1       7.193   5.668  18.210  0.00  0.00    +0.000 C 
ATOM      4  C   UNL     1       7.429   4.597  17.131  0.00  0.00    +0.000 C 
ATOM      5  C   UNL     1       6.104   4.117  16.509  0.00  0.00    +0.000 C 
ATOM      6  C   UNL     1       5.213   3.620  17.672  0.00  0.00    +0.000 C 
ENDROOT
BRANCH   1  13
ATOM      7  C   UNL     1       1.955   2.763  21.741  0.00  0.00    +0.000 C 
ATOM      8  C   UNL     1       2.271   3.847  20.759  0.00  0.00    +0.000 A 
ATOM      9  C   UNL     1       1.387   4.897  20.567  0.00  0.00    +0.000 A 
ATOM     10  N   UNL     1       1.642   5.917  19.731  0.00  0.00    +0.000 NA
ATOM     11  C   UNL     1       2.843   5.866  19.081  0.00  0.00    +0.000 A 
ATOM     12  C   UNL     1       3.175   7.108  18.305  0.00  0.00    +0.000 C 
ATOM     13  C   UNL     1       3.749   4.790  19.230  0.00  0.00    +0.000 A 
ATOM     14  N   UNL     1       3.457   3.779  20.093  0.00  0.00    +0.000 NA
ENDBRANCH   1  13
BRANCH   5  15
ATOM     15  O   UNL     1       5.389   5.158  15.821  0.00  0.00    +0.000 OA
BRANCH  15  16
ATOM     16  C   UNL     1       5.680   5.298  14.439  0.00  0.00    +0.000 C 
BRANCH  16  17
ATOM     17  C   UNL     1       5.809   3.927  13.843  0.00  0.00    +0.000 C 
ATOM     18  C   UNL     1       5.102   3.564  12.558  0.00  0.00    +0.000 C 
ATOM     19  C   UNL     1       6.599   3.729  12.567  0.00  0.00    +0.000 C 
ENDBRANCH  16  17
ENDBRANCH  15  16
ENDBRANCH   5  15
TORSDOF 4
ENDMDL
MODEL 2
REMARK VINA RESULT:      -6.4      2.146      5.667
REMARK  Name = 
REMARK  6 active torsions:
REMARK  status: ('A' for Active; 'I' for Inactive)
REMARK    1  A    between atoms: C_1  and  C_2
REMARK    2  A    between atoms: C_5  and  C_6
REMARK    3  A    between atoms: C_7  and  N_8
REMARK    4  A    between atoms: C_12  and  O_13
REMARK    5  A    between atoms: O_13  and  C_14
REMARK    6  A    between atoms: C_14  and  C_15
REMARK                            x       y       z     vdW  Elec       q    Type
REMARK                         _______ _______ _______ _____ _____    ______ ____
ROOT
ATOM      1  N   UNL     1       4.767   5.332  17.544  0.00  0.00    +0.000 N 
ATOM      2  C   UNL     1       5.346   5.137  18.870  0.00  0.00    +0.000 C 
ATOM      3  C   UNL     1       4.202   4.761  19.835  0.00  0.00    +0.000 C 
ATOM      4  C   UNL     1       3.029   5.753  19.765  0.00  0.00    +0.000 C 
ATOM      5  C   UNL     1       2.545   5.960  18.317  0.00  0.00    +0.000 C 
ATOM      6  C   UNL     1       3.773   6.415  17.492  0.00  0.00    +0.000 C 
ENDROOT
BRANCH   1  13
ATOM      7  C   UNL     1       5.436   3.495  13.144  0.00  0.00    +0.000 C 
ATOM      8  C   UNL     1       5.935   4.301  14.302  0.00  0.00    +0.000 A 
ATOM      9  C   UNL     1       7.165   4.935  14.235  0.00  0.00    +0.000 A 
ATOM     10  N   UNL     1       7.640   5.705  15.228  0.00  0.00    +0.000 NA
ATOM     11  C   UNL     1       6.826   5.838  16.317  0.00  0.00    +0.000 A 
ATOM     12  C   UNL     1       7.300   6.850  17.320  0.00  0.00    +0.000 C 
ATOM     13  C   UNL     1       5.581   5.175  16.429  0.00  0.00    +0.000 A 
ATOM     14  N   UNL     1       5.132   4.409  15.397  0.00  0.00    +0.000 NA
ENDBRANCH   1  13
BRANCH   5  15
ATOM     15  O   UNL     1       2.028   4.762  17.714  0.00  0.00    +0.000 OA
BRANCH  15  16
ATOM     16  C   UNL     1       1.247   3.933  18.559  0.00  0.00    +0.000 C 
BRANCH  16  17
ATOM     17  C   UNL     1       1.576   2.501  18.251  0.00  0.00    +0.000 C 
ATOM     18  C   UNL     1       2.922   2.114  17.685  0.00  0.00    +0.000 C 
ATOM     19  C   UNL     1       2.577   1.755  19.106  0.00  0.00    +0.000 C 
ENDBRANCH  16  17
ENDBRANCH  15  16
ENDBRANCH   5  15
TORSDOF 4
ENDMDL
MODEL 3
REMARK VINA RESULT:      -6.3      2.197      6.238
REMARK  Name = 
REMARK  6 active torsions:
REMARK  status: ('A' for Active; 'I' for Inactive)
REMARK    1  A    between atoms: C_1  and  C_2
REMARK    2  A    between atoms: C_5  and  C_6
REMARK    3  A    between atoms: C_7  and  N_8
REMARK    4  A    between atoms: C_12  and  O_13
REMARK    5  A    between atoms: O_13  and  C_14
REMARK    6  A    between atoms: C_14  and  C_15
REMARK                            x       y       z     vdW  Elec       q    Type
REMARK                         _______ _______ _______ _____ _____    ______ ____
ROOT
ATOM      1  N   UNL     1       3.677   3.419  17.647  0.00  0.00    +0.000 N 
ATOM      2  C   UNL     1       2.419   3.668  16.950  0.00  0.00    +0.000 C 
ATOM      3  C   UNL     1       1.291   3.687  18.002  0.00  0.00    +0.000 C 
ATOM      4  C   UNL     1       1.311   2.441  18.903  0.00  0.00    +0.000 C 
ATOM      5  C   UNL     1       2.702   2.212  19.524  0.00  0.00    +0.000 C 
ATOM      6  C   UNL     1       3.711   2.129  18.353  0.00  0.00    +0.000 C 
ENDROOT
BRANCH   1  13
ATOM      7  C   UNL     1       6.367   3.946  13.690  0.00  0.00    +0.000 C 
ATOM      8  C   UNL     1       6.188   4.110  15.166  0.00  0.00    +0.000 A 
ATOM      9  C   UNL     1       7.163   4.737  15.925  0.00  0.00    +0.000 A 
ATOM     10  N   UNL     1       7.032   4.949  17.245  0.00  0.00    +0.000 NA
ATOM     11  C   UNL     1       5.862   4.516  17.802  0.00  0.00    +0.000 A 
ATOM     12  C   UNL     1       5.669   4.936  19.231  0.00  0.00    +0.000 C 
ATOM     13  C   UNL     1       4.863   3.843  17.060  0.00  0.00    +0.000 A 
ATOM     14  N   UNL     1       5.031   3.654  15.722  0.00  0.00    +0.000 NA
ENDBRANCH   1  13
BRANCH   5  15
ATOM     15  O   UNL     1       3.121   3.280  20.391  0.00  0.00    +0.000 OA
BRANCH  15  16
ATOM     16  C   UNL     1       2.088   3.931  21.112  0.00  0.00    +0.000 C 
BRANCH  16  17
ATOM     17  C   UNL     1       2.370   5.405  21.113  0.00  0.00    +0.000 C 
ATOM     18  C   UNL     1       2.486   6.179  19.821  0.00  0.00    +0.000 C 
ATOM     19  C   UNL     1       1.287   6.382  20.709  0.00  0.00    +0.000 C 
ENDBRANCH  16  17
ENDBRANCH  15  16
ENDBRANCH   5  15
TORSDOF 4
ENDMDL
MODEL 4
REMARK VINA RESULT:      -6.2      1.987      5.900
REMARK  Name = 
REMARK  6 active torsions:
REMARK  status: ('A' for Active; 'I' for Inactive)
REMARK    1  A    between atoms: C_1  and  C_2
REMARK    2  A    between atoms: C_5  and  C_6
REMARK    3  A    between atoms: C_7  and  N_8
REMARK    4  A    between atoms: C_12  and  O_13
REMARK    5  A    between atoms: O_13  and  C_14
REMARK    6  A    between atoms: C_14  and  C_15
REMARK                            x       y       z     vdW  Elec       q    Type
REMARK                         _______ _______ _______ _____ _____    ______ ____
ROOT
ATOM      1  N   UNL     1       3.958   3.985  17.747  0.00  0.00    +0.000 N 
ATOM      2  C   UNL     1       2.722   3.593  17.076  0.00  0.00    +0.000 C 
ATOM      3  C   UNL     1       1.541   4.029  17.967  0.00  0.00    +0.000 C 
ATOM      4  C   UNL     1       1.690   3.538  19.417  0.00  0.00    +0.000 C 
ATOM      5  C   UNL     1       3.059   3.923  20.009  0.00  0.00    +0.000 C 
ATOM      6  C   UNL     1       4.139   3.348  19.061  0.00  0.00    +0.000 C 
ENDROOT
BRANCH   1  13
ATOM      7  C   UNL     1       6.147   3.777  13.464  0.00  0.00    +0.000 C 
ATOM      8  C   UNL     1       6.189   4.089  14.927  0.00  0.00    +0.000 A 
ATOM      9  C   UNL     1       7.331   4.627  15.497  0.00  0.00    +0.000 A 
ATOM     10  N   UNL     1       7.406   4.966  16.794  0.00  0.00    +0.000 NA
ATOM     11  C   UNL     1       6.272   4.758  17.528  0.00  0.00    +0.000 A 
ATOM     12  C   UNL     1       6.328   5.320  18.920  0.00  0.00    +0.000 C 
ATOM     13  C   UNL     1       5.102   4.179  16.982  0.00  0.00    +0.000 A 
ATOM     14  N   UNL     1       5.064   3.856  15.661  0.00  0.00    +0.000 NA
ENDBRANCH   1  13
BRANCH   5  15
ATOM     15  O   UNL     1       3.261   5.344  20.097  0.00  0.00    +0.000 OA
BRANCH  15  16
ATOM     16  C   UNL     1       2.086   6.138  20.079  0.00  0.00    +0.000 C 
BRANCH  16  17
ATOM     17  C   UNL     1       2.398   7.428  19.379  0.00  0.00    +0.000 C 
ATOM     18  C   UNL     1       3.204   7.448  18.101  0.00  0.00    +0.000 C 
ATOM     19  C   UNL     1       1.730   7.753  18.060  0.00  0.00    +0.000 C 
ENDBRANCH  16  17
ENDBRANCH  15  16
ENDBRANCH   5  15
TORSDOF 4
ENDMDL
MODEL 5
REMARK VINA RESULT:      -6.2      1.531      2.243
REMARK  Name = 
REMARK  6 active torsions:
REMARK  status: ('A' for Active; 'I' for Inactive)
REMARK    1  A    between atoms: C_1  and  C_2
REMARK    2  A    between atoms: C_5  and  C_6
REMARK    3  A    between atoms: C_7  and  N_8
REMARK    4  A    between atoms: C_12  and  O_13
REMARK    5  A    between atoms: O_13  and  C_14
REMARK    6  A    between atoms: C_14  and  C_15
REMARK                            x       y       z     vdW  Elec       q    Type
REMARK                         _______ _______ _______ _____ _____    ______ ____
ROOT
ATOM      1  N   UNL     1       4.481   4.902  18.320  0.00  0.00    +0.000 N 
ATOM      2  C   UNL     1       3.991   6.186  17.825  0.00  0.00    +0.000 C 
ATOM      3  C   UNL     1       5.027   6.734  16.823  0.00  0.00    +0.000 C 
ATOM      4  C   UNL     1       6.450   6.750  17.405  0.00  0.00    +0.000 C 
ATOM      5  C   UNL     1       6.845   5.377  17.981  0.00  0.00    +0.000 C 
ATOM      6  C   UNL     1       5.767   5.000  19.026  0.00  0.00    +0.000 C 
ENDROOT
BRANCH   1  13
ATOM      7  C   UNL     1       1.999   3.130  22.045  0.00  0.00    +0.000 C 
ATOM      8  C   UNL     1       2.352   3.101  20.591  0.00  0.00    +0.000 A 
ATOM      9  C   UNL     1       1.724   2.210  19.735  0.00  0.00    +0.000 A 
ATOM     10  N   UNL     1       1.971   2.173  18.416  0.00  0.00    +0.000 NA
ATOM     11  C   UNL     1       2.882   3.082  17.957  0.00  0.00    +0.000 A 
ATOM     12  C   UNL     1       2.993   3.140  16.460  0.00  0.00    +0.000 C 
ATOM     13  C   UNL     1       3.564   3.980  18.811  0.00  0.00    +0.000 A 
ATOM     14  N   UNL     1       3.279   3.992  20.142  0.00  0.00    +0.000 NA
ENDBRANCH   1  13
BRANCH   5  15
ATOM     15  O   UNL     1       6.883   4.335  16.991  0.00  0.00    +0.000 OA
BRANCH  15  16
ATOM     16  C   UNL     1       7.092   4.760  15.654  0.00  0.00    +0.000 C 
BRANCH  16  17
ATOM     17  C   UNL     1       6.319   3.852  14.744  0.00  0.00    +0.000 C 
ATOM     18  C   UNL     1       5.251   4.393  13.822  0.00  0.00    +0.000 C 
ATOM     19  C   UNL     1       6.554   3.900  13.250  0.00  0.00    +0.000 C 
ENDBRANCH  16  17
ENDBRANCH  15  16
ENDBRANCH   5  15
TORSDOF 4
ENDMDL
MODEL 6
REMARK VINA RESULT:      -6.1      2.515      5.846
REMARK  Name = 
REMARK  6 active torsions:
REMARK  status: ('A' for Active; 'I' for Inactive)
REMARK    1  A    between atoms: C_1  and  C_2
REMARK    2  A    between atoms: C_5  and  C_6
REMARK    3  A    between atoms: C_7  and  N_8
REMARK    4  A    between atoms: C_12  and  O_13
REMARK    5  A    between atoms: O_13  and  C_14
REMARK    6  A    between atoms: C_14  and  C_15
REMARK                            x       y       z     vdW  Elec       q    Type
REMARK                         _______ _______ _______ _____ _____    ______ ____
ROOT
ATOM      1  N   UNL     1       4.108   5.124  17.800  0.00  0.00    +0.000 N 
ATOM      2  C   UNL     1       2.938   5.998  17.824  0.00  0.00    +0.000 C 
ATOM      3  C   UNL     1       1.740   5.170  18.332  0.00  0.00    +0.000 C 
ATOM      4  C   UNL     1       1.566   3.854  17.555  0.00  0.00    +0.000 C 
ATOM      5  C   UNL     1       2.875   3.044  17.510  0.00  0.00    +0.000 C 
ATOM      6  C   UNL     1       3.958   3.969  16.902  0.00  0.00    +0.000 C 
ENDROOT
BRANCH   1  13
ATOM      7  C   UNL     1       8.314   5.545  20.104  0.00  0.00    +0.000 C 
ATOM      8  C   UNL     1       7.414   5.923  18.969  0.00  0.00    +0.000 A 
ATOM      9  C   UNL     1       7.860   6.779  17.977  0.00  0.00    +0.000 A 
ATOM     10  N   UNL     1       7.109   7.115  16.915  0.00  0.00    +0.000 NA
ATOM     11  C   UNL     1       5.868   6.547  16.864  0.00  0.00    +0.000 A 
ATOM     12  C   UNL     1       5.132   6.792  15.577  0.00  0.00    +0.000 C 
ATOM     13  C   UNL     1       5.372   5.696  17.879  0.00  0.00    +0.000 A 
ATOM     14  N   UNL     1       6.167   5.374  18.935  0.00  0.00    +0.000 NA
ENDBRANCH   1  13
BRANCH   5  15
ATOM     15  O   UNL     1       3.331   2.627  18.809  0.00  0.00    +0.000 OA
BRANCH  15  16
ATOM     16  C   UNL     1       2.368   1.976  19.622  0.00  0.00    +0.000 C 
BRANCH  16  17
ATOM     17  C   UNL     1       2.539   2.456  21.033  0.00  0.00    +0.000 C 
ATOM     18  C   UNL     1       2.174   3.868  21.428  0.00  0.00    +0.000 C 
ATOM     19  C   UNL     1       1.323   2.718  21.895  0.00  0.00    +0.000 C 
ENDBRANCH  16  17
ENDBRANCH  15  16
ENDBRANCH   5  15
TORSDOF 4
ENDMDL
MODEL 7
REMARK VINA RESULT:      -6.0      2.663      6.575
REMARK  Name = 
REMARK  6 active torsions:
REMARK  status: ('A' for Active; 'I' for Inactive)
REMARK    1  A    between atoms: C_1  and  C_2
REMARK    2  A    between atoms: C_5  and  C_6
REMARK    3  A    between atoms: C_7  and  N_8
REMARK    4  A    between atoms: C_12  and  O_13
REMARK    5  A    between atoms: O_13  and  C_14
REMARK    6  A    between atoms: C_14  and  C_15
REMARK                            x       y       z     vdW  Elec       q    Type
REMARK                         _______ _______ _______ _____ _____    ______ ____
ROOT
ATOM      1  N   UNL     1       2.904   4.585  18.613  0.00  0.00    +0.000 N 
ATOM      2  C   UNL     1       2.140   3.377  18.316  0.00  0.00    +0.000 C 
ATOM      3  C   UNL     1       0.868   3.394  19.189  0.00  0.00    +0.000 C 
ATOM      4  C   UNL     1       1.183   3.627  20.676  0.00  0.00    +0.000 C 
ATOM      5  C   UNL     1       2.066   4.873  20.882  0.00  0.00    +0.000 C 
ATOM      6  C   UNL     1       3.334   4.675  20.017  0.00  0.00    +0.000 C 
ENDROOT
BRANCH   1  13
ATOM      7  C   UNL     1       6.158   3.716  15.174  0.00  0.00    +0.000 C 
ATOM      8  C   UNL     1       5.361   4.686  15.989  0.00  0.00    +0.000 A 
ATOM      9  C   UNL     1       5.453   6.046  15.746  0.00  0.00    +0.000 A 
ATOM     10  N   UNL     1       4.727   6.955  16.419  0.00  0.00    +0.000 NA
ATOM     11  C   UNL     1       3.875   6.453  17.362  0.00  0.00    +0.000 A 
ATOM     12  C   UNL     1       2.948   7.473  17.958  0.00  0.00    +0.000 C 
ATOM     13  C   UNL     1       3.785   5.072  17.656  0.00  0.00    +0.000 A 
ATOM     14  N   UNL     1       4.532   4.183  16.946  0.00  0.00    +0.000 NA
ENDBRANCH   1  13
BRANCH   5  15
ATOM     15  O   UNL     1       1.433   6.094  20.461  0.00  0.00    +0.000 OA
BRANCH  15  16
ATOM     16  C   UNL     1       1.834   7.267  21.151  0.00  0.00    +0.000 C 
BRANCH  16  17
ATOM     17  C   UNL     1       0.662   8.203  21.211  0.00  0.00    +0.000 C 
ATOM     18  C   UNL     1       0.721   9.477  22.020  0.00  0.00    +0.000 C 
ATOM     19  C   UNL     1       0.731   9.546  20.516  0.00  0.00    +0.000 C 
ENDBRANCH  16  17
ENDBRANCH  15  16
ENDBRANCH   5  15
TORSDOF 4
ENDMDL
MODEL 8
REMARK VINA RESULT:      -6.0      2.332      4.407
REMARK  Name = 
REMARK  6 active torsions:
REMARK  status: ('A' for Active; 'I' for Inactive)
REMARK    1  A    between atoms: C_1  and  C_2
REMARK    2  A    between atoms: C_5  and  C_6
REMARK    3  A    between atoms: C_7  and  N_8
REMARK    4  A    between atoms: C_12  and  O_13
REMARK    5  A    between atoms: O_13  and  C_14
REMARK    6  A    between atoms: C_14  and  C_15
REMARK                            x       y       z     vdW  Elec       q    Type
REMARK                         _______ _______ _______ _____ _____    ______ ____
ROOT
ATOM      1  N   UNL     1       3.041   5.406  18.166  0.00  0.00    +0.000 N 
ATOM      2  C   UNL     1       2.156   4.342  17.702  0.00  0.00    +0.000 C 
ATOM      3  C   UNL     1       2.998   3.058  17.552  0.00  0.00    +0.000 C 
ATOM      4  C   UNL     1       4.261   3.284  16.704  0.00  0.00    +0.000 C 
ATOM      5  C   UNL     1       5.084   4.481  17.218  0.00  0.00    +0.000 C 
ATOM      6  C   UNL     1       4.137   5.705  17.232  0.00  0.00    +0.000 C 
ENDROOT
BRANCH   1  13
ATOM      7  C   UNL     1       1.492   9.964  18.137  0.00  0.00    +0.000 C 
ATOM      8  C   UNL     1       1.735   8.683  18.871  0.00  0.00    +0.000 A 
ATOM      9  C   UNL     1       1.356   8.552  20.196  0.00  0.00    +0.000 A 
ATOM     10  N   UNL     1       1.512   7.410  20.887  0.00  0.00    +0.000 NA
ATOM     11  C   UNL     1       2.062   6.369  20.195  0.00  0.00    +0.000 A 
ATOM     12  C   UNL     1       2.047   5.062  20.935  0.00  0.00    +0.000 C 
ATOM     13  C   UNL     1       2.491   6.483  18.852  0.00  0.00    +0.000 A 
ATOM     14  N   UNL     1       2.308   7.655  18.184  0.00  0.00    +0.000 NA
ENDBRANCH   1  13
BRANCH   5  15
ATOM     15  O   UNL     1       5.585   4.295  18.552  0.00  0.00    +0.000 OA
BRANCH  15  16
ATOM     16  C   UNL     1       6.172   5.437  19.156  0.00  0.00    +0.000 C 
BRANCH  16  17
ATOM     17  C   UNL     1       7.422   5.780  18.401  0.00  0.00    +0.000 C 
ATOM     18  C   UNL     1       7.504   7.024  17.549  0.00  0.00    +0.000 C 
ATOM     19  C   UNL     1       8.273   6.951  18.841  0.00  0.00    +0.000 C 
ENDBRANCH  16  17
ENDBRANCH  15  16
ENDBRANCH   5  15
TORSDOF 4
ENDMDL
MODEL 9
REMARK VINA RESULT:      -6.0      1.513      2.186
REMARK  Name = 
REMARK  6 active torsions:
REMARK  status: ('A' for Active; 'I' for Inactive)
REMARK    1  A    between atoms: C_1  and  C_2
REMARK    2  A    between atoms: C_5  and  C_6
REMARK    3  A    between atoms: C_7  and  N_8
REMARK    4  A    between atoms: C_12  and  O_13
REMARK    5  A    between atoms: O_13  and  C_14
REMARK    6  A    between atoms: C_14  and  C_15
REMARK                            x       y       z     vdW  Elec       q    Type
REMARK                         _______ _______ _______ _____ _____    ______ ____
ROOT
ATOM      1  N   UNL     1       4.264   4.836  18.105  0.00  0.00    +0.000 N 
ATOM      2  C   UNL     1       4.032   6.258  18.340  0.00  0.00    +0.000 C 
ATOM      3  C   UNL     1       4.668   7.040  17.173  0.00  0.00    +0.000 C 
ATOM      4  C   UNL     1       6.133   6.641  16.931  0.00  0.00    +0.000 C 
ATOM      5  C   UNL     1       6.290   5.116  16.784  0.00  0.00    +0.000 C 
ATOM      6  C   UNL     1       5.690   4.475  18.058  0.00  0.00    +0.000 C 
ENDROOT
BRANCH   1  13
ATOM      7  C   UNL     1       2.073   3.140  22.042  0.00  0.00    +0.000 C 
ATOM      8  C   UNL     1       2.330   3.069  20.570  0.00  0.00    +0.000 A 
ATOM      9  C   UNL     1       1.667   2.137  19.787  0.00  0.00    +0.000 A 
ATOM     10  N   UNL     1       1.829   2.060  18.456  0.00  0.00    +0.000 NA
ATOM     11  C   UNL     1       2.687   2.972  17.909  0.00  0.00    +0.000 A 
ATOM     12  C   UNL     1       2.699   2.981  16.407  0.00  0.00    +0.000 C 
ATOM     13  C   UNL     1       3.403   3.912  18.686  0.00  0.00    +0.000 A 
ATOM     14  N   UNL     1       3.206   3.963  20.031  0.00  0.00    +0.000 NA
ENDBRANCH   1  13
BRANCH   5  15
ATOM     15  O   UNL     1       5.589   4.580  15.648  0.00  0.00    +0.000 OA
BRANCH  15  16
ATOM     16  C   UNL     1       6.368   3.809  14.748  0.00  0.00    +0.000 C 
BRANCH  16  17
ATOM     17  C   UNL     1       6.025   4.227  13.349  0.00  0.00    +0.000 C 
ATOM     18  C   UNL     1       6.932   3.892  12.188  0.00  0.00    +0.000 C 
ATOM     19  C   UNL     1       5.609   3.188  12.330  0.00  0.00    +0.000 C 
ENDBRANCH  16  17
ENDBRANCH  15  16
ENDBRANCH   5  15
TORSDOF 4
ENDMDL
