MODEL 1
REMARK VINA RESULT:      -7.5      0.000      0.000
REMARK  Name = 
REMARK  8 active torsions:
REMARK  status: ('A' for Active; 'I' for Inactive)
REMARK    1  A    between atoms: C_1  and  C_2
REMARK    2  A    between atoms: C_4  and  C_5
REMARK    3  A    between atoms: C_5  and  O_7
REMARK    4  A    between atoms: C_8  and  C_9
REMARK    5  A    between atoms: N_10  and  C_11
REMARK    6  A    between atoms: C_15  and  C_16
REMARK    7  A    between atoms: C_16  and  C_17
REMARK    8  A    between atoms: C_16  and  C_18
REMARK                            x       y       z     vdW  Elec       q    Type
REMARK                         _______ _______ _______ _____ _____    ______ ____
ROOT
ATOM      1  C   UNL     1       3.318   7.074  17.892  0.00  0.00    +0.000 C 
ATOM      2  C   UNL     1       3.005   5.645  18.196  0.00  0.00    +0.000 A 
ATOM      3  C   UNL     1       1.864   5.194  18.830  0.00  0.00    +0.000 A 
ATOM      4  C   UNL     1       1.857   3.777  18.830  0.00  0.00    +0.000 A 
ATOM      5  C   UNL     1       3.046   3.389  18.205  0.00  0.00    +0.000 A 
ATOM      6  C   UNL     1       3.580   1.995  18.058  0.00  0.00    +0.000 C 
ATOM      7  N   UNL     1       3.757   4.534  17.806  0.00  0.00    +0.000 N 
ENDROOT
BRANCH   7   8
ATOM      8  C   UNL     1       5.034   4.560  17.142  0.00  0.00    +0.000 A 
ATOM      9  C   UNL     1       6.232   4.530  17.864  0.00  0.00    +0.000 A 
ATOM     10  C   UNL     1       7.462   4.641  17.211  0.00  0.00    +0.000 A 
ATOM     11  C   UNL     1       7.516   4.731  15.822  0.00  0.00    +0.000 A 
ATOM     12  C   UNL     1       6.337   4.708  15.067  0.00  0.00    +0.000 A 
ATOM     13  C   UNL     1       5.105   4.644  15.744  0.00  0.00    +0.000 A 
BRANCH  12  14
ATOM     14  C   UNL     1       6.405   4.746  13.550  0.00  0.00    +0.000 C 
ATOM     15  C   UNL     1       7.798   5.171  13.075  0.00  0.00    +0.000 C 
ATOM     16  C   UNL     1       6.003   3.407  12.927  0.00  0.00    +0.000 C 
ENDBRANCH  12  14
ENDBRANCH   7   8
BRANCH   4  17
ATOM     17  C   UNL     1       0.832   2.872  19.379  0.00  0.00    +0.000 C 
ATOM     18  O   UNL     1       0.180   2.080  18.714  0.00  0.00    +0.000 OA
BRANCH  17  19
ATOM     19  O   UNL     1       0.635   2.967  20.720  0.00  0.00    +0.000 OA
ATOM     20  H   UNL     1       0.595   2.107  21.166  0.00  0.00    +0.000 HD
ENDBRANCH  17  19
ENDBRANCH   4  17
TORSDOF 4
ENDMDL
MODEL 2
REMARK VINA RESULT:      -7.3      1.284      1.741
REMARK  Name = 
REMARK  8 active torsions:
REMARK  status: ('A' for Active; 'I' for Inactive)
REMARK    1  A    between atoms: C_1  and  C_2
REMARK    2  A    between atoms: C_4  and  C_5
REMARK    3  A    between atoms: C_5  and  O_7
REMARK    4  A    between atoms: C_8  and  C_9
REMARK    5  A    between atoms: N_10  and  C_11
REMARK    6  A    between atoms: C_15  and  C_16
REMARK    7  A    between atoms: C_16  and  C_17
REMARK    8  A    between atoms: C_16  and  C_18
REMARK                            x       y       z     vdW  Elec       q    Type
REMARK                         _______ _______ _______ _____ _____    ______ ____
ROOT
ATOM      1  C   UNL     1       3.000   7.260  18.402  0.00  0.00    +0.000 C 
ATOM      2  C   UNL     1       3.004   5.936  19.094  0.00  0.00    +0.000 A 
ATOM      3  C   UNL     1       2.003   5.463  19.920  0.00  0.00    +0.000 A 
ATOM      4  C   UNL     1       2.294   4.126  20.291  0.00  0.00    +0.000 A 
ATOM      5  C   UNL     1       3.519   3.821  19.688  0.00  0.00    +0.000 A 
ATOM      6  C   UNL     1       4.329   2.570  19.865  0.00  0.00    +0.000 C 
ATOM      7  N   UNL     1       3.961   4.928  18.945  0.00  0.00    +0.000 N 
ENDROOT
BRANCH   7   8
ATOM      8  C   UNL     1       5.183   5.019  18.189  0.00  0.00    +0.000 A 
ATOM      9  C   UNL     1       6.344   5.570  18.744  0.00  0.00    +0.000 A 
ATOM     10  C   UNL     1       7.498   5.729  17.973  0.00  0.00    +0.000 A 
ATOM     11  C   UNL     1       7.526   5.292  16.650  0.00  0.00    +0.000 A 
ATOM     12  C   UNL     1       6.398   4.687  16.083  0.00  0.00    +0.000 A 
ATOM     13  C   UNL     1       5.229   4.578  16.859  0.00  0.00    +0.000 A 
BRANCH  12  14
ATOM     14  C   UNL     1       6.454   4.158  14.660  0.00  0.00    +0.000 C 
ATOM     15  C   UNL     1       5.060   4.151  14.024  0.00  0.00    +0.000 C 
ATOM     16  C   UNL     1       7.441   4.946  13.795  0.00  0.00    +0.000 C 
ENDBRANCH  12  14
ENDBRANCH   7   8
BRANCH   4  17
ATOM     17  C   UNL     1       1.500   3.225  21.142  0.00  0.00    +0.000 C 
ATOM     18  O   UNL     1       1.807   2.896  22.279  0.00  0.00    +0.000 OA
BRANCH  17  19
ATOM     19  O   UNL     1       0.358   2.751  20.576  0.00  0.00    +0.000 OA
ATOM     20  H   UNL     1       0.228   3.050  19.663  0.00  0.00    +0.000 HD
ENDBRANCH  17  19
ENDBRANCH   4  17
TORSDOF 4
ENDMDL
MODEL 3
REMARK VINA RESULT:      -6.8      1.800      3.038
REMARK  Name = 
REMARK  8 active torsions:
REMARK  status: ('A' for Active; 'I' for Inactive)
REMARK    1  A    between atoms: C_1  and  C_2
REMARK    2  A    between atoms: C_4  and  C_5
REMARK    3  A    between atoms: C_5  and  O_7
REMARK    4  A    between atoms: C_8  and  C_9
REMARK    5  A    between atoms: N_10  and  C_11
REMARK    6  A    between atoms: C_15  and  C_16
REMARK    7  A    between atoms: C_16  and  C_17
REMARK    8  A    between atoms: C_16  and  C_18
REMARK                            x       y       z     vdW  Elec       q    Type
REMARK                         _______ _______ _______ _____ _____    ______ ____
ROOT
ATOM      1  C   UNL     1       2.389   7.454  18.790  0.00  0.00    +0.000 C 
ATOM      2  C   UNL     1       2.520   6.052  19.288  0.00  0.00    +0.000 A 
ATOM      3  C   UNL     1       1.697   5.456  20.224  0.00  0.00    +0.000 A 
ATOM      4  C   UNL     1       2.047   4.088  20.352  0.00  0.00    +0.000 A 
ATOM      5  C   UNL     1       3.129   3.888  19.488  0.00  0.00    +0.000 A 
ATOM      6  C   UNL     1       3.950   2.641  19.339  0.00  0.00    +0.000 C 
ATOM      7  N   UNL     1       3.423   5.091  18.825  0.00  0.00    +0.000 N 
ENDROOT
BRANCH   7   8
ATOM      8  C   UNL     1       4.475   5.303  17.865  0.00  0.00    +0.000 A 
ATOM      9  C   UNL     1       4.396   4.779  16.569  0.00  0.00    +0.000 A 
ATOM     10  C   UNL     1       5.462   4.922  15.677  0.00  0.00    +0.000 A 
ATOM     11  C   UNL     1       6.600   5.634  16.046  0.00  0.00    +0.000 A 
ATOM     12  C   UNL     1       6.687   6.216  17.317  0.00  0.00    +0.000 A 
ATOM     13  C   UNL     1       5.625   6.022  18.220  0.00  0.00    +0.000 A 
BRANCH  12  14
ATOM     14  C   UNL     1       7.904   7.042  17.693  0.00  0.00    +0.000 C 
ATOM     15  C   UNL     1       7.608   8.541  17.572  0.00  0.00    +0.000 C 
ATOM     16  C   UNL     1       8.416   6.701  19.095  0.00  0.00    +0.000 C 
ENDBRANCH  12  14
ENDBRANCH   7   8
BRANCH   4  17
ATOM     17  C   UNL     1       1.429   3.068  21.216  0.00  0.00    +0.000 C 
ATOM     18  O   UNL     1       1.824   2.777  22.336  0.00  0.00    +0.000 OA
BRANCH  17  19
ATOM     19  O   UNL     1       0.351   2.435  20.683  0.00  0.00    +0.000 OA
ATOM     20  H   UNL     1      -0.345   2.247  21.331  0.00  0.00    +0.000 HD
ENDBRANCH  17  19
ENDBRANCH   4  17
TORSDOF 4
ENDMDL
MODEL 4
REMARK VINA RESULT:      -6.8      3.507      6.464
REMARK  Name = 
REMARK  8 active torsions:
REMARK  status: ('A' for Active; 'I' for Inactive)
REMARK    1  A    between atoms: C_1  and  C_2
REMARK    2  A    between atoms: C_4  and  C_5
REMARK    3  A    between atoms: C_5  and  O_7
REMARK    4  A    between atoms: C_8  and  C_9
REMARK    5  A    between atoms: N_10  and  C_11
REMARK    6  A    between atoms: C_15  and  C_16
REMARK    7  A    between atoms: C_16  and  C_17
REMARK    8  A    between atoms: C_16  and  C_18
REMARK                            x       y       z     vdW  Elec       q    Type
REMARK                         _______ _______ _______ _____ _____    ______ ____
ROOT
ATOM      1  C   UNL     1       2.069   3.741  17.683  0.00  0.00    +0.000 C 
ATOM      2  C   UNL     1       3.395   4.364  17.392  0.00  0.00    +0.000 A 
ATOM      3  C   UNL     1       4.416   3.773  16.674  0.00  0.00    +0.000 A 
ATOM      4  C   UNL     1       5.466   4.708  16.495  0.00  0.00    +0.000 A 
ATOM      5  C   UNL     1       5.059   5.871  17.158  0.00  0.00    +0.000 A 
ATOM      6  C   UNL     1       5.861   7.120  17.373  0.00  0.00    +0.000 C 
ATOM      7  N   UNL     1       3.782   5.670  17.708  0.00  0.00    +0.000 N 
ENDROOT
BRANCH   7   8
ATOM      8  C   UNL     1       3.021   6.621  18.477  0.00  0.00    +0.000 A 
ATOM      9  C   UNL     1       2.773   6.424  19.840  0.00  0.00    +0.000 A 
ATOM     10  C   UNL     1       1.963   7.312  20.552  0.00  0.00    +0.000 A 
ATOM     11  C   UNL     1       1.432   8.438  19.927  0.00  0.00    +0.000 A 
ATOM     12  C   UNL     1       1.707   8.691  18.578  0.00  0.00    +0.000 A 
ATOM     13  C   UNL     1       2.485   7.761  17.863  0.00  0.00    +0.000 A 
BRANCH  12  14
ATOM     14  C   UNL     1       1.175   9.951  17.917  0.00  0.00    +0.000 C 
ATOM     15  C   UNL     1      -0.307  10.157  18.246  0.00  0.00    +0.000 C 
ATOM     16  C   UNL     1       1.993  11.187  18.300  0.00  0.00    +0.000 C 
ENDBRANCH  12  14
ENDBRANCH   7   8
BRANCH   4  17
ATOM     17  C   UNL     1       6.739   4.521  15.779  0.00  0.00    +0.000 C 
ATOM     18  O   UNL     1       6.846   4.455  14.562  0.00  0.00    +0.000 OA
BRANCH  17  19
ATOM     19  O   UNL     1       7.838   4.415  16.571  0.00  0.00    +0.000 OA
ATOM     20  H   UNL     1       8.600   4.917  16.242  0.00  0.00    +0.000 HD
ENDBRANCH  17  19
ENDBRANCH   4  17
TORSDOF 4
ENDMDL
MODEL 5
REMARK VINA RESULT:      -6.7      1.370      2.690
REMARK  Name = 
REMARK  8 active torsions:
REMARK  status: ('A' for Active; 'I' for Inactive)
REMARK    1  A    between atoms: C_1  and  C_2
REMARK    2  A    between atoms: C_4  and  C_5
REMARK    3  A    between atoms: C_5  and  O_7
REMARK    4  A    between atoms: C_8  and  C_9
REMARK    5  A    between atoms: N_10  and  C_11
REMARK    6  A    between atoms: C_15  and  C_16
REMARK    7  A    between atoms: C_16  and  C_17
REMARK    8  A    between atoms: C_16  and  C_18
REMARK                            x       y       z     vdW  Elec       q    Type
REMARK                         _______ _______ _______ _____ _____    ______ ____
ROOT
ATOM      1  C   UNL     1       2.578   7.369  17.974  0.00  0.00    +0.000 C 
ATOM      2  C   UNL     1       2.476   5.896  18.200  0.00  0.00    +0.000 A 
ATOM      3  C   UNL     1       1.425   5.254  18.826  0.00  0.00    +0.000 A 
ATOM      4  C   UNL     1       1.617   3.852  18.746  0.00  0.00    +0.000 A 
ATOM      5  C   UNL     1       2.835   3.671  18.081  0.00  0.00    +0.000 A 
ATOM      6  C   UNL     1       3.555   2.376  17.847  0.00  0.00    +0.000 C 
ATOM      7  N   UNL     1       3.368   4.925  17.737  0.00  0.00    +0.000 N 
ENDROOT
BRANCH   7   8
ATOM      8  C   UNL     1       4.613   5.167  17.056  0.00  0.00    +0.000 A 
ATOM      9  C   UNL     1       4.834   4.704  15.753  0.00  0.00    +0.000 A 
ATOM     10  C   UNL     1       6.076   4.874  15.137  0.00  0.00    +0.000 A 
ATOM     11  C   UNL     1       7.100   5.553  15.792  0.00  0.00    +0.000 A 
ATOM     12  C   UNL     1       6.893   6.075  17.075  0.00  0.00    +0.000 A 
ATOM     13  C   UNL     1       5.651   5.854  17.700  0.00  0.00    +0.000 A 
BRANCH  12  14
ATOM     14  C   UNL     1       7.993   6.867  17.760  0.00  0.00    +0.000 C 
ATOM     15  C   UNL     1       7.726   8.373  17.662  0.00  0.00    +0.000 C 
ATOM     16  C   UNL     1       8.180   6.442  19.219  0.00  0.00    +0.000 C 
ENDBRANCH  12  14
ENDBRANCH   7   8
BRANCH   4  17
ATOM     17  C   UNL     1       0.743   2.783  19.257  0.00  0.00    +0.000 C 
ATOM     18  O   UNL     1       0.191   1.945  18.558  0.00  0.00    +0.000 OA
BRANCH  17  19
ATOM     19  O   UNL     1       0.567   2.775  20.605  0.00  0.00    +0.000 OA
ATOM     20  H   UNL     1      -0.252   3.209  20.890  0.00  0.00    +0.000 HD
ENDBRANCH  17  19
ENDBRANCH   4  17
TORSDOF 4
ENDMDL
MODEL 6
REMARK VINA RESULT:      -6.7      3.525      6.841
REMARK  Name = 
REMARK  8 active torsions:
REMARK  status: ('A' for Active; 'I' for Inactive)
REMARK    1  A    between atoms: C_1  and  C_2
REMARK    2  A    between atoms: C_4  and  C_5
REMARK    3  A    between atoms: C_5  and  O_7
REMARK    4  A    between atoms: C_8  and  C_9
REMARK    5  A    between atoms: N_10  and  C_11
REMARK    6  A    between atoms: C_15  and  C_16
REMARK    7  A    between atoms: C_16  and  C_17
REMARK    8  A    between atoms: C_16  and  C_18
REMARK                            x       y       z     vdW  Elec       q    Type
REMARK                         _______ _______ _______ _____ _____    ______ ____
ROOT
ATOM      1  C   UNL     1       1.514   4.163  18.050  0.00  0.00    +0.000 C 
ATOM      2  C   UNL     1       2.897   4.635  17.738  0.00  0.00    +0.000 A 
ATOM      3  C   UNL     1       3.916   3.848  17.238  0.00  0.00    +0.000 A 
ATOM      4  C   UNL     1       5.040   4.663  16.950  0.00  0.00    +0.000 A 
ATOM      5  C   UNL     1       4.676   5.961  17.325  0.00  0.00    +0.000 A 
ATOM      6  C   UNL     1       5.550   7.180  17.337  0.00  0.00    +0.000 C 
ATOM      7  N   UNL     1       3.356   5.954  17.806  0.00  0.00    +0.000 N 
ENDROOT
BRANCH   7   8
ATOM      8  C   UNL     1       2.619   7.088  18.300  0.00  0.00    +0.000 A 
ATOM      9  C   UNL     1       2.317   8.177  17.475  0.00  0.00    +0.000 A 
ATOM     10  C   UNL     1       1.676   9.306  17.991  0.00  0.00    +0.000 A 
ATOM     11  C   UNL     1       1.279   9.343  19.326  0.00  0.00    +0.000 A 
ATOM     12  C   UNL     1       1.518   8.247  20.163  0.00  0.00    +0.000 A 
ATOM     13  C   UNL     1       2.208   7.137  19.640  0.00  0.00    +0.000 A 
BRANCH  12  14
ATOM     14  C   UNL     1       1.030   8.268  21.601  0.00  0.00    +0.000 C 
ATOM     15  C   UNL     1       1.758   9.347  22.410  0.00  0.00    +0.000 C 
ATOM     16  C   UNL     1      -0.486   8.454  21.688  0.00  0.00    +0.000 C 
ENDBRANCH  12  14
ENDBRANCH   7   8
BRANCH   4  17
ATOM     17  C   UNL     1       6.338   4.257  16.388  0.00  0.00    +0.000 C 
ATOM     18  O   UNL     1       6.531   3.995  15.208  0.00  0.00    +0.000 OA
BRANCH  17  19
ATOM     19  O   UNL     1       7.358   4.178  17.283  0.00  0.00    +0.000 OA
ATOM     20  H   UNL     1       7.419   4.950  17.867  0.00  0.00    +0.000 HD
ENDBRANCH  17  19
ENDBRANCH   4  17
TORSDOF 4
ENDMDL
MODEL 7
REMARK VINA RESULT:      -6.5      3.072      4.643
REMARK  Name = 
REMARK  8 active torsions:
REMARK  status: ('A' for Active; 'I' for Inactive)
REMARK    1  A    between atoms: C_1  and  C_2
REMARK    2  A    between atoms: C_4  and  C_5
REMARK    3  A    between atoms: C_5  and  O_7
REMARK    4  A    between atoms: C_8  and  C_9
REMARK    5  A    between atoms: N_10  and  C_11
REMARK    6  A    between atoms: C_15  and  C_16
REMARK    7  A    between atoms: C_16  and  C_17
REMARK    8  A    between atoms: C_16  and  C_18
REMARK                            x       y       z     vdW  Elec       q    Type
REMARK                         _______ _______ _______ _____ _____    ______ ____
ROOT
ATOM      1  C   UNL     1       2.132   4.709  21.184  0.00  0.00    +0.000 C 
ATOM      2  C   UNL     1       1.931   6.044  20.543  0.00  0.00    +0.000 A 
ATOM      3  C   UNL     1       1.303   7.126  21.129  0.00  0.00    +0.000 A 
ATOM      4  C   UNL     1       1.412   8.250  20.273  0.00  0.00    +0.000 A 
ATOM      5  C   UNL     1       2.095   7.802  19.138  0.00  0.00    +0.000 A 
ATOM      6  C   UNL     1       2.362   8.571  17.878  0.00  0.00    +0.000 C 
ATOM      7  N   UNL     1       2.423   6.445  19.298  0.00  0.00    +0.000 N 
ENDROOT
BRANCH   7   8
ATOM      8  C   UNL     1       3.116   5.614  18.348  0.00  0.00    +0.000 A 
ATOM      9  C   UNL     1       2.484   4.526  17.734  0.00  0.00    +0.000 A 
ATOM     10  C   UNL     1       3.194   3.679  16.879  0.00  0.00    +0.000 A 
ATOM     11  C   UNL     1       4.530   3.936  16.582  0.00  0.00    +0.000 A 
ATOM     12  C   UNL     1       5.175   5.048  17.138  0.00  0.00    +0.000 A 
ATOM     13  C   UNL     1       4.459   5.864  18.035  0.00  0.00    +0.000 A 
BRANCH  12  14
ATOM     14  C   UNL     1       6.615   5.357  16.764  0.00  0.00    +0.000 C 
ATOM     15  C   UNL     1       7.589   4.696  17.745  0.00  0.00    +0.000 C 
ATOM     16  C   UNL     1       6.932   4.949  15.324  0.00  0.00    +0.000 C 
ENDBRANCH  12  14
ENDBRANCH   7   8
BRANCH   4  17
ATOM     17  C   UNL     1       0.908   9.616  20.497  0.00  0.00    +0.000 C 
ATOM     18  O   UNL     1       1.288  10.356  21.394  0.00  0.00    +0.000 OA
BRANCH  17  19
ATOM     19  O   UNL     1      -0.045  10.032  19.623  0.00  0.00    +0.000 OA
ATOM     20  H   UNL     1      -0.813   9.441  19.579  0.00  0.00    +0.000 HD
ENDBRANCH  17  19
ENDBRANCH   4  17
TORSDOF 4
ENDMDL
MODEL 8
REMARK VINA RESULT:      -6.5      3.075      4.607
REMARK  Name = 
REMARK  8 active torsions:
REMARK  status: ('A' for Active; 'I' for Inactive)
REMARK    1  A    between atoms: C_1  and  C_2
REMARK    2  A    between atoms: C_4  and  C_5
REMARK    3  A    between atoms: C_5  and  O_7
REMARK    4  A    between atoms: C_8  and  C_9
REMARK    5  A    between atoms: N_10  and  C_11
REMARK    6  A    between atoms: C_15  and  C_16
REMARK    7  A    between atoms: C_16  and  C_17
REMARK    8  A    between atoms: C_16  and  C_18
REMARK                            x       y       z     vdW  Elec       q    Type
REMARK                         _______ _______ _______ _____ _____    ______ ____
ROOT
ATOM      1  C   UNL     1       2.138   4.653  21.171  0.00  0.00    +0.000 C 
ATOM      2  C   UNL     1       1.943   5.987  20.530  0.00  0.00    +0.000 A 
ATOM      3  C   UNL     1       1.287   7.061  21.101  0.00  0.00    +0.000 A 
ATOM      4  C   UNL     1       1.410   8.190  20.253  0.00  0.00    +0.000 A 
ATOM      5  C   UNL     1       2.132   7.754  19.138  0.00  0.00    +0.000 A 
ATOM      6  C   UNL     1       2.430   8.531  17.890  0.00  0.00    +0.000 C 
ATOM      7  N   UNL     1       2.469   6.400  19.303  0.00  0.00    +0.000 N 
ENDROOT
BRANCH   7   8
ATOM      8  C   UNL     1       3.200   5.580  18.371  0.00  0.00    +0.000 A 
ATOM      9  C   UNL     1       2.580   4.532  17.681  0.00  0.00    +0.000 A 
ATOM     10  C   UNL     1       3.321   3.692  16.844  0.00  0.00    +0.000 A 
ATOM     11  C   UNL     1       4.680   3.920  16.643  0.00  0.00    +0.000 A 
ATOM     12  C   UNL     1       5.317   4.993  17.277  0.00  0.00    +0.000 A 
ATOM     13  C   UNL     1       4.567   5.800  18.154  0.00  0.00    +0.000 A 
BRANCH  12  14
ATOM     14  C   UNL     1       6.786   5.272  17.008  0.00  0.00    +0.000 C 
ATOM     15  C   UNL     1       7.148   4.944  15.555  0.00  0.00    +0.000 C 
ATOM     16  C   UNL     1       7.166   6.714  17.350  0.00  0.00    +0.000 C 
ENDBRANCH  12  14
ENDBRANCH   7   8
BRANCH   4  17
ATOM     17  C   UNL     1       0.886   9.549  20.467  0.00  0.00    +0.000 C 
ATOM     18  O   UNL     1       0.100  10.115  19.720  0.00  0.00    +0.000 OA
BRANCH  17  19
ATOM     19  O   UNL     1       1.341  10.175  21.584  0.00  0.00    +0.000 OA
ATOM     20  H   UNL     1       0.828  10.964  21.820  0.00  0.00    +0.000 HD
ENDBRANCH  17  19
ENDBRANCH   4  17
TORSDOF 4
ENDMDL
MODEL 9
REMARK VINA RESULT:      -6.4      3.046      6.464
REMARK  Name = 
REMARK  8 active torsions:
REMARK  status: ('A' for Active; 'I' for Inactive)
REMARK    1  A    between atoms: C_1  and  C_2
REMARK    2  A    between atoms: C_4  and  C_5
REMARK    3  A    between atoms: C_5  and  O_7
REMARK    4  A    between atoms: C_8  and  C_9
REMARK    5  A    between atoms: N_10  and  C_11
REMARK    6  A    between atoms: C_15  and  C_16
REMARK    7  A    between atoms: C_16  and  C_17
REMARK    8  A    between atoms: C_16  and  C_18
REMARK                            x       y       z     vdW  Elec       q    Type
REMARK                         _______ _______ _______ _____ _____    ______ ____
ROOT
ATOM      1  C   UNL     1       5.207   6.922  17.236  0.00  0.00    +0.000 C 
ATOM      2  C   UNL     1       4.477   5.852  17.980  0.00  0.00    +0.000 A 
ATOM      3  C   UNL     1       4.907   4.548  18.132  0.00  0.00    +0.000 A 
ATOM      4  C   UNL     1       4.022   3.861  19.001  0.00  0.00    +0.000 A 
ATOM      5  C   UNL     1       3.027   4.784  19.340  0.00  0.00    +0.000 A 
ATOM      6  C   UNL     1       1.785   4.524  20.140  0.00  0.00    +0.000 C 
ATOM      7  N   UNL     1       3.302   6.014  18.720  0.00  0.00    +0.000 N 
ENDROOT
BRANCH   7   8
ATOM      8  C   UNL     1       2.510   7.214  18.809  0.00  0.00    +0.000 A 
ATOM      9  C   UNL     1       2.217   7.979  17.675  0.00  0.00    +0.000 A 
ATOM     10  C   UNL     1       1.520   9.185  17.789  0.00  0.00    +0.000 A 
ATOM     11  C   UNL     1       1.059   9.618  19.030  0.00  0.00    +0.000 A 
ATOM     12  C   UNL     1       1.290   8.847  20.176  0.00  0.00    +0.000 A 
ATOM     13  C   UNL     1       2.036   7.659  20.051  0.00  0.00    +0.000 A 
BRANCH  12  14
ATOM     14  C   UNL     1       0.734   9.294  21.517  0.00  0.00    +0.000 C 
ATOM     15  C   UNL     1       0.361  10.779  21.487  0.00  0.00    +0.000 C 
ATOM     16  C   UNL     1      -0.460   8.442  21.954  0.00  0.00    +0.000 C 
ENDBRANCH  12  14
ENDBRANCH   7   8
BRANCH   4  17
ATOM     17  C   UNL     1       4.099   2.464  19.458  0.00  0.00    +0.000 C 
ATOM     18  O   UNL     1       4.843   2.064  20.342  0.00  0.00    +0.000 OA
BRANCH  17  19
ATOM     19  O   UNL     1       3.268   1.599  18.818  0.00  0.00    +0.000 OA
ATOM     20  H   UNL     1       3.105   1.835  17.892  0.00  0.00    +0.000 HD
ENDBRANCH  17  19
ENDBRANCH   4  17
TORSDOF 4
ENDMDL
