MODEL 1
REMARK VINA RESULT:      -7.8      0.000      0.000
REMARK  Name = 
REMARK  3 active torsions:
REMARK  status: ('A' for Active; 'I' for Inactive)
REMARK    1  A    between atoms: C_1  and  N_2
REMARK    2  A    between atoms: N_5  and  C_6
REMARK    3  A    between atoms: C_8  and  C_9
REMARK                            x       y       z     vdW  Elec       q    Type
REMARK                         _______ _______ _______ _____ _____    ______ ____
ROOT
ATOM      1  C   UNL     1       4.392   4.181  17.677  0.00  0.00    +0.000 C 
ATOM      2  C   UNL     1       5.596   4.502  18.632  0.00  0.00    +0.000 C 
ATOM      3  C   UNL     1       6.829   4.946  17.819  0.00  0.00    +0.000 C 
ATOM      4  C   UNL     1       6.415   4.643  16.410  0.00  0.00    +0.000 A 
ATOM      5  C   UNL     1       7.227   4.769  15.284  0.00  0.00    +0.000 A 
ATOM      6  C   UNL     1       6.678   4.505  14.033  0.00  0.00    +0.000 A 
ATOM      7 CL   UNL     1       7.633   4.711  12.620  0.00  0.00    +0.000 Cl
ATOM      8  C   UNL     1       5.354   4.074  13.923  0.00  0.00    +0.000 A 
ATOM      9  C   UNL     1       4.565   3.904  15.069  0.00  0.00    +0.000 A 
ATOM     10  C   UNL     1       5.079   4.240  16.319  0.00  0.00    +0.000 A 
ENDROOT
BRANCH   1  15
ATOM     11  C   UNL     1       1.349   2.864  21.075  0.00  0.00    +0.000 C 
ATOM     12  N   UNL     1       1.544   3.926  20.089  0.00  0.00    +0.000 NA
ATOM     13  C   UNL     1       1.522   3.390  18.718  0.00  0.00    +0.000 C 
ATOM     14  C   UNL     1       1.910   4.455  17.658  0.00  0.00    +0.000 C 
ATOM     15  N   UNL     1       3.235   5.096  17.862  0.00  0.00    +0.000 NA
ATOM     16  C   UNL     1       3.158   5.671  19.234  0.00  0.00    +0.000 C 
ATOM     17  C   UNL     1       2.792   4.664  20.355  0.00  0.00    +0.000 C 
ENDBRANCH   1  15
BRANCH   3  18
ATOM     18  C   UNL     1       7.249   6.395  17.997  0.00  0.00    +0.000 A 
ATOM     19  C   UNL     1       8.279   6.722  18.896  0.00  0.00    +0.000 A 
ATOM     20  C   UNL     1       8.744   8.037  18.995  0.00  0.00    +0.000 A 
ATOM     21  C   UNL     1       8.184   9.024  18.196  0.00  0.00    +0.000 A 
ATOM     22  F   UNL     1       8.649  10.280  18.273  0.00  0.00    +0.000 F 
ATOM     23  C   UNL     1       7.162   8.729  17.308  0.00  0.00    +0.000 A 
ATOM     24  C   UNL     1       6.690   7.418  17.212  0.00  0.00    +0.000 A 
ENDBRANCH   3  18
TORSDOF 2
ENDMDL
MODEL 2
REMARK VINA RESULT:      -7.4      9.565     11.749
REMARK  Name = 
REMARK  3 active torsions:
REMARK  status: ('A' for Active; 'I' for Inactive)
REMARK    1  A    between atoms: C_1  and  N_2
REMARK    2  A    between atoms: N_5  and  C_6
REMARK    3  A    between atoms: C_8  and  C_9
REMARK                            x       y       z     vdW  Elec       q    Type
REMARK                         _______ _______ _______ _____ _____    ______ ____
ROOT
ATOM      1  C   UNL     1      -2.172  12.567  22.224  0.00  0.00    +0.000 C 
ATOM      2  C   UNL     1      -2.017  13.161  20.779  0.00  0.00    +0.000 C 
ATOM      3  C   UNL     1      -1.280  12.165  19.860  0.00  0.00    +0.000 C 
ATOM      4  C   UNL     1      -0.799  11.126  20.828  0.00  0.00    +0.000 A 
ATOM      5  C   UNL     1       0.022  10.044  20.511  0.00  0.00    +0.000 A 
ATOM      6  C   UNL     1       0.335   9.130  21.511  0.00  0.00    +0.000 A 
ATOM      7 CL   UNL     1       1.292   7.752  21.140  0.00  0.00    +0.000 Cl
ATOM      8  C   UNL     1      -0.127   9.327  22.814  0.00  0.00    +0.000 A 
ATOM      9  C   UNL     1      -0.910  10.446  23.128  0.00  0.00    +0.000 A 
ATOM     10  C   UNL     1      -1.295  11.326  22.120  0.00  0.00    +0.000 A 
ENDROOT
BRANCH   1  15
ATOM     11  C   UNL     1      -4.210  16.179  24.535  0.00  0.00    +0.000 C 
ATOM     12  N   UNL     1      -4.520  14.835  24.051  0.00  0.00    +0.000 NA
ATOM     13  C   UNL     1      -3.666  13.825  24.700  0.00  0.00    +0.000 C 
ATOM     14  C   UNL     1      -3.838  12.414  24.078  0.00  0.00    +0.000 C 
ATOM     15  N   UNL     1      -3.587  12.334  22.615  0.00  0.00    +0.000 NA
ATOM     16  C   UNL     1      -4.528  13.326  22.025  0.00  0.00    +0.000 C 
ATOM     17  C   UNL     1      -4.406  14.767  22.583  0.00  0.00    +0.000 C 
ENDBRANCH   1  15
BRANCH   3  18
ATOM     18  C   UNL     1      -2.109  11.567  18.736  0.00  0.00    +0.000 A 
ATOM     19  C   UNL     1      -3.485  11.841  18.656  0.00  0.00    +0.000 A 
ATOM     20  C   UNL     1      -4.240  11.380  17.573  0.00  0.00    +0.000 A 
ATOM     21  C   UNL     1      -3.620  10.650  16.569  0.00  0.00    +0.000 A 
ATOM     22  F   UNL     1      -4.339  10.230  15.516  0.00  0.00    +0.000 F 
ATOM     23  C   UNL     1      -2.266  10.358  16.629  0.00  0.00    +0.000 A 
ATOM     24  C   UNL     1      -1.512  10.810  17.713  0.00  0.00    +0.000 A 
ENDBRANCH   3  18
TORSDOF 2
ENDMDL
MODEL 3
REMARK VINA RESULT:      -7.4      0.521      1.113
REMARK  Name = 
REMARK  3 active torsions:
REMARK  status: ('A' for Active; 'I' for Inactive)
REMARK    1  A    between atoms: C_1  and  N_2
REMARK    2  A    between atoms: N_5  and  C_6
REMARK    3  A    between atoms: C_8  and  C_9
REMARK                            x       y       z     vdW  Elec       q    Type
REMARK                         _______ _______ _______ _____ _____    ______ ____
ROOT
ATOM      1  C   UNL     1       4.708   4.602  18.165  0.00  0.00    +0.000 C 
ATOM      2  C   UNL     1       5.990   4.976  18.990  0.00  0.00    +0.000 C 
ATOM      3  C   UNL     1       7.160   5.325  18.047  0.00  0.00    +0.000 C 
ATOM      4  C   UNL     1       6.628   4.915  16.707  0.00  0.00    +0.000 A 
ATOM      5  C   UNL     1       7.347   4.931  15.512  0.00  0.00    +0.000 A 
ATOM      6  C   UNL     1       6.694   4.575  14.336  0.00  0.00    +0.000 A 
ATOM      7 CL   UNL     1       7.534   4.643  12.839  0.00  0.00    +0.000 Cl
ATOM      8  C   UNL     1       5.360   4.165  14.369  0.00  0.00    +0.000 A 
ATOM      9  C   UNL     1       4.664   4.107  15.584  0.00  0.00    +0.000 A 
ATOM     10  C   UNL     1       5.283   4.534  16.757  0.00  0.00    +0.000 A 
ENDROOT
BRANCH   1  15
ATOM     11  C   UNL     1       1.090   2.887  20.718  0.00  0.00    +0.000 C 
ATOM     12  N   UNL     1       1.497   4.105  20.018  0.00  0.00    +0.000 NA
ATOM     13  C   UNL     1       1.671   3.859  18.576  0.00  0.00    +0.000 C 
ATOM     14  C   UNL     1       2.280   5.078  17.835  0.00  0.00    +0.000 C 
ATOM     15  N   UNL     1       3.583   5.554  18.365  0.00  0.00    +0.000 NA
ATOM     16  C   UNL     1       3.313   5.847  19.801  0.00  0.00    +0.000 C 
ATOM     17  C   UNL     1       2.720   4.670  20.616  0.00  0.00    +0.000 C 
ENDBRANCH   1  15
BRANCH   3  18
ATOM     18  C   UNL     1       7.614   6.775  18.068  0.00  0.00    +0.000 A 
ATOM     19  C   UNL     1       7.026   7.707  17.196  0.00  0.00    +0.000 A 
ATOM     20  C   UNL     1       7.361   9.062  17.273  0.00  0.00    +0.000 A 
ATOM     21  C   UNL     1       8.279   9.487  18.223  0.00  0.00    +0.000 A 
ATOM     22  F   UNL     1       8.581  10.792  18.314  0.00  0.00    +0.000 F 
ATOM     23  C   UNL     1       8.880   8.586  19.089  0.00  0.00    +0.000 A 
ATOM     24  C   UNL     1       8.553   7.231  19.009  0.00  0.00    +0.000 A 
ENDBRANCH   3  18
TORSDOF 2
ENDMDL
MODEL 4
REMARK VINA RESULT:      -7.2      3.667      6.435
REMARK  Name = 
REMARK  3 active torsions:
REMARK  status: ('A' for Active; 'I' for Inactive)
REMARK    1  A    between atoms: C_1  and  N_2
REMARK    2  A    between atoms: N_5  and  C_6
REMARK    3  A    between atoms: C_8  and  C_9
REMARK                            x       y       z     vdW  Elec       q    Type
REMARK                         _______ _______ _______ _____ _____    ______ ____
ROOT
ATOM      1  C   UNL     1       4.568   4.540  17.762  0.00  0.00    +0.000 C 
ATOM      2  C   UNL     1       3.449   5.477  17.184  0.00  0.00    +0.000 C 
ATOM      3  C   UNL     1       2.239   5.529  18.139  0.00  0.00    +0.000 C 
ATOM      4  C   UNL     1       2.557   4.444  19.123  0.00  0.00    +0.000 A 
ATOM      5  C   UNL     1       1.716   4.011  20.149  0.00  0.00    +0.000 A 
ATOM      6  C   UNL     1       2.179   3.031  21.020  0.00  0.00    +0.000 A 
ATOM      7 CL   UNL     1       1.193   2.520  22.332  0.00  0.00    +0.000 Cl
ATOM      8  C   UNL     1       3.442   2.463  20.835  0.00  0.00    +0.000 A 
ATOM      9  C   UNL     1       4.255   2.874  19.770  0.00  0.00    +0.000 A 
ATOM     10  C   UNL     1       3.835   3.908  18.937  0.00  0.00    +0.000 A 
ENDROOT
BRANCH   1  15
ATOM     11  C   UNL     1       7.460   5.266  14.066  0.00  0.00    +0.000 C 
ATOM     12  N   UNL     1       7.383   5.524  15.503  0.00  0.00    +0.000 NA
ATOM     13  C   UNL     1       7.333   4.267  16.269  0.00  0.00    +0.000 C 
ATOM     14  C   UNL     1       7.065   4.502  17.779  0.00  0.00    +0.000 C 
ATOM     15  N   UNL     1       5.827   5.262  18.090  0.00  0.00    +0.000 NA
ATOM     16  C   UNL     1       5.980   6.541  17.341  0.00  0.00    +0.000 C 
ATOM     17  C   UNL     1       6.233   6.390  15.819  0.00  0.00    +0.000 C 
ENDBRANCH   1  15
BRANCH   3  18
ATOM     18  C   UNL     1       1.990   6.867  18.815  0.00  0.00    +0.000 A 
ATOM     19  C   UNL     1       1.862   8.032  18.040  0.00  0.00    +0.000 A 
ATOM     20  C   UNL     1       1.533   9.252  18.640  0.00  0.00    +0.000 A 
ATOM     21  C   UNL     1       1.328   9.306  20.011  0.00  0.00    +0.000 A 
ATOM     22  F   UNL     1       0.986  10.472  20.583  0.00  0.00    +0.000 F 
ATOM     23  C   UNL     1       1.456   8.173  20.799  0.00  0.00    +0.000 A 
ATOM     24  C   UNL     1       1.793   6.955  20.204  0.00  0.00    +0.000 A 
ENDBRANCH   3  18
TORSDOF 2
ENDMDL
MODEL 5
REMARK VINA RESULT:      -7.2      9.485     11.652
REMARK  Name = 
REMARK  3 active torsions:
REMARK  status: ('A' for Active; 'I' for Inactive)
REMARK    1  A    between atoms: C_1  and  N_2
REMARK    2  A    between atoms: N_5  and  C_6
REMARK    3  A    between atoms: C_8  and  C_9
REMARK                            x       y       z     vdW  Elec       q    Type
REMARK                         _______ _______ _______ _____ _____    ______ ____
ROOT
ATOM      1  C   UNL     1      -2.109  12.555  22.281  0.00  0.00    +0.000 C 
ATOM      2  C   UNL     1      -1.898  13.171  20.853  0.00  0.00    +0.000 C 
ATOM      3  C   UNL     1      -1.133  12.186  19.945  0.00  0.00    +0.000 C 
ATOM      4  C   UNL     1      -0.694  11.128  20.913  0.00  0.00    +0.000 A 
ATOM      5  C   UNL     1       0.132  10.046  20.609  0.00  0.00    +0.000 A 
ATOM      6  C   UNL     1       0.402   9.114  21.606  0.00  0.00    +0.000 A 
ATOM      7 CL   UNL     1       1.365   7.736  21.248  0.00  0.00    +0.000 Cl
ATOM      8  C   UNL     1      -0.106   9.293  22.894  0.00  0.00    +0.000 A 
ATOM      9  C   UNL     1      -0.893  10.412  23.197  0.00  0.00    +0.000 A 
ATOM     10  C   UNL     1      -1.236  11.311  22.189  0.00  0.00    +0.000 A 
ENDROOT
BRANCH   1  15
ATOM     11  C   UNL     1      -4.217  16.152  24.554  0.00  0.00    +0.000 C 
ATOM     12  N   UNL     1      -4.514  14.814  24.044  0.00  0.00    +0.000 NA
ATOM     13  C   UNL     1      -3.690  13.793  24.713  0.00  0.00    +0.000 C 
ATOM     14  C   UNL     1      -3.844  12.390  24.069  0.00  0.00    +0.000 C 
ATOM     15  N   UNL     1      -3.539  12.324  22.616  0.00  0.00    +0.000 NA
ATOM     16  C   UNL     1      -4.453  13.328  22.002  0.00  0.00    +0.000 C 
ATOM     17  C   UNL     1      -4.346  14.762  22.580  0.00  0.00    +0.000 C 
ENDBRANCH   1  15
BRANCH   3  18
ATOM     18  C   UNL     1      -1.923  11.610  18.782  0.00  0.00    +0.000 A 
ATOM     19  C   UNL     1      -1.290  10.766  17.854  0.00  0.00    +0.000 A 
ATOM     20  C   UNL     1      -2.027  10.149  16.838  0.00  0.00    +0.000 A 
ATOM     21  C   UNL     1      -3.394  10.372  16.751  0.00  0.00    +0.000 A 
ATOM     22  F   UNL     1      -4.105   9.759  15.792  0.00  0.00    +0.000 F 
ATOM     23  C   UNL     1      -4.040  11.207  17.649  0.00  0.00    +0.000 A 
ATOM     24  C   UNL     1      -3.306  11.831  18.660  0.00  0.00    +0.000 A 
ENDBRANCH   3  18
TORSDOF 2
ENDMDL
MODEL 6
REMARK VINA RESULT:      -6.9      3.601      6.347
REMARK  Name = 
REMARK  3 active torsions:
REMARK  status: ('A' for Active; 'I' for Inactive)
REMARK    1  A    between atoms: C_1  and  N_2
REMARK    2  A    between atoms: N_5  and  C_6
REMARK    3  A    between atoms: C_8  and  C_9
REMARK                            x       y       z     vdW  Elec       q    Type
REMARK                         _______ _______ _______ _____ _____    ______ ____
ROOT
ATOM      1  C   UNL     1       4.609   4.368  17.818  0.00  0.00    +0.000 C 
ATOM      2  C   UNL     1       3.470   5.231  17.168  0.00  0.00    +0.000 C 
ATOM      3  C   UNL     1       2.229   5.268  18.084  0.00  0.00    +0.000 C 
ATOM      4  C   UNL     1       2.562   4.239  19.121  0.00  0.00    +0.000 A 
ATOM      5  C   UNL     1       1.708   3.811  20.138  0.00  0.00    +0.000 A 
ATOM      6  C   UNL     1       2.184   2.888  21.063  0.00  0.00    +0.000 A 
ATOM      7 CL   UNL     1       1.180   2.386  22.364  0.00  0.00    +0.000 Cl
ATOM      8  C   UNL     1       3.475   2.368  20.939  0.00  0.00    +0.000 A 
ATOM      9  C   UNL     1       4.303   2.771  19.882  0.00  0.00    +0.000 A 
ATOM     10  C   UNL     1       3.866   3.752  18.996  0.00  0.00    +0.000 A 
ENDROOT
BRANCH   1  15
ATOM     11  C   UNL     1       7.432   5.326  14.122  0.00  0.00    +0.000 C 
ATOM     12  N   UNL     1       7.349   5.554  15.564  0.00  0.00    +0.000 NA
ATOM     13  C   UNL     1       7.377   4.284  16.307  0.00  0.00    +0.000 C 
ATOM     14  C   UNL     1       7.103   4.476  17.823  0.00  0.00    +0.000 C 
ATOM     15  N   UNL     1       5.825   5.156  18.153  0.00  0.00    +0.000 NA
ATOM     16  C   UNL     1       5.899   6.454  17.426  0.00  0.00    +0.000 C 
ATOM     17  C   UNL     1       6.151   6.345  15.901  0.00  0.00    +0.000 C 
ENDBRANCH   1  15
BRANCH   3  18
ATOM     18  C   UNL     1       1.902   6.620  18.696  0.00  0.00    +0.000 A 
ATOM     19  C   UNL     1       1.764   6.743  20.090  0.00  0.00    +0.000 A 
ATOM     20  C   UNL     1       1.563   7.997  20.675  0.00  0.00    +0.000 A 
ATOM     21  C   UNL     1       1.505   9.127  19.871  0.00  0.00    +0.000 A 
ATOM     22  F   UNL     1       1.338  10.333  20.435  0.00  0.00    +0.000 F 
ATOM     23  C   UNL     1       1.630   9.030  18.493  0.00  0.00    +0.000 A 
ATOM     24  C   UNL     1       1.822   7.778  17.905  0.00  0.00    +0.000 A 
ENDBRANCH   3  18
TORSDOF 2
ENDMDL
MODEL 7
REMARK VINA RESULT:      -6.7      9.927     12.093
REMARK  Name = 
REMARK  3 active torsions:
REMARK  status: ('A' for Active; 'I' for Inactive)
REMARK    1  A    between atoms: C_1  and  N_2
REMARK    2  A    between atoms: N_5  and  C_6
REMARK    3  A    between atoms: C_8  and  C_9
REMARK                            x       y       z     vdW  Elec       q    Type
REMARK                         _______ _______ _______ _____ _____    ______ ____
ROOT
ATOM      1  C   UNL     1      -2.935  12.960  21.953  0.00  0.00    +0.000 C 
ATOM      2  C   UNL     1      -2.634  13.437  20.489  0.00  0.00    +0.000 C 
ATOM      3  C   UNL     1      -1.624  12.492  19.807  0.00  0.00    +0.000 C 
ATOM      4  C   UNL     1      -1.164  11.634  20.947  0.00  0.00    +0.000 A 
ATOM      5  C   UNL     1      -0.158  10.670  20.879  0.00  0.00    +0.000 A 
ATOM      6  C   UNL     1       0.115   9.911  22.013  0.00  0.00    +0.000 A 
ATOM      7 CL   UNL     1       1.306   8.674  21.945  0.00  0.00    +0.000 Cl
ATOM      8  C   UNL     1      -0.575  10.151  23.203  0.00  0.00    +0.000 A 
ATOM      9  C   UNL     1      -1.549  11.156  23.269  0.00  0.00    +0.000 A 
ATOM     10  C   UNL     1      -1.886  11.869  22.121  0.00  0.00    +0.000 A 
ENDROOT
BRANCH   1  15
ATOM     11  C   UNL     1      -5.902  16.492  23.079  0.00  0.00    +0.000 C 
ATOM     12  N   UNL     1      -5.906  15.048  22.854  0.00  0.00    +0.000 NA
ATOM     13  C   UNL     1      -5.051  14.353  23.832  0.00  0.00    +0.000 C 
ATOM     14  C   UNL     1      -4.884  12.845  23.509  0.00  0.00    +0.000 C 
ATOM     15  N   UNL     1      -4.348  12.543  22.157  0.00  0.00    +0.000 NA
ATOM     16  C   UNL     1      -5.296  13.216  21.225  0.00  0.00    +0.000 C 
ATOM     17  C   UNL     1      -5.503  14.732  21.472  0.00  0.00    +0.000 C 
ENDBRANCH   1  15
BRANCH   3  18
ATOM     18  C   UNL     1      -2.166  11.670  18.650  0.00  0.00    +0.000 A 
ATOM     19  C   UNL     1      -1.297  10.868  17.890  0.00  0.00    +0.000 A 
ATOM     20  C   UNL     1      -1.797  10.030  16.888  0.00  0.00    +0.000 A 
ATOM     21  C   UNL     1      -3.163   9.991  16.647  0.00  0.00    +0.000 A 
ATOM     22  F   UNL     1      -3.644   9.168  15.703  0.00  0.00    +0.000 F 
ATOM     23  C   UNL     1      -4.040  10.779  17.376  0.00  0.00    +0.000 A 
ATOM     24  C   UNL     1      -3.543  11.623  18.372  0.00  0.00    +0.000 A 
ENDBRANCH   3  18
TORSDOF 2
ENDMDL
MODEL 8
REMARK VINA RESULT:      -6.6      7.252      9.375
REMARK  Name = 
REMARK  3 active torsions:
REMARK  status: ('A' for Active; 'I' for Inactive)
REMARK    1  A    between atoms: C_1  and  N_2
REMARK    2  A    between atoms: N_5  and  C_6
REMARK    3  A    between atoms: C_8  and  C_9
REMARK                            x       y       z     vdW  Elec       q    Type
REMARK                         _______ _______ _______ _____ _____    ______ ____
ROOT
ATOM      1  C   UNL     1       0.689  12.360  20.118  0.00  0.00    +0.000 C 
ATOM      2  C   UNL     1       1.024  11.042  20.902  0.00  0.00    +0.000 C 
ATOM      3  C   UNL     1       0.396   9.820  20.202  0.00  0.00    +0.000 C 
ATOM      4  C   UNL     1      -0.493  10.456  19.176  0.00  0.00    +0.000 A 
ATOM      5  C   UNL     1      -1.374   9.776  18.335  0.00  0.00    +0.000 A 
ATOM      6  C   UNL     1      -2.091  10.504  17.391  0.00  0.00    +0.000 A 
ATOM      7 CL   UNL     1      -3.137   9.689  16.299  0.00  0.00    +0.000 Cl
ATOM      8  C   UNL     1      -1.961  11.893  17.328  0.00  0.00    +0.000 A 
ATOM      9  C   UNL     1      -1.110  12.568  18.213  0.00  0.00    +0.000 A 
ATOM     10  C   UNL     1      -0.329  11.843  19.110  0.00  0.00    +0.000 A 
ENDROOT
BRANCH   1  15
ATOM     11  C   UNL     1       1.184  16.924  21.332  0.00  0.00    +0.000 C 
ATOM     12  N   UNL     1       1.850  15.891  20.540  0.00  0.00    +0.000 NA
ATOM     13  C   UNL     1       0.989  15.426  19.439  0.00  0.00    +0.000 C 
ATOM     14  C   UNL     1       1.587  14.203  18.694  0.00  0.00    +0.000 C 
ATOM     15  N   UNL     1       1.890  13.027  19.549  0.00  0.00    +0.000 NA
ATOM     16  C   UNL     1       2.813  13.557  20.591  0.00  0.00    +0.000 C 
ATOM     17  C   UNL     1       2.278  14.770  21.395  0.00  0.00    +0.000 C 
ENDBRANCH   1  15
BRANCH   3  18
ATOM     18  C   UNL     1       1.376   8.837  19.585  0.00  0.00    +0.000 A 
ATOM     19  C   UNL     1       1.689   7.642  20.256  0.00  0.00    +0.000 A 
ATOM     20  C   UNL     1       2.510   6.683  19.655  0.00  0.00    +0.000 A 
ATOM     21  C   UNL     1       3.016   6.915  18.384  0.00  0.00    +0.000 A 
ATOM     22  F   UNL     1       3.783   5.983  17.797  0.00  0.00    +0.000 F 
ATOM     23  C   UNL     1       2.730   8.089  17.704  0.00  0.00    +0.000 A 
ATOM     24  C   UNL     1       1.916   9.052  18.305  0.00  0.00    +0.000 A 
ENDBRANCH   3  18
TORSDOF 2
ENDMDL
MODEL 9
REMARK VINA RESULT:      -6.5      8.021      9.900
REMARK  Name = 
REMARK  3 active torsions:
REMARK  status: ('A' for Active; 'I' for Inactive)
REMARK    1  A    between atoms: C_1  and  N_2
REMARK    2  A    between atoms: N_5  and  C_6
REMARK    3  A    between atoms: C_8  and  C_9
REMARK                            x       y       z     vdW  Elec       q    Type
REMARK                         _______ _______ _______ _____ _____    ______ ____
ROOT
ATOM      1  C   UNL     1      -0.712  12.976  20.585  0.00  0.00    +0.000 C 
ATOM      2  C   UNL     1      -0.998  11.728  19.678  0.00  0.00    +0.000 C 
ATOM      3  C   UNL     1       0.220  11.416  18.784  0.00  0.00    +0.000 C 
ATOM      4  C   UNL     1       1.092  12.617  18.997  0.00  0.00    +0.000 A 
ATOM      5  C   UNL     1       2.287  12.877  18.325  0.00  0.00    +0.000 A 
ATOM      6  C   UNL     1       3.016  14.008  18.677  0.00  0.00    +0.000 A 
ATOM      7 CL   UNL     1       4.523  14.325  17.914  0.00  0.00    +0.000 Cl
ATOM      8  C   UNL     1       2.529  14.885  19.648  0.00  0.00    +0.000 A 
ATOM      9  C   UNL     1       1.302  14.636  20.279  0.00  0.00    +0.000 A 
ATOM     10  C   UNL     1       0.602  13.468  19.992  0.00  0.00    +0.000 A 
ENDROOT
BRANCH   1  15
ATOM     11  C   UNL     1      -4.514  14.475  23.002  0.00  0.00    +0.000 C 
ATOM     12  N   UNL     1      -3.254  13.765  23.214  0.00  0.00    +0.000 NA
ATOM     13  C   UNL     1      -2.099  14.620  22.892  0.00  0.00    +0.000 C 
ATOM     14  C   UNL     1      -0.756  13.843  22.927  0.00  0.00    +0.000 C 
ATOM     15  N   UNL     1      -0.691  12.654  22.037  0.00  0.00    +0.000 NA
ATOM     16  C   UNL     1      -1.841  11.809  22.465  0.00  0.00    +0.000 C 
ATOM     17  C   UNL     1      -3.223  12.511  22.440  0.00  0.00    +0.000 C 
ENDBRANCH   1  15
BRANCH   3  18
ATOM     18  C   UNL     1       0.945  10.116  19.087  0.00  0.00    +0.000 A 
ATOM     19  C   UNL     1       0.880   9.560  20.377  0.00  0.00    +0.000 A 
ATOM     20  C   UNL     1       1.456   8.314  20.644  0.00  0.00    +0.000 A 
ATOM     21  C   UNL     1       2.094   7.623  19.623  0.00  0.00    +0.000 A 
ATOM     22  F   UNL     1       2.625   6.416  19.874  0.00  0.00    +0.000 F 
ATOM     23  C   UNL     1       2.180   8.153  18.345  0.00  0.00    +0.000 A 
ATOM     24  C   UNL     1       1.611   9.401  18.078  0.00  0.00    +0.000 A 
ENDBRANCH   3  18
TORSDOF 2
ENDMDL
