MODEL 1
REMARK VINA RESULT:      -6.7      0.000      0.000
REMARK  Name = 
REMARK  11 active torsions:
REMARK  status: ('A' for Active; 'I' for Inactive)
REMARK    1  A    between atoms: C_1  and  C_2
REMARK    2  A    between atoms: C_2  and  S_3
REMARK    3  A    between atoms: S_3  and  N_6
REMARK    4  A    between atoms: C_10  and  C_11
REMARK    5  A    between atoms: N_13  and  CA_14
REMARK    6  A    between atoms: CA_14  and  C_15
REMARK    7  A    between atoms: CA_14  and  CB_17
REMARK    8  A    between atoms: C_15  and  O_16
REMARK    9  A    between atoms: CB_17  and  CG_18
REMARK   10  A    between atoms: CG_18  and  CD1_19
REMARK   11  A    between atoms: CG_18  and  CD2_20
REMARK                            x       y       z     vdW  Elec       q    Type
REMARK                         _______ _______ _______ _____ _____    ______ ____
ROOT
ATOM      1  C   UNK A   0       4.551   4.122  19.495  0.00  0.00    +0.000 C 
ATOM      2  O   UNK A   0       4.237   3.004  19.899  0.00  0.00    +0.000 OA
ATOM      3  N   LEU A   1       3.707   5.204  19.651  0.00  0.00    +0.000 N 
ATOM      4  H   LEU A   1       4.114   6.130  19.631  0.00  0.00    +0.000 HD
ENDROOT
BRANCH   1   9
ATOM      5  N   UNK A   0       6.827   5.198  16.601  0.00  0.00    +0.000 NA
ATOM      6  C   UNK A   0       7.354   6.433  17.241  0.00  0.00    +0.000 C 
ATOM      7  C   UNK A   0       7.768   6.109  18.667  0.00  0.00    +0.000 C 
ATOM      8  C   UNK A   0       6.581   5.610  19.481  0.00  0.00    +0.000 C 
ATOM      9  C   UNK A   0       5.883   4.418  18.808  0.00  0.00    +0.000 C 
ATOM     10  C   UNK A   0       5.610   4.683  17.315  0.00  0.00    +0.000 C 
BRANCH   5  11
ATOM     11  S   UNK A   0       6.618   5.369  14.897  0.00  0.00    +0.000 S 
ATOM     12  O   UNK A   0       7.921   5.621  14.315  0.00  0.00    +0.000 OA
ATOM     13  O   UNK A   0       5.510   6.269  14.669  0.00  0.00    +0.000 OA
BRANCH  11  15
ATOM     14  C   UNK A   0       5.900   3.602  12.942  0.00  0.00    +0.000 C 
ATOM     15  C   UNK A   0       6.139   3.707  14.438  0.00  0.00    +0.000 C 
ENDBRANCH  11  15
ENDBRANCH   5  11
ENDBRANCH   1   9
BRANCH   3  16
ATOM     16  CA  LEU A   1       2.392   5.043  20.274  0.00  0.00    +0.000 C 
BRANCH  16  17
ATOM     17  C   LEU A   1       1.840   6.399  20.773  0.00  0.00    +0.000 C 
BRANCH  17  18
ATOM     18  O   LEU A   1       2.456   7.517  20.138  0.00  0.00    +0.000 OA
ATOM     19  H   LEU A   1       2.981   7.997  20.813  0.00  0.00    +0.000 HD
ENDBRANCH  17  18
ENDBRANCH  16  17
BRANCH  16  20
ATOM     20  CB  LEU A   1       1.391   4.389  19.309  0.00  0.00    +0.000 C 
BRANCH  20  21
ATOM     21  CG  LEU A   1       0.764   3.064  19.797  0.00  0.00    +0.000 C 
ATOM     22  CD1 LEU A   1       1.021   1.897  18.843  0.00  0.00    +0.000 C 
ATOM     23  CD2 LEU A   1       1.318   2.724  21.186  0.00  0.00    +0.000 C 
ENDBRANCH  20  21
ENDBRANCH  16  20
ENDBRANCH   3  16
TORSDOF 8
ENDMDL
MODEL 2
REMARK VINA RESULT:      -6.5      2.688      6.777
REMARK  Name = 
REMARK  11 active torsions:
REMARK  status: ('A' for Active; 'I' for Inactive)
REMARK    1  A    between atoms: C_1  and  C_2
REMARK    2  A    between atoms: C_2  and  S_3
REMARK    3  A    between atoms: S_3  and  N_6
REMARK    4  A    between atoms: C_10  and  C_11
REMARK    5  A    between atoms: N_13  and  CA_14
REMARK    6  A    between atoms: CA_14  and  C_15
REMARK    7  A    between atoms: CA_14  and  CB_17
REMARK    8  A    between atoms: C_15  and  O_16
REMARK    9  A    between atoms: CB_17  and  CG_18
REMARK   10  A    between atoms: CG_18  and  CD1_19
REMARK   11  A    between atoms: CG_18  and  CD2_20
REMARK                            x       y       z     vdW  Elec       q    Type
REMARK                         _______ _______ _______ _____ _____    ______ ____
ROOT
ATOM      1  C   UNK A   0       4.517   6.080  16.986  0.00  0.00    +0.000 C 
ATOM      2  O   UNK A   0       5.060   7.148  16.708  0.00  0.00    +0.000 OA
ATOM      3  N   LEU A   1       5.106   4.872  16.671  0.00  0.00    +0.000 N 
ATOM      4  H   LEU A   1       4.824   4.055  17.199  0.00  0.00    +0.000 HD
ENDROOT
BRANCH   1   9
ATOM      5  N   UNK A   0       1.754   4.378  19.031  0.00  0.00    +0.000 NA
ATOM      6  C   UNK A   0       1.879   5.233  20.242  0.00  0.00    +0.000 C 
ATOM      7  C   UNK A   0       1.941   6.690  19.811  0.00  0.00    +0.000 C 
ATOM      8  C   UNK A   0       3.145   6.942  18.913  0.00  0.00    +0.000 C 
ATOM      9  C   UNK A   0       3.172   5.992  17.706  0.00  0.00    +0.000 C 
ATOM     10  C   UNK A   0       2.944   4.527  18.126  0.00  0.00    +0.000 C 
BRANCH   5  11
ATOM     11  S   UNK A   0       1.365   2.741  19.410  0.00  0.00    +0.000 S 
ATOM     12  O   UNK A   0       2.518   1.925  19.083  0.00  0.00    +0.000 OA
ATOM     13  O   UNK A   0       0.061   2.450  18.857  0.00  0.00    +0.000 OA
BRANCH  11  15
ATOM     14  C   UNK A   0       2.531   2.321  21.843  0.00  0.00    +0.000 C 
ATOM     15  C   UNK A   0       1.251   2.816  21.194  0.00  0.00    +0.000 C 
ENDBRANCH  11  15
ENDBRANCH   5  11
ENDBRANCH   1   9
BRANCH   3  16
ATOM     16  CA  LEU A   1       6.385   4.826  15.962  0.00  0.00    +0.000 C 
BRANCH  16  17
ATOM     17  C   LEU A   1       7.549   4.500  16.927  0.00  0.00    +0.000 C 
BRANCH  17  18
ATOM     18  O   LEU A   1       7.104   4.167  18.240  0.00  0.00    +0.000 OA
ATOM     19  H   LEU A   1       6.150   4.385  18.300  0.00  0.00    +0.000 HD
ENDBRANCH  17  18
ENDBRANCH  16  17
BRANCH  16  20
ATOM     20  CB  LEU A   1       6.352   3.805  14.812  0.00  0.00    +0.000 C 
BRANCH  20  21
ATOM     21  CG  LEU A   1       6.341   4.406  13.389  0.00  0.00    +0.000 C 
ATOM     22  CD1 LEU A   1       7.659   5.087  13.020  0.00  0.00    +0.000 C 
ATOM     23  CD2 LEU A   1       6.032   3.298  12.375  0.00  0.00    +0.000 C 
ENDBRANCH  20  21
ENDBRANCH  16  20
ENDBRANCH   3  16
TORSDOF 8
ENDMDL
MODEL 3
REMARK VINA RESULT:      -6.5      1.562      2.387
REMARK  Name = 
REMARK  11 active torsions:
REMARK  status: ('A' for Active; 'I' for Inactive)
REMARK    1  A    between atoms: C_1  and  C_2
REMARK    2  A    between atoms: C_2  and  S_3
REMARK    3  A    between atoms: S_3  and  N_6
REMARK    4  A    between atoms: C_10  and  C_11
REMARK    5  A    between atoms: N_13  and  CA_14
REMARK    6  A    between atoms: CA_14  and  C_15
REMARK    7  A    between atoms: CA_14  and  CB_17
REMARK    8  A    between atoms: C_15  and  O_16
REMARK    9  A    between atoms: CB_17  and  CG_18
REMARK   10  A    between atoms: CG_18  and  CD1_19
REMARK   11  A    between atoms: CG_18  and  CD2_20
REMARK                            x       y       z     vdW  Elec       q    Type
REMARK                         _______ _______ _______ _____ _____    ______ ____
ROOT
ATOM      1  C   UNK A   0       4.309   3.627  19.167  0.00  0.00    +0.000 C 
ATOM      2  O   UNK A   0       3.874   2.482  19.058  0.00  0.00    +0.000 OA
ATOM      3  N   LEU A   1       3.593   4.607  19.824  0.00  0.00    +0.000 N 
ATOM      4  H   LEU A   1       4.102   5.403  20.188  0.00  0.00    +0.000 HD
ENDROOT
BRANCH   1   9
ATOM      5  N   UNK A   0       6.708   5.068  16.544  0.00  0.00    +0.000 NA
ATOM      6  C   UNK A   0       7.099   6.281  17.310  0.00  0.00    +0.000 C 
ATOM      7  C   UNK A   0       7.431   5.876  18.737  0.00  0.00    +0.000 C 
ATOM      8  C   UNK A   0       6.226   5.240  19.418  0.00  0.00    +0.000 C 
ATOM      9  C   UNK A   0       5.664   4.060  18.609  0.00  0.00    +0.000 C 
ATOM     10  C   UNK A   0       5.482   4.422  17.122  0.00  0.00    +0.000 C 
BRANCH   5  11
ATOM     11  S   UNK A   0       6.612   5.357  14.846  0.00  0.00    +0.000 S 
ATOM     12  O   UNK A   0       7.964   5.505  14.345  0.00  0.00    +0.000 OA
ATOM     13  O   UNK A   0       5.614   6.378  14.620  0.00  0.00    +0.000 OA
BRANCH  11  15
ATOM     14  C   UNK A   0       6.261   3.610  12.776  0.00  0.00    +0.000 C 
ATOM     15  C   UNK A   0       5.995   3.782  14.261  0.00  0.00    +0.000 C 
ENDBRANCH  11  15
ENDBRANCH   5  11
ENDBRANCH   1   9
BRANCH   3  16
ATOM     16  CA  LEU A   1       2.271   4.320  20.382  0.00  0.00    +0.000 C 
BRANCH  16  17
ATOM     17  C   LEU A   1       2.383   3.719  21.803  0.00  0.00    +0.000 C 
BRANCH  17  18
ATOM     18  O   LEU A   1       1.617   2.527  21.962  0.00  0.00    +0.000 OA
ATOM     19  H   LEU A   1       0.962   2.488  21.234  0.00  0.00    +0.000 HD
ENDBRANCH  17  18
ENDBRANCH  16  17
BRANCH  16  20
ATOM     20  CB  LEU A   1       1.388   5.578  20.410  0.00  0.00    +0.000 C 
BRANCH  20  21
ATOM     21  CG  LEU A   1       2.132   6.918  20.213  0.00  0.00    +0.000 C 
ATOM     22  CD1 LEU A   1       2.297   7.296  18.741  0.00  0.00    +0.000 C 
ATOM     23  CD2 LEU A   1       1.374   8.029  20.948  0.00  0.00    +0.000 C 
ENDBRANCH  20  21
ENDBRANCH  16  20
ENDBRANCH   3  16
TORSDOF 8
ENDMDL
MODEL 4
REMARK VINA RESULT:      -6.5      2.054      6.668
REMARK  Name = 
REMARK  11 active torsions:
REMARK  status: ('A' for Active; 'I' for Inactive)
REMARK    1  A    between atoms: C_1  and  C_2
REMARK    2  A    between atoms: C_2  and  S_3
REMARK    3  A    between atoms: S_3  and  N_6
REMARK    4  A    between atoms: C_10  and  C_11
REMARK    5  A    between atoms: N_13  and  CA_14
REMARK    6  A    between atoms: CA_14  and  C_15
REMARK    7  A    between atoms: CA_14  and  CB_17
REMARK    8  A    between atoms: C_15  and  O_16
REMARK    9  A    between atoms: CB_17  and  CG_18
REMARK   10  A    between atoms: CG_18  and  CD1_19
REMARK   11  A    between atoms: CG_18  and  CD2_20
REMARK                            x       y       z     vdW  Elec       q    Type
REMARK                         _______ _______ _______ _____ _____    ______ ____
ROOT
ATOM      1  C   UNK A   0       5.551   6.150  15.591  0.00  0.00    +0.000 C 
ATOM      2  O   UNK A   0       5.065   7.000  14.847  0.00  0.00    +0.000 OA
ATOM      3  N   LEU A   1       6.164   5.020  15.085  0.00  0.00    +0.000 N 
ATOM      4  H   LEU A   1       6.832   4.540  15.674  0.00  0.00    +0.000 HD
ENDROOT
BRANCH   1   9
ATOM      5  N   UNK A   0       4.164   5.610  19.125  0.00  0.00    +0.000 NA
ATOM      6  C   UNK A   0       5.264   4.737  19.615  0.00  0.00    +0.000 C 
ATOM      7  C   UNK A   0       6.595   5.364  19.235  0.00  0.00    +0.000 C 
ATOM      8  C   UNK A   0       6.722   5.501  17.723  0.00  0.00    +0.000 C 
ATOM      9  C   UNK A   0       5.539   6.269  17.114  0.00  0.00    +0.000 C 
ATOM     10  C   UNK A   0       4.187   5.738  17.629  0.00  0.00    +0.000 C 
BRANCH   5  11
ATOM     11  S   UNK A   0       2.625   5.162  19.765  0.00  0.00    +0.000 S 
ATOM     12  O   UNK A   0       1.962   6.373  20.208  0.00  0.00    +0.000 OA
ATOM     13  O   UNK A   0       2.820   4.045  20.661  0.00  0.00    +0.000 OA
BRANCH  11  15
ATOM     14  C   UNK A   0       1.606   3.094  18.301  0.00  0.00    +0.000 C 
ATOM     15  C   UNK A   0       1.785   4.602  18.288  0.00  0.00    +0.000 C 
ENDBRANCH  11  15
ENDBRANCH   5  11
ENDBRANCH   1   9
BRANCH   3  16
ATOM     16  CA  LEU A   1       6.220   4.783  13.643  0.00  0.00    +0.000 C 
BRANCH  16  17
ATOM     17  C   LEU A   1       7.681   4.770  13.134  0.00  0.00    +0.000 C 
BRANCH  17  18
ATOM     18  O   LEU A   1       8.470   5.820  13.688  0.00  0.00    +0.000 OA
ATOM     19  H   LEU A   1       9.379   5.478  13.821  0.00  0.00    +0.000 HD
ENDBRANCH  17  18
ENDBRANCH  16  17
BRANCH  16  20
ATOM     20  CB  LEU A   1       5.518   3.469  13.263  0.00  0.00    +0.000 C 
BRANCH  20  21
ATOM     21  CG  LEU A   1       5.473   3.150  11.752  0.00  0.00    +0.000 C 
ATOM     22  CD1 LEU A   1       6.011   1.758  11.420  0.00  0.00    +0.000 C 
ATOM     23  CD2 LEU A   1       4.030   3.278  11.251  0.00  0.00    +0.000 C 
ENDBRANCH  20  21
ENDBRANCH  16  20
ENDBRANCH   3  16
TORSDOF 8
ENDMDL
MODEL 5
REMARK VINA RESULT:      -6.5      2.371      6.718
REMARK  Name = 
REMARK  11 active torsions:
REMARK  status: ('A' for Active; 'I' for Inactive)
REMARK    1  A    between atoms: C_1  and  C_2
REMARK    2  A    between atoms: C_2  and  S_3
REMARK    3  A    between atoms: S_3  and  N_6
REMARK    4  A    between atoms: C_10  and  C_11
REMARK    5  A    between atoms: N_13  and  CA_14
REMARK    6  A    between atoms: CA_14  and  C_15
REMARK    7  A    between atoms: CA_14  and  CB_17
REMARK    8  A    between atoms: C_15  and  O_16
REMARK    9  A    between atoms: CB_17  and  CG_18
REMARK   10  A    between atoms: CG_18  and  CD1_19
REMARK   11  A    between atoms: CG_18  and  CD2_20
REMARK                            x       y       z     vdW  Elec       q    Type
REMARK                         _______ _______ _______ _____ _____    ______ ____
ROOT
ATOM      1  C   UNK A   0       5.288   6.013  15.738  0.00  0.00    +0.000 C 
ATOM      2  O   UNK A   0       5.125   6.975  14.989  0.00  0.00    +0.000 OA
ATOM      3  N   LEU A   1       5.876   4.846  15.290  0.00  0.00    +0.000 N 
ATOM      4  H   LEU A   1       6.298   4.234  15.977  0.00  0.00    +0.000 HD
ENDROOT
BRANCH   1   9
ATOM      5  N   UNK A   0       3.292   4.891  18.815  0.00  0.00    +0.000 NA
ATOM      6  C   UNK A   0       4.437   4.310  19.565  0.00  0.00    +0.000 C 
ATOM      7  C   UNK A   0       5.598   5.291  19.528  0.00  0.00    +0.000 C 
ATOM      8  C   UNK A   0       6.042   5.556  18.096  0.00  0.00    +0.000 C 
ATOM      9  C   UNK A   0       4.877   6.023  17.209  0.00  0.00    +0.000 C 
ATOM     10  C   UNK A   0       3.639   5.120  17.372  0.00  0.00    +0.000 C 
BRANCH   5  11
ATOM     11  S   UNK A   0       1.827   4.012  19.051  0.00  0.00    +0.000 S 
ATOM     12  O   UNK A   0       1.160   3.912  17.768  0.00  0.00    +0.000 OA
ATOM     13  O   UNK A   0       1.152   4.565  20.204  0.00  0.00    +0.000 OA
BRANCH  11  15
ATOM     14  C   UNK A   0       2.856   1.630  18.199  0.00  0.00    +0.000 C 
ATOM     15  C   UNK A   0       2.459   2.387  19.453  0.00  0.00    +0.000 C 
ENDBRANCH  11  15
ENDBRANCH   5  11
ENDBRANCH   1   9
BRANCH   3  16
ATOM     16  CA  LEU A   1       6.292   4.707  13.894  0.00  0.00    +0.000 C 
BRANCH  16  17
ATOM     17  C   LEU A   1       7.799   5.012  13.727  0.00  0.00    +0.000 C 
BRANCH  17  18
ATOM     18  O   LEU A   1       8.082   5.798  12.572  0.00  0.00    +0.000 OA
ATOM     19  H   LEU A   1       8.711   5.297  12.011  0.00  0.00    +0.000 HD
ENDBRANCH  17  18
ENDBRANCH  16  17
BRANCH  16  20
ATOM     20  CB  LEU A   1       5.975   3.305  13.351  0.00  0.00    +0.000 C 
BRANCH  20  21
ATOM     21  CG  LEU A   1       5.828   3.202  11.817  0.00  0.00    +0.000 C 
ATOM     22  CD1 LEU A   1       6.507   1.962  11.235  0.00  0.00    +0.000 C 
ATOM     23  CD2 LEU A   1       4.339   3.193  11.451  0.00  0.00    +0.000 C 
ENDBRANCH  20  21
ENDBRANCH  16  20
ENDBRANCH   3  16
TORSDOF 8
ENDMDL
MODEL 6
REMARK VINA RESULT:      -6.5      2.722      6.644
REMARK  Name = 
REMARK  11 active torsions:
REMARK  status: ('A' for Active; 'I' for Inactive)
REMARK    1  A    between atoms: C_1  and  C_2
REMARK    2  A    between atoms: C_2  and  S_3
REMARK    3  A    between atoms: S_3  and  N_6
REMARK    4  A    between atoms: C_10  and  C_11
REMARK    5  A    between atoms: N_13  and  CA_14
REMARK    6  A    between atoms: CA_14  and  C_15
REMARK    7  A    between atoms: CA_14  and  CB_17
REMARK    8  A    between atoms: C_15  and  O_16
REMARK    9  A    between atoms: CB_17  and  CG_18
REMARK   10  A    between atoms: CG_18  and  CD1_19
REMARK   11  A    between atoms: CG_18  and  CD2_20
REMARK                            x       y       z     vdW  Elec       q    Type
REMARK                         _______ _______ _______ _____ _____    ______ ____
ROOT
ATOM      1  C   UNK A   0       4.201   6.221  17.096  0.00  0.00    +0.000 C 
ATOM      2  O   UNK A   0       4.753   7.313  16.974  0.00  0.00    +0.000 OA
ATOM      3  N   LEU A   1       4.703   5.091  16.480  0.00  0.00    +0.000 N 
ATOM      4  H   LEU A   1       4.449   4.190  16.864  0.00  0.00    +0.000 HD
ENDROOT
BRANCH   1   9
ATOM      5  N   UNK A   0       1.745   4.240  19.276  0.00  0.00    +0.000 NA
ATOM      6  C   UNK A   0       1.949   5.022  20.525  0.00  0.00    +0.000 C 
ATOM      7  C   UNK A   0       1.895   6.504  20.192  0.00  0.00    +0.000 C 
ATOM      8  C   UNK A   0       2.989   6.880  19.201  0.00  0.00    +0.000 C 
ATOM      9  C   UNK A   0       2.941   6.012  17.934  0.00  0.00    +0.000 C 
ATOM     10  C   UNK A   0       2.829   4.513  18.273  0.00  0.00    +0.000 C 
BRANCH   5  11
ATOM     11  S   UNK A   0       1.477   2.563  19.577  0.00  0.00    +0.000 S 
ATOM     12  O   UNK A   0       0.340   2.147  18.780  0.00  0.00    +0.000 OA
ATOM     13  O   UNK A   0       1.505   2.354  21.007  0.00  0.00    +0.000 OA
BRANCH  11  15
ATOM     14  C   UNK A   0       4.135   1.964  19.769  0.00  0.00    +0.000 C 
ATOM     15  C   UNK A   0       2.939   1.840  18.841  0.00  0.00    +0.000 C 
ENDBRANCH  11  15
ENDBRANCH   5  11
ENDBRANCH   1   9
BRANCH   3  16
ATOM     16  CA  LEU A   1       5.893   5.168  15.632  0.00  0.00    +0.000 C 
BRANCH  16  17
ATOM     17  C   LEU A   1       7.184   5.226  16.483  0.00  0.00    +0.000 C 
BRANCH  17  18
ATOM     18  O   LEU A   1       7.674   6.552  16.659  0.00  0.00    +0.000 OA
ATOM     19  H   LEU A   1       8.235   6.773  15.885  0.00  0.00    +0.000 HD
ENDBRANCH  17  18
ENDBRANCH  16  17
BRANCH  16  20
ATOM     20  CB  LEU A   1       5.960   3.986  14.652  0.00  0.00    +0.000 C 
BRANCH  20  21
ATOM     21  CG  LEU A   1       6.159   4.363  13.167  0.00  0.00    +0.000 C 
ATOM     22  CD1 LEU A   1       7.559   4.899  12.870  0.00  0.00    +0.000 C 
ATOM     23  CD2 LEU A   1       5.882   3.134  12.293  0.00  0.00    +0.000 C 
ENDBRANCH  20  21
ENDBRANCH  16  20
ENDBRANCH   3  16
TORSDOF 8
ENDMDL
MODEL 7
REMARK VINA RESULT:      -6.4      2.883      6.585
REMARK  Name = 
REMARK  11 active torsions:
REMARK  status: ('A' for Active; 'I' for Inactive)
REMARK    1  A    between atoms: C_1  and  C_2
REMARK    2  A    between atoms: C_2  and  S_3
REMARK    3  A    between atoms: S_3  and  N_6
REMARK    4  A    between atoms: C_10  and  C_11
REMARK    5  A    between atoms: N_13  and  CA_14
REMARK    6  A    between atoms: CA_14  and  C_15
REMARK    7  A    between atoms: CA_14  and  CB_17
REMARK    8  A    between atoms: C_15  and  O_16
REMARK    9  A    between atoms: CB_17  and  CG_18
REMARK   10  A    between atoms: CG_18  and  CD1_19
REMARK   11  A    between atoms: CG_18  and  CD2_20
REMARK                            x       y       z     vdW  Elec       q    Type
REMARK                         _______ _______ _______ _____ _____    ______ ____
ROOT
ATOM      1  C   UNK A   0       4.116   6.492  17.379  0.00  0.00    +0.000 C 
ATOM      2  O   UNK A   0       4.547   7.619  17.142  0.00  0.00    +0.000 OA
ATOM      3  N   LEU A   1       4.787   5.362  16.956  0.00  0.00    +0.000 N 
ATOM      4  H   LEU A   1       4.608   4.494  17.444  0.00  0.00    +0.000 HD
ENDROOT
BRANCH   1   9
ATOM      5  N   UNK A   0       1.678   4.460  19.533  0.00  0.00    +0.000 NA
ATOM      6  C   UNK A   0       1.766   5.311  20.749  0.00  0.00    +0.000 C 
ATOM      7  C   UNK A   0       1.636   6.769  20.339  0.00  0.00    +0.000 C 
ATOM      8  C   UNK A   0       2.755   7.169  19.386  0.00  0.00    +0.000 C 
ATOM      9  C   UNK A   0       2.829   6.241  18.164  0.00  0.00    +0.000 C 
ATOM     10  C   UNK A   0       2.794   4.755  18.572  0.00  0.00    +0.000 C 
BRANCH   5  11
ATOM     11  S   UNK A   0       1.501   2.785  19.905  0.00  0.00    +0.000 S 
ATOM     12  O   UNK A   0       0.747   2.171  18.830  0.00  0.00    +0.000 OA
ATOM     13  O   UNK A   0       1.069   2.673  21.280  0.00  0.00    +0.000 OA
BRANCH  11  15
ATOM     14  C   UNK A   0       3.410   1.471  18.460  0.00  0.00    +0.000 C 
ATOM     15  C   UNK A   0       3.192   2.217  19.764  0.00  0.00    +0.000 C 
ENDBRANCH  11  15
ENDBRANCH   5  11
ENDBRANCH   1   9
BRANCH   3  16
ATOM     16  CA  LEU A   1       6.020   5.474  16.176  0.00  0.00    +0.000 C 
BRANCH  16  17
ATOM     17  C   LEU A   1       7.065   4.427  16.628  0.00  0.00    +0.000 C 
BRANCH  17  18
ATOM     18  O   LEU A   1       7.007   4.155  18.026  0.00  0.00    +0.000 OA
ATOM     19  H   LEU A   1       6.088   3.892  18.246  0.00  0.00    +0.000 HD
ENDBRANCH  17  18
ENDBRANCH  16  17
BRANCH  16  20
ATOM     20  CB  LEU A   1       5.746   5.329  14.670  0.00  0.00    +0.000 C 
BRANCH  20  21
ATOM     21  CG  LEU A   1       6.722   4.411  13.901  0.00  0.00    +0.000 C 
ATOM     22  CD1 LEU A   1       6.015   3.482  12.915  0.00  0.00    +0.000 C 
ATOM     23  CD2 LEU A   1       7.744   5.275  13.152  0.00  0.00    +0.000 C 
ENDBRANCH  20  21
ENDBRANCH  16  20
ENDBRANCH   3  16
TORSDOF 8
ENDMDL
MODEL 8
REMARK VINA RESULT:      -6.4      2.131      6.793
REMARK  Name = 
REMARK  11 active torsions:
REMARK  status: ('A' for Active; 'I' for Inactive)
REMARK    1  A    between atoms: C_1  and  C_2
REMARK    2  A    between atoms: C_2  and  S_3
REMARK    3  A    between atoms: S_3  and  N_6
REMARK    4  A    between atoms: C_10  and  C_11
REMARK    5  A    between atoms: N_13  and  CA_14
REMARK    6  A    between atoms: CA_14  and  C_15
REMARK    7  A    between atoms: CA_14  and  CB_17
REMARK    8  A    between atoms: C_15  and  O_16
REMARK    9  A    between atoms: CB_17  and  CG_18
REMARK   10  A    between atoms: CG_18  and  CD1_19
REMARK   11  A    between atoms: CG_18  and  CD2_20
REMARK                            x       y       z     vdW  Elec       q    Type
REMARK                         _______ _______ _______ _____ _____    ______ ____
ROOT
ATOM      1  C   UNK A   0       5.367   6.080  15.782  0.00  0.00    +0.000 C 
ATOM      2  O   UNK A   0       4.998   7.013  15.071  0.00  0.00    +0.000 OA
ATOM      3  N   LEU A   1       5.882   4.922  15.234  0.00  0.00    +0.000 N 
ATOM      4  H   LEU A   1       6.476   4.345  15.817  0.00  0.00    +0.000 HD
ENDROOT
BRANCH   1   9
ATOM      5  N   UNK A   0       3.797   5.492  19.231  0.00  0.00    +0.000 NA
ATOM      6  C   UNK A   0       4.789   4.491  19.708  0.00  0.00    +0.000 C 
ATOM      7  C   UNK A   0       6.188   5.005  19.409  0.00  0.00    +0.000 C 
ATOM      8  C   UNK A   0       6.386   5.209  17.912  0.00  0.00    +0.000 C 
ATOM      9  C   UNK A   0       5.306   6.119  17.308  0.00  0.00    +0.000 C 
ATOM     10  C   UNK A   0       3.890   5.696  17.746  0.00  0.00    +0.000 C 
BRANCH   5  11
ATOM     11  S   UNK A   0       2.199   5.163  19.792  0.00  0.00    +0.000 S 
ATOM     12  O   UNK A   0       1.498   4.454  18.740  0.00  0.00    +0.000 OA
ATOM     13  O   UNK A   0       1.663   6.380  20.360  0.00  0.00    +0.000 OA
BRANCH  11  15
ATOM     14  C   UNK A   0       1.493   2.877  21.109  0.00  0.00    +0.000 C 
ATOM     15  C   UNK A   0       2.526   3.990  21.102  0.00  0.00    +0.000 C 
ENDBRANCH  11  15
ENDBRANCH   5  11
ENDBRANCH   1   9
BRANCH   3  16
ATOM     16  CA  LEU A   1       5.971   4.756  13.783  0.00  0.00    +0.000 C 
BRANCH  16  17
ATOM     17  C   LEU A   1       7.443   4.775  13.307  0.00  0.00    +0.000 C 
BRANCH  17  18
ATOM     18  O   LEU A   1       8.252   5.690  14.042  0.00  0.00    +0.000 OA
ATOM     19  H   LEU A   1       8.329   5.356  14.960  0.00  0.00    +0.000 HD
ENDBRANCH  17  18
ENDBRANCH  16  17
BRANCH  16  20
ATOM     20  CB  LEU A   1       5.286   3.459  13.324  0.00  0.00    +0.000 C 
BRANCH  20  21
ATOM     21  CG  LEU A   1       5.344   3.176  11.806  0.00  0.00    +0.000 C 
ATOM     22  CD1 LEU A   1       5.873   1.779  11.481  0.00  0.00    +0.000 C 
ATOM     23  CD2 LEU A   1       3.945   3.350  11.205  0.00  0.00    +0.000 C 
ENDBRANCH  20  21
ENDBRANCH  16  20
ENDBRANCH   3  16
TORSDOF 8
ENDMDL
MODEL 9
REMARK VINA RESULT:      -6.4      2.727      6.545
REMARK  Name = 
REMARK  11 active torsions:
REMARK  status: ('A' for Active; 'I' for Inactive)
REMARK    1  A    between atoms: C_1  and  C_2
REMARK    2  A    between atoms: C_2  and  S_3
REMARK    3  A    between atoms: S_3  and  N_6
REMARK    4  A    between atoms: C_10  and  C_11
REMARK    5  A    between atoms: N_13  and  CA_14
REMARK    6  A    between atoms: CA_14  and  C_15
REMARK    7  A    between atoms: CA_14  and  CB_17
REMARK    8  A    between atoms: C_15  and  O_16
REMARK    9  A    between atoms: CB_17  and  CG_18
REMARK   10  A    between atoms: CG_18  and  CD1_19
REMARK   11  A    between atoms: CG_18  and  CD2_20
REMARK                            x       y       z     vdW  Elec       q    Type
REMARK                         _______ _______ _______ _____ _____    ______ ____
ROOT
ATOM      1  C   UNK A   0       4.190   6.376  17.424  0.00  0.00    +0.000 C 
ATOM      2  O   UNK A   0       4.477   7.401  16.808  0.00  0.00    +0.000 OA
ATOM      3  N   LEU A   1       5.069   5.314  17.499  0.00  0.00    +0.000 N 
ATOM      4  H   LEU A   1       4.962   4.662  18.266  0.00  0.00    +0.000 HD
ENDROOT
BRANCH   1   9
ATOM      5  N   UNK A   0       1.598   4.485  19.526  0.00  0.00    +0.000 NA
ATOM      6  C   UNK A   0       1.672   5.360  20.726  0.00  0.00    +0.000 C 
ATOM      7  C   UNK A   0       1.613   6.813  20.280  0.00  0.00    +0.000 C 
ATOM      8  C   UNK A   0       2.781   7.149  19.362  0.00  0.00    +0.000 C 
ATOM      9  C   UNK A   0       2.866   6.191  18.165  0.00  0.00    +0.000 C 
ATOM     10  C   UNK A   0       2.759   4.717  18.603  0.00  0.00    +0.000 C 
BRANCH   5  11
ATOM     11  S   UNK A   0       1.343   2.827  19.927  0.00  0.00    +0.000 S 
ATOM     12  O   UNK A   0       0.436   2.269  18.944  0.00  0.00    +0.000 OA
ATOM     13  O   UNK A   0       1.056   2.746  21.341  0.00  0.00    +0.000 OA
BRANCH  11  15
ATOM     14  C   UNK A   0       3.047   1.564  18.206  0.00  0.00    +0.000 C 
ATOM     15  C   UNK A   0       2.964   2.140  19.609  0.00  0.00    +0.000 C 
ENDBRANCH  11  15
ENDBRANCH   5  11
ENDBRANCH   1   9
BRANCH   3  16
ATOM     16  CA  LEU A   1       6.361   5.363  16.813  0.00  0.00    +0.000 C 
BRANCH  16  17
ATOM     17  C   LEU A   1       7.532   5.229  17.815  0.00  0.00    +0.000 C 
BRANCH  17  18
ATOM     18  O   LEU A   1       8.255   4.010  17.664  0.00  0.00    +0.000 OA
ATOM     19  H   LEU A   1       9.208   4.230  17.596  0.00  0.00    +0.000 HD
ENDBRANCH  17  18
ENDBRANCH  16  17
BRANCH  16  20
ATOM     20  CB  LEU A   1       6.464   4.274  15.733  0.00  0.00    +0.000 C 
BRANCH  20  21
ATOM     21  CG  LEU A   1       6.331   4.767  14.275  0.00  0.00    +0.000 C 
ATOM     22  CD1 LEU A   1       7.659   5.239  13.682  0.00  0.00    +0.000 C 
ATOM     23  CD2 LEU A   1       5.753   3.640  13.411  0.00  0.00    +0.000 C 
ENDBRANCH  20  21
ENDBRANCH  16  20
ENDBRANCH   3  16
TORSDOF 8
ENDMDL
