MODEL 1
REMARK VINA RESULT:      -7.6      0.000      0.000
REMARK  Name = 
REMARK  4 active torsions:
REMARK  status: ('A' for Active; 'I' for Inactive)
REMARK    1  A    between atoms: C_1  and  O_2
REMARK    2  A    between atoms: O_2  and  C_3
REMARK    3  A    between atoms: C_3  and  C_5
REMARK    4  A    between atoms: C_8  and  C_10
REMARK                            x       y       z     vdW  Elec       q    Type
REMARK                         _______ _______ _______ _____ _____    ______ ____
ROOT
ATOM      1  C   UNL     1       6.275   6.441  17.924  0.00  0.00    +0.000 A 
ATOM      2  C   UNL     1       4.970   6.728  17.568  0.00  0.00    +0.000 A 
ATOM      3  N   UNL     1       4.159   5.970  18.385  0.00  0.00    +0.000 N 
ATOM      4  C   UNL     1       2.757   5.862  18.337  0.00  0.00    +0.000 C 
ATOM      5  O   UNL     1       2.135   6.782  17.805  0.00  0.00    +0.000 OA
ATOM      6  N   UNL     1       4.874   5.296  19.319  0.00  0.00    +0.000 NA
ATOM      7  C   UNL     1       6.140   5.584  19.041  0.00  0.00    +0.000 A 
ATOM      8  N   UNL     1       7.161   5.099  19.754  0.00  0.00    +0.000 N 
ATOM      9  H   UNL     1       6.988   4.378  20.445  0.00  0.00    +0.000 HD
ATOM     10  H   UNL     1       8.122   5.179  19.432  0.00  0.00    +0.000 HD
ENDROOT
BRANCH   4  11
ATOM     11  C   UNL     1       2.006   4.688  18.835  0.00  0.00    +0.000 A 
ATOM     12  C   UNL     1       1.818   3.572  18.016  0.00  0.00    +0.000 A 
ATOM     13  C   UNL     1       1.205   2.425  18.535  0.00  0.00    +0.000 A 
ATOM     14  C   UNL     1       0.790   2.392  19.868  0.00  0.00    +0.000 A 
ATOM     15  C   UNL     1       0.993   3.500  20.689  0.00  0.00    +0.000 A 
ATOM     16  C   UNL     1       1.609   4.636  20.172  0.00  0.00    +0.000 A 
ATOM     17  F   UNL     1       1.884   5.641  21.016  0.00  0.00    +0.000 F 
ENDBRANCH   4  11
BRANCH   1  18
ATOM     18  C   UNL     1       7.490   6.904  17.287  0.00  0.00    +0.000 C 
ATOM     19  O   UNL     1       7.796   6.615  16.135  0.00  0.00    +0.000 OA
BRANCH  18  21
ATOM     20  C   UNL     1       8.037   9.108  17.864  0.00  0.00    +0.000 C 
ATOM     21  O   UNL     1       8.236   7.713  18.096  0.00  0.00    +0.000 OA
ENDBRANCH  18  21
ENDBRANCH   1  18
TORSDOF 3
ENDMDL
MODEL 2
REMARK VINA RESULT:      -7.5      2.870      3.492
REMARK  Name = 
REMARK  4 active torsions:
REMARK  status: ('A' for Active; 'I' for Inactive)
REMARK    1  A    between atoms: C_1  and  O_2
REMARK    2  A    between atoms: O_2  and  C_3
REMARK    3  A    between atoms: C_3  and  C_5
REMARK    4  A    between atoms: C_8  and  C_10
REMARK                            x       y       z     vdW  Elec       q    Type
REMARK                         _______ _______ _______ _____ _____    ______ ____
ROOT
ATOM      1  C   UNL     1       5.888   4.850  15.544  0.00  0.00    +0.000 A 
ATOM      2  C   UNL     1       4.774   4.041  15.671  0.00  0.00    +0.000 A 
ATOM      3  N   UNL     1       4.180   4.369  16.870  0.00  0.00    +0.000 N 
ATOM      4  C   UNL     1       3.065   3.754  17.470  0.00  0.00    +0.000 C 
ATOM      5  O   UNL     1       2.297   3.133  16.735  0.00  0.00    +0.000 OA
ATOM      6  N   UNL     1       4.792   5.422  17.465  0.00  0.00    +0.000 NA
ATOM      7  C   UNL     1       5.813   5.709  16.665  0.00  0.00    +0.000 A 
ATOM      8  N   UNL     1       6.666   6.705  16.918  0.00  0.00    +0.000 N 
ATOM      9  H   UNL     1       6.629   7.178  17.814  0.00  0.00    +0.000 HD
ATOM     10  H   UNL     1       7.537   6.806  16.403  0.00  0.00    +0.000 HD
ENDROOT
BRANCH   4  11
ATOM     11  C   UNL     1       2.805   3.766  18.926  0.00  0.00    +0.000 A 
ATOM     12  C   UNL     1       1.965   4.734  19.484  0.00  0.00    +0.000 A 
ATOM     13  C   UNL     1       1.635   4.668  20.843  0.00  0.00    +0.000 A 
ATOM     14  C   UNL     1       2.136   3.636  21.638  0.00  0.00    +0.000 A 
ATOM     15  C   UNL     1       2.961   2.661  21.077  0.00  0.00    +0.000 A 
ATOM     16  C   UNL     1       3.281   2.725  19.724  0.00  0.00    +0.000 A 
ATOM     17  F   UNL     1       3.987   1.715  19.197  0.00  0.00    +0.000 F 
ENDBRANCH   4  11
BRANCH   1  18
ATOM     18  C   UNL     1       6.898   4.811  14.507  0.00  0.00    +0.000 C 
ATOM     19  O   UNL     1       7.846   5.589  14.463  0.00  0.00    +0.000 OA
BRANCH  18  21
ATOM     20  C   UNL     1       6.873   4.195  12.247  0.00  0.00    +0.000 C 
ATOM     21  O   UNL     1       6.695   3.803  13.609  0.00  0.00    +0.000 OA
ENDBRANCH  18  21
ENDBRANCH   1  18
TORSDOF 3
ENDMDL
MODEL 3
REMARK VINA RESULT:      -7.5      2.442      3.098
REMARK  Name = 
REMARK  4 active torsions:
REMARK  status: ('A' for Active; 'I' for Inactive)
REMARK    1  A    between atoms: C_1  and  O_2
REMARK    2  A    between atoms: O_2  and  C_3
REMARK    3  A    between atoms: C_3  and  C_5
REMARK    4  A    between atoms: C_8  and  C_10
REMARK                            x       y       z     vdW  Elec       q    Type
REMARK                         _______ _______ _______ _____ _____    ______ ____
ROOT
ATOM      1  C   UNL     1       6.051   4.764  16.120  0.00  0.00    +0.000 A 
ATOM      2  C   UNL     1       4.701   5.043  16.228  0.00  0.00    +0.000 A 
ATOM      3  N   UNL     1       4.346   4.796  17.535  0.00  0.00    +0.000 N 
ATOM      4  C   UNL     1       3.059   4.856  18.099  0.00  0.00    +0.000 C 
ATOM      5  O   UNL     1       2.219   5.548  17.523  0.00  0.00    +0.000 OA
ATOM      6  N   UNL     1       5.422   4.479  18.298  0.00  0.00    +0.000 NA
ATOM      7  C   UNL     1       6.441   4.465  17.446  0.00  0.00    +0.000 A 
ATOM      8  N   UNL     1       7.691   4.189  17.828  0.00  0.00    +0.000 N 
ATOM      9  H   UNL     1       7.863   3.843  18.765  0.00  0.00    +0.000 HD
ATOM     10  H   UNL     1       8.428   4.007  17.150  0.00  0.00    +0.000 HD
ENDROOT
BRANCH   4  11
ATOM     11  C   UNL     1       2.651   4.096  19.302  0.00  0.00    +0.000 A 
ATOM     12  C   UNL     1       2.669   4.704  20.560  0.00  0.00    +0.000 A 
ATOM     13  C   UNL     1       2.175   4.013  21.673  0.00  0.00    +0.000 A 
ATOM     14  C   UNL     1       1.659   2.724  21.527  0.00  0.00    +0.000 A 
ATOM     15  C   UNL     1       1.627   2.124  20.269  0.00  0.00    +0.000 A 
ATOM     16  C   UNL     1       2.112   2.817  19.163  0.00  0.00    +0.000 A 
ATOM     17  F   UNL     1       1.968   2.253  17.955  0.00  0.00    +0.000 F 
ENDBRANCH   4  11
BRANCH   1  18
ATOM     18  C   UNL     1       6.865   4.767  14.923  0.00  0.00    +0.000 C 
ATOM     19  O   UNL     1       7.832   5.505  14.770  0.00  0.00    +0.000 OA
BRANCH  18  21
ATOM     20  C   UNL     1       6.862   4.137  12.666  0.00  0.00    +0.000 C 
ATOM     21  O   UNL     1       6.455   3.844  14.003  0.00  0.00    +0.000 OA
ENDBRANCH  18  21
ENDBRANCH   1  18
TORSDOF 3
ENDMDL
MODEL 4
REMARK VINA RESULT:      -7.5      0.975      1.509
REMARK  Name = 
REMARK  4 active torsions:
REMARK  status: ('A' for Active; 'I' for Inactive)
REMARK    1  A    between atoms: C_1  and  O_2
REMARK    2  A    between atoms: O_2  and  C_3
REMARK    3  A    between atoms: C_3  and  C_5
REMARK    4  A    between atoms: C_8  and  C_10
REMARK                            x       y       z     vdW  Elec       q    Type
REMARK                         _______ _______ _______ _____ _____    ______ ____
ROOT
ATOM      1  C   UNL     1       6.164   6.222  17.476  0.00  0.00    +0.000 A 
ATOM      2  C   UNL     1       4.893   6.750  17.615  0.00  0.00    +0.000 A 
ATOM      3  N   UNL     1       4.181   5.872  18.402  0.00  0.00    +0.000 N 
ATOM      4  C   UNL     1       2.819   5.941  18.747  0.00  0.00    +0.000 C 
ATOM      5  O   UNL     1       2.275   7.045  18.690  0.00  0.00    +0.000 OA
ATOM      6  N   UNL     1       4.962   4.864  18.866  0.00  0.00    +0.000 NA
ATOM      7  C   UNL     1       6.149   5.081  18.311  0.00  0.00    +0.000 A 
ATOM      8  N   UNL     1       7.200   4.286  18.532  0.00  0.00    +0.000 N 
ATOM      9  H   UNL     1       7.069   3.410  19.024  0.00  0.00    +0.000 HD
ATOM     10  H   UNL     1       8.047   4.354  17.972  0.00  0.00    +0.000 HD
ENDROOT
BRANCH   4  11
ATOM     11  C   UNL     1       2.003   4.763  19.114  0.00  0.00    +0.000 A 
ATOM     12  C   UNL     1       1.572   3.869  18.129  0.00  0.00    +0.000 A 
ATOM     13  C   UNL     1       0.898   2.699  18.500  0.00  0.00    +0.000 A 
ATOM     14  C   UNL     1       0.662   2.421  19.847  0.00  0.00    +0.000 A 
ATOM     15  C   UNL     1       1.106   3.305  20.830  0.00  0.00    +0.000 A 
ATOM     16  C   UNL     1       1.783   4.464  20.459  0.00  0.00    +0.000 A 
ATOM     17  F   UNL     1       2.288   5.236  21.432  0.00  0.00    +0.000 F 
ENDBRANCH   4  11
BRANCH   1  18
ATOM     18  C   UNL     1       7.246   6.721  16.655  0.00  0.00    +0.000 C 
ATOM     19  O   UNL     1       7.738   7.836  16.795  0.00  0.00    +0.000 OA
BRANCH  18  21
ATOM     20  C   UNL     1       6.620   5.232  14.958  0.00  0.00    +0.000 C 
ATOM     21  O   UNL     1       7.672   5.809  15.731  0.00  0.00    +0.000 OA
ENDBRANCH  18  21
ENDBRANCH   1  18
TORSDOF 3
ENDMDL
MODEL 5
REMARK VINA RESULT:      -7.5      1.109      1.567
REMARK  Name = 
REMARK  4 active torsions:
REMARK  status: ('A' for Active; 'I' for Inactive)
REMARK    1  A    between atoms: C_1  and  O_2
REMARK    2  A    between atoms: O_2  and  C_3
REMARK    3  A    between atoms: C_3  and  C_5
REMARK    4  A    between atoms: C_8  and  C_10
REMARK                            x       y       z     vdW  Elec       q    Type
REMARK                         _______ _______ _______ _____ _____    ______ ____
ROOT
ATOM      1  C   UNL     1       6.384   6.446  17.982  0.00  0.00    +0.000 A 
ATOM      2  C   UNL     1       5.065   6.670  17.632  0.00  0.00    +0.000 A 
ATOM      3  N   UNL     1       4.295   5.882  18.458  0.00  0.00    +0.000 N 
ATOM      4  C   UNL     1       2.899   5.709  18.419  0.00  0.00    +0.000 C 
ATOM      5  O   UNL     1       2.232   6.595  17.885  0.00  0.00    +0.000 OA
ATOM      6  N   UNL     1       5.045   5.248  19.392  0.00  0.00    +0.000 NA
ATOM      7  C   UNL     1       6.295   5.592  19.105  0.00  0.00    +0.000 A 
ATOM      8  N   UNL     1       7.340   5.159  19.816  0.00  0.00    +0.000 N 
ATOM      9  H   UNL     1       7.205   4.435  20.512  0.00  0.00    +0.000 HD
ATOM     10  H   UNL     1       8.295   5.280  19.487  0.00  0.00    +0.000 HD
ENDROOT
BRANCH   4  11
ATOM     11  C   UNL     1       2.205   4.506  18.929  0.00  0.00    +0.000 A 
ATOM     12  C   UNL     1       1.636   4.509  20.206  0.00  0.00    +0.000 A 
ATOM     13  C   UNL     1       0.885   3.407  20.634  0.00  0.00    +0.000 A 
ATOM     14  C   UNL     1       0.698   2.312  19.788  0.00  0.00    +0.000 A 
ATOM     15  C   UNL     1       1.253   2.317  18.509  0.00  0.00    +0.000 A 
ATOM     16  C   UNL     1       1.992   3.417  18.083  0.00  0.00    +0.000 A 
ATOM     17  F   UNL     1       2.420   3.433  16.813  0.00  0.00    +0.000 F 
ENDBRANCH   4  11
BRANCH   1  18
ATOM     18  C   UNL     1       7.573   6.960  17.334  0.00  0.00    +0.000 C 
ATOM     19  O   UNL     1       7.878   6.689  16.178  0.00  0.00    +0.000 OA
BRANCH  18  21
ATOM     20  C   UNL     1       8.066   9.182  17.891  0.00  0.00    +0.000 C 
ATOM     21  O   UNL     1       8.295   7.794  18.140  0.00  0.00    +0.000 OA
ENDBRANCH  18  21
ENDBRANCH   1  18
TORSDOF 3
ENDMDL
MODEL 6
REMARK VINA RESULT:      -7.3      1.412      2.098
REMARK  Name = 
REMARK  4 active torsions:
REMARK  status: ('A' for Active; 'I' for Inactive)
REMARK    1  A    between atoms: C_1  and  O_2
REMARK    2  A    between atoms: O_2  and  C_3
REMARK    3  A    between atoms: C_3  and  C_5
REMARK    4  A    between atoms: C_8  and  C_10
REMARK                            x       y       z     vdW  Elec       q    Type
REMARK                         _______ _______ _______ _____ _____    ______ ____
ROOT
ATOM      1  C   UNL     1       6.255   6.245  17.617  0.00  0.00    +0.000 A 
ATOM      2  C   UNL     1       5.004   6.741  17.937  0.00  0.00    +0.000 A 
ATOM      3  N   UNL     1       4.389   5.793  18.723  0.00  0.00    +0.000 N 
ATOM      4  C   UNL     1       3.072   5.814  19.219  0.00  0.00    +0.000 C 
ATOM      5  O   UNL     1       2.519   6.911  19.311  0.00  0.00    +0.000 OA
ATOM      6  N   UNL     1       5.222   4.763  19.016  0.00  0.00    +0.000 NA
ATOM      7  C   UNL     1       6.339   5.041  18.354  0.00  0.00    +0.000 A 
ATOM      8  N   UNL     1       7.413   4.247  18.394  0.00  0.00    +0.000 N 
ATOM      9  H   UNL     1       7.342   3.332  18.825  0.00  0.00    +0.000 HD
ATOM     10  H   UNL     1       8.192   4.371  17.752  0.00  0.00    +0.000 HD
ENDROOT
BRANCH   4  11
ATOM     11  C   UNL     1       2.308   4.599  19.577  0.00  0.00    +0.000 A 
ATOM     12  C   UNL     1       2.174   4.220  20.916  0.00  0.00    +0.000 A 
ATOM     13  C   UNL     1       1.356   3.134  21.251  0.00  0.00    +0.000 A 
ATOM     14  C   UNL     1       0.670   2.437  20.255  0.00  0.00    +0.000 A 
ATOM     15  C   UNL     1       0.792   2.826  18.922  0.00  0.00    +0.000 A 
ATOM     16  C   UNL     1       1.600   3.910  18.592  0.00  0.00    +0.000 A 
ATOM     17  F   UNL     1       1.610   4.322  17.316  0.00  0.00    +0.000 F 
ENDBRANCH   4  11
BRANCH   1  18
ATOM     18  C   UNL     1       7.237   6.823  16.725  0.00  0.00    +0.000 C 
ATOM     19  O   UNL     1       7.706   7.946  16.879  0.00  0.00    +0.000 OA
BRANCH  18  21
ATOM     20  C   UNL     1       6.495   5.388  15.028  0.00  0.00    +0.000 C 
ATOM     21  O   UNL     1       7.600   5.975  15.717  0.00  0.00    +0.000 OA
ENDBRANCH  18  21
ENDBRANCH   1  18
TORSDOF 3
ENDMDL
MODEL 7
REMARK VINA RESULT:      -7.2      2.243      2.793
REMARK  Name = 
REMARK  4 active torsions:
REMARK  status: ('A' for Active; 'I' for Inactive)
REMARK    1  A    between atoms: C_1  and  O_2
REMARK    2  A    between atoms: O_2  and  C_3
REMARK    3  A    between atoms: C_3  and  C_5
REMARK    4  A    between atoms: C_8  and  C_10
REMARK                            x       y       z     vdW  Elec       q    Type
REMARK                         _______ _______ _______ _____ _____    ______ ____
ROOT
ATOM      1  C   UNL     1       5.709   5.330  16.674  0.00  0.00    +0.000 A 
ATOM      2  C   UNL     1       5.462   3.984  16.872  0.00  0.00    +0.000 A 
ATOM      3  N   UNL     1       4.298   3.896  17.602  0.00  0.00    +0.000 N 
ATOM      4  C   UNL     1       3.696   2.733  18.117  0.00  0.00    +0.000 C 
ATOM      5  O   UNL     1       3.976   1.663  17.576  0.00  0.00    +0.000 OA
ATOM      6  N   UNL     1       3.727   5.112  17.789  0.00  0.00    +0.000 NA
ATOM      7  C   UNL     1       4.574   5.967  17.228  0.00  0.00    +0.000 A 
ATOM      8  N   UNL     1       4.356   7.285  17.207  0.00  0.00    +0.000 N 
ATOM      9  H   UNL     1       3.595   7.673  17.751  0.00  0.00    +0.000 HD
ATOM     10  H   UNL     1       5.084   7.942  16.938  0.00  0.00    +0.000 HD
ENDROOT
BRANCH   4  11
ATOM     11  C   UNL     1       2.799   2.724  19.293  0.00  0.00    +0.000 A 
ATOM     12  C   UNL     1       3.319   2.521  20.575  0.00  0.00    +0.000 A 
ATOM     13  C   UNL     1       2.480   2.627  21.690  0.00  0.00    +0.000 A 
ATOM     14  C   UNL     1       1.129   2.941  21.526  0.00  0.00    +0.000 A 
ATOM     15  C   UNL     1       0.614   3.158  20.249  0.00  0.00    +0.000 A 
ATOM     16  C   UNL     1       1.453   3.060  19.142  0.00  0.00    +0.000 A 
ATOM     17  F   UNL     1       0.950   3.379  17.941  0.00  0.00    +0.000 F 
ENDBRANCH   4  11
BRANCH   1  18
ATOM     18  C   UNL     1       6.869   5.937  16.056  0.00  0.00    +0.000 C 
ATOM     19  O   UNL     1       7.401   5.493  15.044  0.00  0.00    +0.000 OA
BRANCH  18  21
ATOM     20  C   UNL     1       7.788   6.826  18.020  0.00  0.00    +0.000 C 
ATOM     21  O   UNL     1       7.284   7.066  16.705  0.00  0.00    +0.000 OA
ENDBRANCH  18  21
ENDBRANCH   1  18
TORSDOF 3
ENDMDL
MODEL 8
REMARK VINA RESULT:      -7.2      2.168      2.738
REMARK  Name = 
REMARK  4 active torsions:
REMARK  status: ('A' for Active; 'I' for Inactive)
REMARK    1  A    between atoms: C_1  and  O_2
REMARK    2  A    between atoms: O_2  and  C_3
REMARK    3  A    between atoms: C_3  and  C_5
REMARK    4  A    between atoms: C_8  and  C_10
REMARK                            x       y       z     vdW  Elec       q    Type
REMARK                         _______ _______ _______ _____ _____    ______ ____
ROOT
ATOM      1  C   UNL     1       6.473   5.884  17.680  0.00  0.00    +0.000 A 
ATOM      2  C   UNL     1       6.360   4.900  18.645  0.00  0.00    +0.000 A 
ATOM      3  N   UNL     1       5.096   4.366  18.522  0.00  0.00    +0.000 N 
ATOM      4  C   UNL     1       4.493   3.395  19.342  0.00  0.00    +0.000 C 
ATOM      5  O   UNL     1       5.238   2.657  19.988  0.00  0.00    +0.000 OA
ATOM      6  N   UNL     1       4.433   4.881  17.457  0.00  0.00    +0.000 NA
ATOM      7  C   UNL     1       5.264   5.787  16.954  0.00  0.00    +0.000 A 
ATOM      8  N   UNL     1       4.961   6.519  15.878  0.00  0.00    +0.000 N 
ATOM      9  H   UNL     1       4.019   6.493  15.505  0.00  0.00    +0.000 HD
ATOM     10  H   UNL     1       5.520   7.325  15.607  0.00  0.00    +0.000 HD
ENDROOT
BRANCH   4  11
ATOM     11  C   UNL     1       3.030   3.253  19.509  0.00  0.00    +0.000 A 
ATOM     12  C   UNL     1       2.333   4.105  20.369  0.00  0.00    +0.000 A 
ATOM     13  C   UNL     1       0.936   4.036  20.433  0.00  0.00    +0.000 A 
ATOM     14  C   UNL     1       0.240   3.126  19.636  0.00  0.00    +0.000 A 
ATOM     15  C   UNL     1       0.935   2.287  18.766  0.00  0.00    +0.000 A 
ATOM     16  C   UNL     1       2.323   2.363  18.699  0.00  0.00    +0.000 A 
ATOM     17  F   UNL     1       2.950   1.618  17.776  0.00  0.00    +0.000 F 
ENDBRANCH   4  11
BRANCH   1  18
ATOM     18  C   UNL     1       7.573   6.803  17.476  0.00  0.00    +0.000 C 
ATOM     19  O   UNL     1       7.956   7.158  16.366  0.00  0.00    +0.000 OA
BRANCH  18  21
ATOM     20  C   UNL     1       8.557   8.606  18.604  0.00  0.00    +0.000 C 
ATOM     21  O   UNL     1       8.113   7.249  18.649  0.00  0.00    +0.000 OA
ENDBRANCH  18  21
ENDBRANCH   1  18
TORSDOF 3
ENDMDL
MODEL 9
REMARK VINA RESULT:      -7.2      2.780      3.413
REMARK  Name = 
REMARK  4 active torsions:
REMARK  status: ('A' for Active; 'I' for Inactive)
REMARK    1  A    between atoms: C_1  and  O_2
REMARK    2  A    between atoms: O_2  and  C_3
REMARK    3  A    between atoms: C_3  and  C_5
REMARK    4  A    between atoms: C_8  and  C_10
REMARK                            x       y       z     vdW  Elec       q    Type
REMARK                         _______ _______ _______ _____ _____    ______ ____
ROOT
ATOM      1  C   UNL     1       5.692   4.783  16.017  0.00  0.00    +0.000 A 
ATOM      2  C   UNL     1       5.273   3.513  16.369  0.00  0.00    +0.000 A 
ATOM      3  N   UNL     1       4.211   3.668  17.231  0.00  0.00    +0.000 N 
ATOM      4  C   UNL     1       3.511   2.659  17.919  0.00  0.00    +0.000 C 
ATOM      5  O   UNL     1       3.558   1.520  17.455  0.00  0.00    +0.000 OA
ATOM      6  N   UNL     1       3.856   4.970  17.364  0.00  0.00    +0.000 NA
ATOM      7  C   UNL     1       4.744   5.633  16.632  0.00  0.00    +0.000 A 
ATOM      8  N   UNL     1       4.724   6.964  16.510  0.00  0.00    +0.000 N 
ATOM      9  H   UNL     1       4.104   7.509  17.098  0.00  0.00    +0.000 HD
ATOM     10  H   UNL     1       5.502   7.473  16.099  0.00  0.00    +0.000 HD
ENDROOT
BRANCH   4  11
ATOM     11  C   UNL     1       2.779   2.884  19.185  0.00  0.00    +0.000 A 
ATOM     12  C   UNL     1       1.428   3.243  19.164  0.00  0.00    +0.000 A 
ATOM     13  C   UNL     1       0.717   3.342  20.366  0.00  0.00    +0.000 A 
ATOM     14  C   UNL     1       1.351   3.075  21.581  0.00  0.00    +0.000 A 
ATOM     15  C   UNL     1       2.694   2.701  21.600  0.00  0.00    +0.000 A 
ATOM     16  C   UNL     1       3.396   2.596  20.402  0.00  0.00    +0.000 A 
ATOM     17  F   UNL     1       4.653   2.131  20.450  0.00  0.00    +0.000 F 
ENDBRANCH   4  11
BRANCH   1  18
ATOM     18  C   UNL     1       6.841   5.148  15.217  0.00  0.00    +0.000 C 
ATOM     19  O   UNL     1       7.684   5.961  15.583  0.00  0.00    +0.000 OA
BRANCH  18  21
ATOM     20  C   UNL     1       7.720   5.096  13.045  0.00  0.00    +0.000 C 
ATOM     21  O   UNL     1       6.897   4.471  14.032  0.00  0.00    +0.000 OA
ENDBRANCH  18  21
ENDBRANCH   1  18
TORSDOF 3
ENDMDL
