MODEL 1
REMARK VINA RESULT:      -7.7      0.000      0.000
REMARK  Name = 
REMARK  3 active torsions:
REMARK  status: ('A' for Active; 'I' for Inactive)
REMARK    1  A    between atoms: C_7  and  C_8
REMARK    2  A    between atoms: C_11  and  O_12
REMARK    3  A    between atoms: O_12  and  C_13
REMARK                            x       y       z     vdW  Elec       q    Type
REMARK                         _______ _______ _______ _____ _____    ______ ____
ROOT
ATOM      1  C   UNL     1       4.690   5.842  18.315  0.00  0.00    +0.000 A 
ATOM      2  C   UNL     1       6.027   5.541  18.601  0.00  0.00    +0.000 A 
ATOM      3  C   UNL     1       6.970   5.485  17.569  0.00  0.00    +0.000 A 
ATOM      4  C   UNL     1       6.575   5.710  16.249  0.00  0.00    +0.000 A 
ATOM      5  C   UNL     1       5.254   6.071  15.974  0.00  0.00    +0.000 A 
ATOM      6  C   UNL     1       4.309   6.123  17.000  0.00  0.00    +0.000 A 
ENDROOT
BRANCH   1  13
ATOM      7  O   UNL     1       1.092   2.490  22.057  0.00  0.00    +0.000 OA
ATOM      8  C   UNL     1       1.845   3.082  21.302  0.00  0.00    +0.000 C 
ATOM      9  N   UNL     1       2.704   2.508  20.426  0.00  0.00    +0.000 N 
ATOM     10  C   UNL     1       3.463   3.321  19.633  0.00  0.00    +0.000 C 
ATOM     11  O   UNL     1       4.256   2.905  18.806  0.00  0.00    +0.000 OA
ATOM     12  C   UNL     1       3.160   4.746  19.941  0.00  0.00    +0.000 C 
ATOM     13  C   UNL     1       3.686   5.841  19.377  0.00  0.00    +0.000 C 
ATOM     14  S   UNL     1       1.964   4.825  21.194  0.00  0.00    +0.000 S 
ATOM     15  H   UNL     1       2.772   1.508  20.348  0.00  0.00    +0.000 HD
ENDBRANCH   1  13
BRANCH   4  16
ATOM     16  O   UNL     1       7.555   5.624  15.285  0.00  0.00    +0.000 OA
BRANCH  16  17
ATOM     17  C   UNL     1       7.235   4.995  14.091  0.00  0.00    +0.000 A 
ATOM     18  C   UNL     1       6.309   3.963  14.136  0.00  0.00    +0.000 A 
ATOM     19  N   UNL     1       5.951   3.253  13.034  0.00  0.00    +0.000 NA
ATOM     20  C   UNL     1       6.556   3.634  11.886  0.00  0.00    +0.000 A 
ATOM     21  C   UNL     1       7.458   4.684  11.834  0.00  0.00    +0.000 A 
ATOM     22  N   UNL     1       7.807   5.394  12.928  0.00  0.00    +0.000 NA
ENDBRANCH  16  17
ENDBRANCH   4  16
TORSDOF 3
ENDMDL
MODEL 2
REMARK VINA RESULT:      -7.6      0.210      1.069
REMARK  Name = 
REMARK  3 active torsions:
REMARK  status: ('A' for Active; 'I' for Inactive)
REMARK    1  A    between atoms: C_7  and  C_8
REMARK    2  A    between atoms: C_11  and  O_12
REMARK    3  A    between atoms: O_12  and  C_13
REMARK                            x       y       z     vdW  Elec       q    Type
REMARK                         _______ _______ _______ _____ _____    ______ ____
ROOT
ATOM      1  C   UNL     1       4.846   5.635  18.403  0.00  0.00    +0.000 A 
ATOM      2  C   UNL     1       4.474   6.103  17.137  0.00  0.00    +0.000 A 
ATOM      3  C   UNL     1       5.410   6.135  16.098  0.00  0.00    +0.000 A 
ATOM      4  C   UNL     1       6.722   5.720  16.327  0.00  0.00    +0.000 A 
ATOM      5  C   UNL     1       7.075   5.196  17.573  0.00  0.00    +0.000 A 
ATOM      6  C   UNL     1       6.145   5.167  18.614  0.00  0.00    +0.000 A 
ENDROOT
BRANCH   1  13
ATOM      7  O   UNL     1       1.121   2.393  22.117  0.00  0.00    +0.000 OA
ATOM      8  C   UNL     1       1.892   2.961  21.361  0.00  0.00    +0.000 C 
ATOM      9  N   UNL     1       2.655   2.368  20.412  0.00  0.00    +0.000 N 
ATOM     10  C   UNL     1       3.451   3.157  19.632  0.00  0.00    +0.000 C 
ATOM     11  O   UNL     1       4.166   2.724  18.745  0.00  0.00    +0.000 OA
ATOM     12  C   UNL     1       3.294   4.582  20.036  0.00  0.00    +0.000 C 
ATOM     13  C   UNL     1       3.894   5.658  19.511  0.00  0.00    +0.000 C 
ATOM     14  S   UNL     1       2.165   4.689  21.349  0.00  0.00    +0.000 S 
ATOM     15  H   UNL     1       2.628   1.372  20.275  0.00  0.00    +0.000 HD
ENDBRANCH   1  13
BRANCH   4  16
ATOM     16  O   UNL     1       7.592   5.793  15.261  0.00  0.00    +0.000 OA
BRANCH  16  17
ATOM     17  C   UNL     1       7.267   5.087  14.111  0.00  0.00    +0.000 A 
ATOM     18  C   UNL     1       6.404   4.009  14.241  0.00  0.00    +0.000 A 
ATOM     19  N   UNL     1       6.050   3.226  13.189  0.00  0.00    +0.000 NA
ATOM     20  C   UNL     1       6.592   3.581  12.002  0.00  0.00    +0.000 A 
ATOM     21  C   UNL     1       7.430   4.676  11.866  0.00  0.00    +0.000 A 
ATOM     22  N   UNL     1       7.774   5.459  12.910  0.00  0.00    +0.000 NA
ENDBRANCH  16  17
ENDBRANCH   4  16
TORSDOF 3
ENDMDL
MODEL 3
REMARK VINA RESULT:      -7.5      0.675      1.097
REMARK  Name = 
REMARK  3 active torsions:
REMARK  status: ('A' for Active; 'I' for Inactive)
REMARK    1  A    between atoms: C_7  and  C_8
REMARK    2  A    between atoms: C_11  and  O_12
REMARK    3  A    between atoms: O_12  and  C_13
REMARK                            x       y       z     vdW  Elec       q    Type
REMARK                         _______ _______ _______ _____ _____    ______ ____
ROOT
ATOM      1  C   UNL     1       4.938   5.719  18.444  0.00  0.00    +0.000 A 
ATOM      2  C   UNL     1       6.221   5.166  18.542  0.00  0.00    +0.000 A 
ATOM      3  C   UNL     1       7.075   5.175  17.434  0.00  0.00    +0.000 A 
ATOM      4  C   UNL     1       6.642   5.718  16.223  0.00  0.00    +0.000 A 
ATOM      5  C   UNL     1       5.386   6.324  16.146  0.00  0.00    +0.000 A 
ATOM      6  C   UNL     1       4.529   6.313  17.247  0.00  0.00    +0.000 A 
ENDROOT
BRANCH   1  13
ATOM      7  O   UNL     1       0.921   2.328  21.693  0.00  0.00    +0.000 OA
ATOM      8  C   UNL     1       1.740   2.927  21.016  0.00  0.00    +0.000 C 
ATOM      9  N   UNL     1       2.409   2.425  19.950  0.00  0.00    +0.000 N 
ATOM     10  C   UNL     1       3.278   3.242  19.285  0.00  0.00    +0.000 C 
ATOM     11  O   UNL     1       3.920   2.890  18.310  0.00  0.00    +0.000 OA
ATOM     12  C   UNL     1       3.301   4.582  19.933  0.00  0.00    +0.000 C 
ATOM     13  C   UNL     1       4.016   5.657  19.576  0.00  0.00    +0.000 C 
ATOM     14  S   UNL     1       2.219   4.588  21.288  0.00  0.00    +0.000 S 
ATOM     15  H   UNL     1       2.259   1.478  19.645  0.00  0.00    +0.000 HD
ENDBRANCH   1  13
BRANCH   4  16
ATOM     16  O   UNL     1       7.533   5.679  15.173  0.00  0.00    +0.000 OA
BRANCH  16  17
ATOM     17  C   UNL     1       7.198   4.909  14.069  0.00  0.00    +0.000 A 
ATOM     18  C   UNL     1       7.812   5.212  12.863  0.00  0.00    +0.000 A 
ATOM     19  N   UNL     1       7.530   4.548  11.711  0.00  0.00    +0.000 NA
ATOM     20  C   UNL     1       6.612   3.560  11.829  0.00  0.00    +0.000 A 
ATOM     21  C   UNL     1       6.021   3.237  13.040  0.00  0.00    +0.000 A 
ATOM     22  N   UNL     1       6.308   3.891  14.185  0.00  0.00    +0.000 NA
ENDBRANCH  16  17
ENDBRANCH   4  16
TORSDOF 3
ENDMDL
MODEL 4
REMARK VINA RESULT:      -7.4      0.692      1.522
REMARK  Name = 
REMARK  3 active torsions:
REMARK  status: ('A' for Active; 'I' for Inactive)
REMARK    1  A    between atoms: C_7  and  C_8
REMARK    2  A    between atoms: C_11  and  O_12
REMARK    3  A    between atoms: O_12  and  C_13
REMARK                            x       y       z     vdW  Elec       q    Type
REMARK                         _______ _______ _______ _____ _____    ______ ____
ROOT
ATOM      1  C   UNL     1       4.963   5.509  18.378  0.00  0.00    +0.000 A 
ATOM      2  C   UNL     1       4.557   6.047  17.152  0.00  0.00    +0.000 A 
ATOM      3  C   UNL     1       5.447   6.087  16.074  0.00  0.00    +0.000 A 
ATOM      4  C   UNL     1       6.749   5.606  16.225  0.00  0.00    +0.000 A 
ATOM      5  C   UNL     1       7.132   5.014  17.431  0.00  0.00    +0.000 A 
ATOM      6  C   UNL     1       6.248   4.977  18.510  0.00  0.00    +0.000 A 
ENDROOT
BRANCH   1  13
ATOM      7  O   UNL     1       0.867   2.398  21.804  0.00  0.00    +0.000 OA
ATOM      8  C   UNL     1       1.698   2.939  21.093  0.00  0.00    +0.000 C 
ATOM      9  N   UNL     1       2.323   2.376  20.032  0.00  0.00    +0.000 N 
ATOM     10  C   UNL     1       3.214   3.133  19.327  0.00  0.00    +0.000 C 
ATOM     11  O   UNL     1       3.821   2.725  18.351  0.00  0.00    +0.000 OA
ATOM     12  C   UNL     1       3.308   4.491  19.931  0.00  0.00    +0.000 C 
ATOM     13  C   UNL     1       4.061   5.522  19.528  0.00  0.00    +0.000 C 
ATOM     14  S   UNL     1       2.253   4.585  21.305  0.00  0.00    +0.000 S 
ATOM     15  H   UNL     1       2.128   1.428  19.760  0.00  0.00    +0.000 HD
ENDBRANCH   1  13
BRANCH   4  16
ATOM     16  O   UNL     1       7.573   5.690  15.125  0.00  0.00    +0.000 OA
BRANCH  16  17
ATOM     17  C   UNL     1       7.245   4.931  14.011  0.00  0.00    +0.000 A 
ATOM     18  C   UNL     1       7.842   5.267  12.805  0.00  0.00    +0.000 A 
ATOM     19  N   UNL     1       7.564   4.616  11.645  0.00  0.00    +0.000 NA
ATOM     20  C   UNL     1       6.669   3.608  11.754  0.00  0.00    +0.000 A 
ATOM     21  C   UNL     1       6.095   3.252  12.964  0.00  0.00    +0.000 A 
ATOM     22  N   UNL     1       6.378   3.893  14.117  0.00  0.00    +0.000 NA
ENDBRANCH  16  17
ENDBRANCH   4  16
TORSDOF 3
ENDMDL
MODEL 5
REMARK VINA RESULT:      -7.3      3.869      4.719
REMARK  Name = 
REMARK  3 active torsions:
REMARK  status: ('A' for Active; 'I' for Inactive)
REMARK    1  A    between atoms: C_7  and  C_8
REMARK    2  A    between atoms: C_11  and  O_12
REMARK    3  A    between atoms: O_12  and  C_13
REMARK                            x       y       z     vdW  Elec       q    Type
REMARK                         _______ _______ _______ _____ _____    ______ ____
ROOT
ATOM      1  C   UNL     1       2.806   6.186  19.130  0.00  0.00    +0.000 A 
ATOM      2  C   UNL     1       2.211   5.330  18.196  0.00  0.00    +0.000 A 
ATOM      3  C   UNL     1       2.991   4.406  17.494  0.00  0.00    +0.000 A 
ATOM      4  C   UNL     1       4.369   4.348  17.710  0.00  0.00    +0.000 A 
ATOM      5  C   UNL     1       4.951   5.160  18.687  0.00  0.00    +0.000 A 
ATOM      6  C   UNL     1       4.177   6.087  19.386  0.00  0.00    +0.000 A 
ENDROOT
BRANCH   1  13
ATOM      7  O   UNL     1       0.366  11.862  18.994  0.00  0.00    +0.000 OA
ATOM      8  C   UNL     1       0.861  10.748  18.938  0.00  0.00    +0.000 C 
ATOM      9  N   UNL     1       1.571  10.246  17.900  0.00  0.00    +0.000 N 
ATOM     10  C   UNL     1       2.078   8.982  18.012  0.00  0.00    +0.000 C 
ATOM     11  O   UNL     1       2.738   8.443  17.141  0.00  0.00    +0.000 OA
ATOM     12  C   UNL     1       1.701   8.405  19.332  0.00  0.00    +0.000 C 
ATOM     13  C   UNL     1       2.010   7.198  19.822  0.00  0.00    +0.000 C 
ATOM     14  S   UNL     1       0.755   9.559  20.217  0.00  0.00    +0.000 S 
ATOM     15  H   UNL     1       1.735  10.792  17.073  0.00  0.00    +0.000 HD
ENDBRANCH   1  13
BRANCH   4  16
ATOM     16  O   UNL     1       5.075   3.423  16.974  0.00  0.00    +0.000 OA
BRANCH  16  17
ATOM     17  C   UNL     1       5.815   3.883  15.894  0.00  0.00    +0.000 A 
ATOM     18  C   UNL     1       6.869   4.745  16.158  0.00  0.00    +0.000 A 
ATOM     19  N   UNL     1       7.635   5.287  15.175  0.00  0.00    +0.000 NA
ATOM     20  C   UNL     1       7.300   4.915  13.918  0.00  0.00    +0.000 A 
ATOM     21  C   UNL     1       6.267   4.030  13.655  0.00  0.00    +0.000 A 
ATOM     22  N   UNL     1       5.512   3.486  14.633  0.00  0.00    +0.000 NA
ENDBRANCH  16  17
ENDBRANCH   4  16
TORSDOF 3
ENDMDL
MODEL 6
REMARK VINA RESULT:      -7.2      5.490      7.648
REMARK  Name = 
REMARK  3 active torsions:
REMARK  status: ('A' for Active; 'I' for Inactive)
REMARK    1  A    between atoms: C_7  and  C_8
REMARK    2  A    between atoms: C_11  and  O_12
REMARK    3  A    between atoms: O_12  and  C_13
REMARK                            x       y       z     vdW  Elec       q    Type
REMARK                         _______ _______ _______ _____ _____    ______ ____
ROOT
ATOM      1  C   UNL     1       2.641   7.284  19.191  0.00  0.00    +0.000 A 
ATOM      2  C   UNL     1       1.764   7.753  20.176  0.00  0.00    +0.000 A 
ATOM      3  C   UNL     1       1.036   8.929  19.965  0.00  0.00    +0.000 A 
ATOM      4  C   UNL     1       1.197   9.646  18.778  0.00  0.00    +0.000 A 
ATOM      5  C   UNL     1       2.026   9.143  17.772  0.00  0.00    +0.000 A 
ATOM      6  C   UNL     1       2.757   7.973  17.982  0.00  0.00    +0.000 A 
ENDROOT
BRANCH   1  13
ATOM      7  O   UNL     1       3.427   1.241  18.160  0.00  0.00    +0.000 OA
ATOM      8  C   UNL     1       3.216   2.435  18.301  0.00  0.00    +0.000 C 
ATOM      9  N   UNL     1       2.190   3.130  17.755  0.00  0.00    +0.000 N 
ATOM     10  C   UNL     1       2.088   4.463  18.034  0.00  0.00    +0.000 C 
ATOM     11  O   UNL     1       1.197   5.175  17.602  0.00  0.00    +0.000 OA
ATOM     12  C   UNL     1       3.206   4.876  18.926  0.00  0.00    +0.000 C 
ATOM     13  C   UNL     1       3.453   6.092  19.429  0.00  0.00    +0.000 C 
ATOM     14  S   UNL     1       4.214   3.504  19.261  0.00  0.00    +0.000 S 
ATOM     15  H   UNL     1       1.511   2.675  17.169  0.00  0.00    +0.000 HD
ENDBRANCH   1  13
BRANCH   4  16
ATOM     16  O   UNL     1       0.458  10.801  18.646  0.00  0.00    +0.000 OA
BRANCH  16  17
ATOM     17  C   UNL     1      -0.875  10.678  18.281  0.00  0.00    +0.000 A 
ATOM     18  C   UNL     1      -1.791  11.514  18.901  0.00  0.00    +0.000 A 
ATOM     19  N   UNL     1      -3.125  11.452  18.649  0.00  0.00    +0.000 NA
ATOM     20  C   UNL     1      -3.493  10.522  17.738  0.00  0.00    +0.000 A 
ATOM     21  C   UNL     1      -2.575   9.708  17.095  0.00  0.00    +0.000 A 
ATOM     22  N   UNL     1      -1.250   9.775  17.340  0.00  0.00    +0.000 NA
ENDBRANCH  16  17
ENDBRANCH   4  16
TORSDOF 3
ENDMDL
MODEL 7
REMARK VINA RESULT:      -7.2      1.136      1.238
REMARK  Name = 
REMARK  3 active torsions:
REMARK  status: ('A' for Active; 'I' for Inactive)
REMARK    1  A    between atoms: C_7  and  C_8
REMARK    2  A    between atoms: C_11  and  O_12
REMARK    3  A    between atoms: O_12  and  C_13
REMARK                            x       y       z     vdW  Elec       q    Type
REMARK                         _______ _______ _______ _____ _____    ______ ____
ROOT
ATOM      1  C   UNL     1       3.842   4.826  17.719  0.00  0.00    +0.000 A 
ATOM      2  C   UNL     1       4.671   5.953  17.770  0.00  0.00    +0.000 A 
ATOM      3  C   UNL     1       5.856   5.986  17.029  0.00  0.00    +0.000 A 
ATOM      4  C   UNL     1       6.224   4.887  16.251  0.00  0.00    +0.000 A 
ATOM      5  C   UNL     1       5.365   3.790  16.152  0.00  0.00    +0.000 A 
ATOM      6  C   UNL     1       4.184   3.751  16.894  0.00  0.00    +0.000 A 
ENDROOT
BRANCH   1  13
ATOM      7  O   UNL     1       1.036   2.342  22.633  0.00  0.00    +0.000 OA
ATOM      8  C   UNL     1       1.662   2.804  21.693  0.00  0.00    +0.000 C 
ATOM      9  N   UNL     1       2.941   2.500  21.365  0.00  0.00    +0.000 N 
ATOM     10  C   UNL     1       3.487   3.092  20.262  0.00  0.00    +0.000 C 
ATOM     11  O   UNL     1       4.623   2.879  19.876  0.00  0.00    +0.000 OA
ATOM     12  C   UNL     1       2.488   4.003  19.636  0.00  0.00    +0.000 C 
ATOM     13  C   UNL     1       2.634   4.756  18.539  0.00  0.00    +0.000 C 
ATOM     14  S   UNL     1       1.018   3.967  20.556  0.00  0.00    +0.000 S 
ATOM     15  H   UNL     1       3.473   1.844  21.911  0.00  0.00    +0.000 HD
ENDBRANCH   1  13
BRANCH   4  16
ATOM     16  O   UNL     1       7.411   4.986  15.558  0.00  0.00    +0.000 OA
BRANCH  16  17
ATOM     17  C   UNL     1       7.366   4.870  14.177  0.00  0.00    +0.000 A 
ATOM     18  C   UNL     1       6.556   3.880  13.640  0.00  0.00    +0.000 A 
ATOM     19  N   UNL     1       6.467   3.653  12.304  0.00  0.00    +0.000 NA
ATOM     20  C   UNL     1       7.219   4.472  11.532  0.00  0.00    +0.000 A 
ATOM     21  C   UNL     1       8.004   5.480  12.065  0.00  0.00    +0.000 A 
ATOM     22  N   UNL     1       8.086   5.711  13.392  0.00  0.00    +0.000 NA
ENDBRANCH  16  17
ENDBRANCH   4  16
TORSDOF 3
ENDMDL
MODEL 8
REMARK VINA RESULT:      -7.1      5.354      7.593
REMARK  Name = 
REMARK  3 active torsions:
REMARK  status: ('A' for Active; 'I' for Inactive)
REMARK    1  A    between atoms: C_7  and  C_8
REMARK    2  A    between atoms: C_11  and  O_12
REMARK    3  A    between atoms: O_12  and  C_13
REMARK                            x       y       z     vdW  Elec       q    Type
REMARK                         _______ _______ _______ _____ _____    ______ ____
ROOT
ATOM      1  C   UNL     1       2.890   6.944  19.189  0.00  0.00    +0.000 A 
ATOM      2  C   UNL     1       2.014   7.368  20.195  0.00  0.00    +0.000 A 
ATOM      3  C   UNL     1       1.252   8.527  20.020  0.00  0.00    +0.000 A 
ATOM      4  C   UNL     1       1.377   9.274  18.847  0.00  0.00    +0.000 A 
ATOM      5  C   UNL     1       2.205   8.815  17.819  0.00  0.00    +0.000 A 
ATOM      6  C   UNL     1       2.971   7.662  17.993  0.00  0.00    +0.000 A 
ENDROOT
BRANCH   1  13
ATOM      7  O   UNL     1       3.688   0.889  18.246  0.00  0.00    +0.000 OA
ATOM      8  C   UNL     1       3.470   2.082  18.374  0.00  0.00    +0.000 C 
ATOM      9  N   UNL     1       2.393   2.749  17.895  0.00  0.00    +0.000 N 
ATOM     10  C   UNL     1       2.291   4.087  18.149  0.00  0.00    +0.000 C 
ATOM     11  O   UNL     1       1.358   4.775  17.773  0.00  0.00    +0.000 OA
ATOM     12  C   UNL     1       3.471   4.538  18.938  0.00  0.00    +0.000 C 
ATOM     13  C   UNL     1       3.737   5.770  19.390  0.00  0.00    +0.000 C 
ATOM     14  S   UNL     1       4.524   3.190  19.224  0.00  0.00    +0.000 S 
ATOM     15  H   UNL     1       1.677   2.270  17.377  0.00  0.00    +0.000 HD
ENDBRANCH   1  13
BRANCH   4  16
ATOM     16  O   UNL     1       0.605  10.411  18.750  0.00  0.00    +0.000 OA
BRANCH  16  17
ATOM     17  C   UNL     1       1.094  11.576  19.321  0.00  0.00    +0.000 A 
ATOM     18  C   UNL     1       0.683  11.882  20.610  0.00  0.00    +0.000 A 
ATOM     19  N   UNL     1       1.069  13.017  21.251  0.00  0.00    +0.000 NA
ATOM     20  C   UNL     1       1.894  13.822  20.543  0.00  0.00    +0.000 A 
ATOM     21  C   UNL     1       2.330  13.502  19.267  0.00  0.00    +0.000 A 
ATOM     22  N   UNL     1       1.953  12.371  18.635  0.00  0.00    +0.000 NA
ENDBRANCH  16  17
ENDBRANCH   4  16
TORSDOF 3
ENDMDL
MODEL 9
REMARK VINA RESULT:      -7.0      1.092      1.196
REMARK  Name = 
REMARK  3 active torsions:
REMARK  status: ('A' for Active; 'I' for Inactive)
REMARK    1  A    between atoms: C_7  and  C_8
REMARK    2  A    between atoms: C_11  and  O_12
REMARK    3  A    between atoms: O_12  and  C_13
REMARK                            x       y       z     vdW  Elec       q    Type
REMARK                         _______ _______ _______ _____ _____    ______ ____
ROOT
ATOM      1  C   UNL     1       3.964   4.876  17.740  0.00  0.00    +0.000 A 
ATOM      2  C   UNL     1       4.529   3.788  17.065  0.00  0.00    +0.000 A 
ATOM      3  C   UNL     1       5.703   3.956  16.322  0.00  0.00    +0.000 A 
ATOM      4  C   UNL     1       6.302   5.214  16.238  0.00  0.00    +0.000 A 
ATOM      5  C   UNL     1       5.771   6.284  16.963  0.00  0.00    +0.000 A 
ATOM      6  C   UNL     1       4.597   6.121  17.701  0.00  0.00    +0.000 A 
ENDROOT
BRANCH   1  13
ATOM      7  O   UNL     1       0.982   2.275  22.486  0.00  0.00    +0.000 OA
ATOM      8  C   UNL     1       1.642   2.766  21.586  0.00  0.00    +0.000 C 
ATOM      9  N   UNL     1       2.963   2.561  21.368  0.00  0.00    +0.000 N 
ATOM     10  C   UNL     1       3.546   3.173  20.294  0.00  0.00    +0.000 C 
ATOM     11  O   UNL     1       4.723   3.045  20.005  0.00  0.00    +0.000 OA
ATOM     12  C   UNL     1       2.531   3.986  19.568  0.00  0.00    +0.000 C 
ATOM     13  C   UNL     1       2.704   4.725  18.466  0.00  0.00    +0.000 C 
ATOM     14  S   UNL     1       1.000   3.849  20.371  0.00  0.00    +0.000 S 
ATOM     15  H   UNL     1       3.500   1.962  21.971  0.00  0.00    +0.000 HD
ENDBRANCH   1  13
BRANCH   4  16
ATOM     16  O   UNL     1       7.447   5.307  15.478  0.00  0.00    +0.000 OA
BRANCH  16  17
ATOM     17  C   UNL     1       7.353   5.008  14.126  0.00  0.00    +0.000 A 
ATOM     18  C   UNL     1       6.496   3.983  13.752  0.00  0.00    +0.000 A 
ATOM     19  N   UNL     1       6.356   3.582  12.462  0.00  0.00    +0.000 NA
ATOM     20  C   UNL     1       7.106   4.264  11.565  0.00  0.00    +0.000 A 
ATOM     21  C   UNL     1       7.938   5.308  11.934  0.00  0.00    +0.000 A 
ATOM     22  N   UNL     1       8.070   5.711  13.215  0.00  0.00    +0.000 NA
ENDBRANCH  16  17
ENDBRANCH   4  16
TORSDOF 3
ENDMDL
