MODEL 1
REMARK VINA RESULT:      -7.4      0.000      0.000
REMARK  Name = 
REMARK  5 active torsions:
REMARK  status: ('A' for Active; 'I' for Inactive)
REMARK    1  A    between atoms: C_1  and  O_2
REMARK    2  A    between atoms: O_2  and  C_3
REMARK    3  A    between atoms: C_8  and  C_9
REMARK    4  A    between atoms: C_9  and  N_10
REMARK    5  A    between atoms: C_11  and  C_13
REMARK                            x       y       z     vdW  Elec       q    Type
REMARK                         _______ _______ _______ _____ _____    ______ ____
ROOT
ATOM      1  N   UNL     1       4.759   5.485  18.375  0.00  0.00    +0.000 N 
ATOM      2  C   UNL     1       5.998   5.016  18.016  0.00  0.00    +0.000 C 
ATOM      3  O   UNL     1       6.832   4.668  18.849  0.00  0.00    +0.000 OA
ATOM      4  H   UNL     1       4.073   5.683  17.649  0.00  0.00    +0.000 HD
ENDROOT
BRANCH   2   5
ATOM      5  C   UNL     1       6.289   4.922  16.554  0.00  0.00    +0.000 A 
ATOM      6  C   UNL     1       7.371   5.567  16.095  0.00  0.00    +0.000 A 
ATOM      7  N   UNL     1       7.824   5.561  14.805  0.00  0.00    +0.000 NA
ATOM      8  C   UNL     1       7.152   4.863  13.944  0.00  0.00    +0.000 A 
ATOM      9  C   UNL     1       7.637   4.807  12.537  0.00  0.00    +0.000 A 
ATOM     10  C   UNL     1       6.965   4.085  11.629  0.00  0.00    +0.000 A 
ATOM     11  C   UNL     1       5.772   3.377  12.005  0.00  0.00    +0.000 A 
ATOM     12  C   UNL     1       5.330   3.428  13.269  0.00  0.00    +0.000 A 
ATOM     13  N   UNL     1       5.999   4.149  14.255  0.00  0.00    +0.000 N 
ATOM     14  C   UNL     1       5.504   4.150  15.561  0.00  0.00    +0.000 A 
ATOM     15  O   UNL     1       4.488   3.548  15.916  0.00  0.00    +0.000 OA
ENDBRANCH   2   5
BRANCH   1  16
ATOM     16  C   UNL     1       4.299   5.423  19.752  0.00  0.00    +0.000 C 
BRANCH  16  22
ATOM     17  C   UNL     1       3.115   3.152  19.804  0.00  0.00    +0.000 A 
ATOM     18  C   UNL     1       1.964   2.400  20.076  0.00  0.00    +0.000 A 
ATOM     19  C   UNL     1       0.763   3.029  20.403  0.00  0.00    +0.000 A 
ATOM     20  C   UNL     1       0.707   4.414  20.487  0.00  0.00    +0.000 A 
ATOM     21  C   UNL     1       1.857   5.170  20.258  0.00  0.00    +0.000 A 
ATOM     22  C   UNL     1       3.076   4.554  19.918  0.00  0.00    +0.000 A 
BRANCH  17  24
ATOM     23  C   UNL     1       4.876   1.742  20.482  0.00  0.00    +0.000 C 
ATOM     24  O   UNL     1       4.313   2.572  19.468  0.00  0.00    +0.000 OA
ENDBRANCH  17  24
ENDBRANCH  16  22
ENDBRANCH   1  16
TORSDOF 4
ENDMDL
MODEL 2
REMARK VINA RESULT:      -7.2      5.166      8.598
REMARK  Name = 
REMARK  5 active torsions:
REMARK  status: ('A' for Active; 'I' for Inactive)
REMARK    1  A    between atoms: C_1  and  O_2
REMARK    2  A    between atoms: O_2  and  C_3
REMARK    3  A    between atoms: C_8  and  C_9
REMARK    4  A    between atoms: C_9  and  N_10
REMARK    5  A    between atoms: C_11  and  C_13
REMARK                            x       y       z     vdW  Elec       q    Type
REMARK                         _______ _______ _______ _____ _____    ______ ____
ROOT
ATOM      1  N   UNL     1       2.206   7.474  19.265  0.00  0.00    +0.000 N 
ATOM      2  C   UNL     1       1.861   8.624  18.602  0.00  0.00    +0.000 C 
ATOM      3  O   UNL     1       2.265   8.872  17.467  0.00  0.00    +0.000 OA
ATOM      4  H   UNL     1       1.782   7.274  20.169  0.00  0.00    +0.000 HD
ENDROOT
BRANCH   2   5
ATOM      5  C   UNL     1       0.945   9.566  19.312  0.00  0.00    +0.000 A 
ATOM      6  C   UNL     1       0.244  10.430  18.563  0.00  0.00    +0.000 A 
ATOM      7  N   UNL     1      -0.675  11.333  19.024  0.00  0.00    +0.000 NA
ATOM      8  C   UNL     1      -0.895  11.354  20.301  0.00  0.00    +0.000 A 
ATOM      9  C   UNL     1      -1.914  12.301  20.833  0.00  0.00    +0.000 A 
ATOM     10  C   UNL     1      -2.168  12.336  22.149  0.00  0.00    +0.000 A 
ATOM     11  C   UNL     1      -1.451  11.474  23.049  0.00  0.00    +0.000 A 
ATOM     12  C   UNL     1      -0.531  10.623  22.575  0.00  0.00    +0.000 A 
ATOM     13  N   UNL     1      -0.241  10.535  21.215  0.00  0.00    +0.000 N 
ATOM     14  C   UNL     1       0.714   9.614  20.775  0.00  0.00    +0.000 A 
ATOM     15  O   UNL     1       1.340   8.857  21.520  0.00  0.00    +0.000 OA
ENDBRANCH   2   5
BRANCH   1  16
ATOM     16  C   UNL     1       2.919   6.401  18.592  0.00  0.00    +0.000 C 
BRANCH  16  22
ATOM     17  C   UNL     1       2.560   3.918  18.073  0.00  0.00    +0.000 A 
ATOM     18  C   UNL     1       2.082   2.662  18.470  0.00  0.00    +0.000 A 
ATOM     19  C   UNL     1       1.343   2.519  19.644  0.00  0.00    +0.000 A 
ATOM     20  C   UNL     1       1.095   3.626  20.445  0.00  0.00    +0.000 A 
ATOM     21  C   UNL     1       1.600   4.874  20.080  0.00  0.00    +0.000 A 
ATOM     22  C   UNL     1       2.341   5.039  18.895  0.00  0.00    +0.000 A 
BRANCH  17  24
ATOM     23  C   UNL     1       4.645   3.689  17.000  0.00  0.00    +0.000 C 
ATOM     24  O   UNL     1       3.282   4.103  16.920  0.00  0.00    +0.000 OA
ENDBRANCH  17  24
ENDBRANCH  16  22
ENDBRANCH   1  16
TORSDOF 4
ENDMDL
MODEL 3
REMARK VINA RESULT:      -7.2      4.858      8.377
REMARK  Name = 
REMARK  5 active torsions:
REMARK  status: ('A' for Active; 'I' for Inactive)
REMARK    1  A    between atoms: C_1  and  O_2
REMARK    2  A    between atoms: O_2  and  C_3
REMARK    3  A    between atoms: C_8  and  C_9
REMARK    4  A    between atoms: C_9  and  N_10
REMARK    5  A    between atoms: C_11  and  C_13
REMARK                            x       y       z     vdW  Elec       q    Type
REMARK                         _______ _______ _______ _____ _____    ______ ____
ROOT
ATOM      1  N   UNL     1       2.225   7.215  18.585  0.00  0.00    +0.000 N 
ATOM      2  C   UNL     1       2.034   8.528  18.234  0.00  0.00    +0.000 C 
ATOM      3  O   UNL     1       2.494   9.002  17.198  0.00  0.00    +0.000 OA
ATOM      4  H   UNL     1       1.756   6.848  19.410  0.00  0.00    +0.000 HD
ENDROOT
BRANCH   2   5
ATOM      5  C   UNL     1       1.215   9.365  19.162  0.00  0.00    +0.000 A 
ATOM      6  C   UNL     1       0.647  10.470  18.661  0.00  0.00    +0.000 A 
ATOM      7  N   UNL     1      -0.171  11.333  19.338  0.00  0.00    +0.000 NA
ATOM      8  C   UNL     1      -0.427  11.055  20.577  0.00  0.00    +0.000 A 
ATOM      9  C   UNL     1      -1.341  11.955  21.336  0.00  0.00    +0.000 A 
ATOM     10  C   UNL     1      -1.630  11.685  22.616  0.00  0.00    +0.000 A 
ATOM     11  C   UNL     1      -1.051  10.540  23.265  0.00  0.00    +0.000 A 
ATOM     12  C   UNL     1      -0.225   9.730  22.588  0.00  0.00    +0.000 A 
ATOM     13  N   UNL     1       0.095   9.956  21.251  0.00  0.00    +0.000 N 
ATOM     14  C   UNL     1       0.946   9.066  20.589  0.00  0.00    +0.000 A 
ATOM     15  O   UNL     1       1.453   8.073  21.115  0.00  0.00    +0.000 OA
ENDBRANCH   2   5
BRANCH   1  16
ATOM     16  C   UNL     1       2.825   6.268  17.660  0.00  0.00    +0.000 C 
BRANCH  16  22
ATOM     17  C   UNL     1       3.747   4.462  19.225  0.00  0.00    +0.000 A 
ATOM     18  C   UNL     1       3.652   3.171  19.762  0.00  0.00    +0.000 A 
ATOM     19  C   UNL     1       2.725   2.257  19.261  0.00  0.00    +0.000 A 
ATOM     20  C   UNL     1       1.867   2.633  18.236  0.00  0.00    +0.000 A 
ATOM     21  C   UNL     1       1.926   3.928  17.722  0.00  0.00    +0.000 A 
ATOM     22  C   UNL     1       2.860   4.862  18.209  0.00  0.00    +0.000 A 
BRANCH  17  24
ATOM     23  C   UNL     1       5.984   5.199  19.207  0.00  0.00    +0.000 C 
ATOM     24  O   UNL     1       4.652   5.387  19.682  0.00  0.00    +0.000 OA
ENDBRANCH  17  24
ENDBRANCH  16  22
ENDBRANCH   1  16
TORSDOF 4
ENDMDL
MODEL 4
REMARK VINA RESULT:      -7.1      4.893      8.452
REMARK  Name = 
REMARK  5 active torsions:
REMARK  status: ('A' for Active; 'I' for Inactive)
REMARK    1  A    between atoms: C_1  and  O_2
REMARK    2  A    between atoms: O_2  and  C_3
REMARK    3  A    between atoms: C_8  and  C_9
REMARK    4  A    between atoms: C_9  and  N_10
REMARK    5  A    between atoms: C_11  and  C_13
REMARK                            x       y       z     vdW  Elec       q    Type
REMARK                         _______ _______ _______ _____ _____    ______ ____
ROOT
ATOM      1  N   UNL     1       2.867   7.198  18.769  0.00  0.00    +0.000 N 
ATOM      2  C   UNL     1       2.152   8.335  18.487  0.00  0.00    +0.000 C 
ATOM      3  O   UNL     1       2.168   8.859  17.375  0.00  0.00    +0.000 OA
ATOM      4  H   UNL     1       2.757   6.754  19.678  0.00  0.00    +0.000 HD
ENDROOT
BRANCH   2   5
ATOM      5  C   UNL     1       1.324   8.905  19.591  0.00  0.00    +0.000 A 
ATOM      6  C   UNL     1       1.415   8.325  20.796  0.00  0.00    +0.000 A 
ATOM      7  N   UNL     1       0.774   8.730  21.935  0.00  0.00    +0.000 NA
ATOM      8  C   UNL     1       0.013   9.775  21.846  0.00  0.00    +0.000 A 
ATOM      9  C   UNL     1      -0.674  10.265  23.073  0.00  0.00    +0.000 A 
ATOM     10  C   UNL     1      -1.459  11.349  23.010  0.00  0.00    +0.000 A 
ATOM     11  C   UNL     1      -1.653  12.032  21.760  0.00  0.00    +0.000 A 
ATOM     12  C   UNL     1      -1.040  11.593  20.652  0.00  0.00    +0.000 A 
ATOM     13  N   UNL     1      -0.201  10.482  20.667  0.00  0.00    +0.000 N 
ATOM     14  C   UNL     1       0.428  10.081  19.485  0.00  0.00    +0.000 A 
ATOM     15  O   UNL     1       0.287  10.650  18.400  0.00  0.00    +0.000 OA
ENDBRANCH   2   5
BRANCH   1  16
ATOM     16  C   UNL     1       3.536   6.448  17.718  0.00  0.00    +0.000 C 
BRANCH  16  22
ATOM     17  C   UNL     1       4.113   3.961  17.505  0.00  0.00    +0.000 A 
ATOM     18  C   UNL     1       3.727   2.621  17.632  0.00  0.00    +0.000 A 
ATOM     19  C   UNL     1       2.405   2.284  17.922  0.00  0.00    +0.000 A 
ATOM     20  C   UNL     1       1.461   3.285  18.111  0.00  0.00    +0.000 A 
ATOM     21  C   UNL     1       1.844   4.624  18.026  0.00  0.00    +0.000 A 
ATOM     22  C   UNL     1       3.171   4.983  17.726  0.00  0.00    +0.000 A 
BRANCH  17  24
ATOM     23  C   UNL     1       5.837   3.979  15.898  0.00  0.00    +0.000 C 
ATOM     24  O   UNL     1       5.401   4.334  17.210  0.00  0.00    +0.000 OA
ENDBRANCH  17  24
ENDBRANCH  16  22
ENDBRANCH   1  16
TORSDOF 4
ENDMDL
MODEL 5
REMARK VINA RESULT:      -7.1      4.823      8.688
REMARK  Name = 
REMARK  5 active torsions:
REMARK  status: ('A' for Active; 'I' for Inactive)
REMARK    1  A    between atoms: C_1  and  O_2
REMARK    2  A    between atoms: O_2  and  C_3
REMARK    3  A    between atoms: C_8  and  C_9
REMARK    4  A    between atoms: C_9  and  N_10
REMARK    5  A    between atoms: C_11  and  C_13
REMARK                            x       y       z     vdW  Elec       q    Type
REMARK                         _______ _______ _______ _____ _____    ______ ____
ROOT
ATOM      1  N   UNL     1       2.389   7.231  18.655  0.00  0.00    +0.000 N 
ATOM      2  C   UNL     1       2.092   8.505  18.241  0.00  0.00    +0.000 C 
ATOM      3  O   UNL     1       2.481   8.950  17.164  0.00  0.00    +0.000 OA
ATOM      4  H   UNL     1       1.976   6.879  19.517  0.00  0.00    +0.000 HD
ENDROOT
BRANCH   2   5
ATOM      5  C   UNL     1       1.247   9.334  19.152  0.00  0.00    +0.000 A 
ATOM      6  C   UNL     1       0.638  10.406  18.627  0.00  0.00    +0.000 A 
ATOM      7  N   UNL     1      -0.208  11.255  19.287  0.00  0.00    +0.000 NA
ATOM      8  C   UNL     1      -0.450  10.998  20.533  0.00  0.00    +0.000 A 
ATOM      9  C   UNL     1      -1.393  11.883  21.273  0.00  0.00    +0.000 A 
ATOM     10  C   UNL     1      -1.668  11.634  22.561  0.00  0.00    +0.000 A 
ATOM     11  C   UNL     1      -1.045  10.527  23.235  0.00  0.00    +0.000 A 
ATOM     12  C   UNL     1      -0.193   9.731  22.574  0.00  0.00    +0.000 A 
ATOM     13  N   UNL     1       0.114   9.935  21.231  0.00  0.00    +0.000 N 
ATOM     14  C   UNL     1       0.994   9.061  20.587  0.00  0.00    +0.000 A 
ATOM     15  O   UNL     1       1.538   8.100  21.135  0.00  0.00    +0.000 OA
ENDBRANCH   2   5
BRANCH   1  16
ATOM     16  C   UNL     1       3.024   6.276  17.762  0.00  0.00    +0.000 C 
BRANCH  16  22
ATOM     17  C   UNL     1       5.071   5.333  18.980  0.00  0.00    +0.000 A 
ATOM     18  C   UNL     1       6.462   5.197  19.068  0.00  0.00    +0.000 A 
ATOM     19  C   UNL     1       7.304   5.920  18.223  0.00  0.00    +0.000 A 
ATOM     20  C   UNL     1       6.762   6.768  17.266  0.00  0.00    +0.000 A 
ATOM     21  C   UNL     1       5.378   6.880  17.143  0.00  0.00    +0.000 A 
ATOM     22  C   UNL     1       4.512   6.165  17.992  0.00  0.00    +0.000 A 
BRANCH  17  24
ATOM     23  C   UNL     1       4.171   3.239  19.576  0.00  0.00    +0.000 C 
ATOM     24  O   UNL     1       4.208   4.648  19.799  0.00  0.00    +0.000 OA
ENDBRANCH  17  24
ENDBRANCH  16  22
ENDBRANCH   1  16
TORSDOF 4
ENDMDL
MODEL 6
REMARK VINA RESULT:      -7.1      4.187      5.814
REMARK  Name = 
REMARK  5 active torsions:
REMARK  status: ('A' for Active; 'I' for Inactive)
REMARK    1  A    between atoms: C_1  and  O_2
REMARK    2  A    between atoms: O_2  and  C_3
REMARK    3  A    between atoms: C_8  and  C_9
REMARK    4  A    between atoms: C_9  and  N_10
REMARK    5  A    between atoms: C_11  and  C_13
REMARK                            x       y       z     vdW  Elec       q    Type
REMARK                         _______ _______ _______ _____ _____    ______ ____
ROOT
ATOM      1  N   UNL     1       2.364   7.316  20.202  0.00  0.00    +0.000 N 
ATOM      2  C   UNL     1       2.266   5.982  19.899  0.00  0.00    +0.000 C 
ATOM      3  O   UNL     1       1.429   5.251  20.424  0.00  0.00    +0.000 OA
ATOM      4  H   UNL     1       3.017   7.898  19.681  0.00  0.00    +0.000 HD
ENDROOT
BRANCH   2   5
ATOM      5  C   UNL     1       3.214   5.449  18.874  0.00  0.00    +0.000 A 
ATOM      6  C   UNL     1       3.547   4.153  18.954  0.00  0.00    +0.000 A 
ATOM      7  N   UNL     1       4.359   3.476  18.086  0.00  0.00    +0.000 NA
ATOM      8  C   UNL     1       4.847   4.144  17.089  0.00  0.00    +0.000 A 
ATOM      9  C   UNL     1       5.708   3.431  16.105  0.00  0.00    +0.000 A 
ATOM     10  C   UNL     1       6.219   4.096  15.060  0.00  0.00    +0.000 A 
ATOM     11  C   UNL     1       5.951   5.499  14.893  0.00  0.00    +0.000 A 
ATOM     12  C   UNL     1       5.180   6.146  15.778  0.00  0.00    +0.000 A 
ATOM     13  N   UNL     1       4.612   5.498  16.871  0.00  0.00    +0.000 N 
ATOM     14  C   UNL     1       3.799   6.218  17.751  0.00  0.00    +0.000 A 
ATOM     15  O   UNL     1       3.545   7.419  17.631  0.00  0.00    +0.000 OA
ENDBRANCH   2   5
BRANCH   1  16
ATOM     16  C   UNL     1       1.364   7.978  21.024  0.00  0.00    +0.000 C 
BRANCH  16  22
ATOM     17  C   UNL     1       0.582  10.400  21.314  0.00  0.00    +0.000 A 
ATOM     18  C   UNL     1       0.332  11.660  20.754  0.00  0.00    +0.000 A 
ATOM     19  C   UNL     1       0.410  11.855  19.375  0.00  0.00    +0.000 A 
ATOM     20  C   UNL     1       0.762  10.798  18.545  0.00  0.00    +0.000 A 
ATOM     21  C   UNL     1       1.051   9.550  19.096  0.00  0.00    +0.000 A 
ATOM     22  C   UNL     1       0.970   9.332  20.484  0.00  0.00    +0.000 A 
BRANCH  17  24
ATOM     23  C   UNL     1      -0.816  10.212  23.201  0.00  0.00    +0.000 C 
ATOM     24  O   UNL     1       0.505  10.164  22.664  0.00  0.00    +0.000 OA
ENDBRANCH  17  24
ENDBRANCH  16  22
ENDBRANCH   1  16
TORSDOF 4
ENDMDL
MODEL 7
REMARK VINA RESULT:      -7.1      3.541      7.392
REMARK  Name = 
REMARK  5 active torsions:
REMARK  status: ('A' for Active; 'I' for Inactive)
REMARK    1  A    between atoms: C_1  and  O_2
REMARK    2  A    between atoms: O_2  and  C_3
REMARK    3  A    between atoms: C_8  and  C_9
REMARK    4  A    between atoms: C_9  and  N_10
REMARK    5  A    between atoms: C_11  and  C_13
REMARK                            x       y       z     vdW  Elec       q    Type
REMARK                         _______ _______ _______ _____ _____    ______ ____
ROOT
ATOM      1  N   UNL     1       2.931   5.119  18.057  0.00  0.00    +0.000 N 
ATOM      2  C   UNL     1       2.861   5.545  19.360  0.00  0.00    +0.000 C 
ATOM      3  O   UNL     1       3.319   4.884  20.289  0.00  0.00    +0.000 OA
ATOM      4  H   UNL     1       2.612   5.738  17.314  0.00  0.00    +0.000 HD
ENDROOT
BRANCH   2   5
ATOM      5  C   UNL     1       2.218   6.870  19.606  0.00  0.00    +0.000 A 
ATOM      6  C   UNL     1       1.604   7.052  20.784  0.00  0.00    +0.000 A 
ATOM      7  N   UNL     1       1.002   8.204  21.208  0.00  0.00    +0.000 NA
ATOM      8  C   UNL     1       1.032   9.219  20.403  0.00  0.00    +0.000 A 
ATOM      9  C   UNL     1       0.415  10.500  20.847  0.00  0.00    +0.000 A 
ATOM     10  C   UNL     1       0.440  11.568  20.037  0.00  0.00    +0.000 A 
ATOM     11  C   UNL     1       1.046  11.477  18.736  0.00  0.00    +0.000 A 
ATOM     12  C   UNL     1       1.598  10.325  18.331  0.00  0.00    +0.000 A 
ATOM     13  N   UNL     1       1.614   9.191  19.140  0.00  0.00    +0.000 N 
ATOM     14  C   UNL     1       2.223   8.023  18.674  0.00  0.00    +0.000 A 
ATOM     15  O   UNL     1       2.755   7.915  17.567  0.00  0.00    +0.000 OA
ENDBRANCH   2   5
BRANCH   1  16
ATOM     16  C   UNL     1       3.714   3.952  17.686  0.00  0.00    +0.000 C 
BRANCH  16  22
ATOM     17  C   UNL     1       6.199   4.527  17.451  0.00  0.00    +0.000 A 
ATOM     18  C   UNL     1       7.311   4.746  16.628  0.00  0.00    +0.000 A 
ATOM     19  C   UNL     1       7.171   4.803  15.241  0.00  0.00    +0.000 A 
ATOM     20  C   UNL     1       5.922   4.616  14.663  0.00  0.00    +0.000 A 
ATOM     21  C   UNL     1       4.816   4.358  15.471  0.00  0.00    +0.000 A 
ATOM     22  C   UNL     1       4.935   4.305  16.873  0.00  0.00    +0.000 A 
BRANCH  17  24
ATOM     23  C   UNL     1       7.045   5.537  19.404  0.00  0.00    +0.000 C 
ATOM     24  O   UNL     1       6.292   4.476  18.820  0.00  0.00    +0.000 OA
ENDBRANCH  17  24
ENDBRANCH  16  22
ENDBRANCH   1  16
TORSDOF 4
ENDMDL
MODEL 8
REMARK VINA RESULT:      -7.1      4.631      8.197
REMARK  Name = 
REMARK  5 active torsions:
REMARK  status: ('A' for Active; 'I' for Inactive)
REMARK    1  A    between atoms: C_1  and  O_2
REMARK    2  A    between atoms: O_2  and  C_3
REMARK    3  A    between atoms: C_8  and  C_9
REMARK    4  A    between atoms: C_9  and  N_10
REMARK    5  A    between atoms: C_11  and  C_13
REMARK                            x       y       z     vdW  Elec       q    Type
REMARK                         _______ _______ _______ _____ _____    ______ ____
ROOT
ATOM      1  N   UNL     1       2.586   7.069  18.578  0.00  0.00    +0.000 N 
ATOM      2  C   UNL     1       2.255   8.346  18.199  0.00  0.00    +0.000 C 
ATOM      3  O   UNL     1       2.594   8.815  17.115  0.00  0.00    +0.000 OA
ATOM      4  H   UNL     1       2.213   6.697  19.449  0.00  0.00    +0.000 HD
ENDROOT
BRANCH   2   5
ATOM      5  C   UNL     1       1.437   9.146  19.158  0.00  0.00    +0.000 A 
ATOM      6  C   UNL     1       0.890  10.284  18.706  0.00  0.00    +0.000 A 
ATOM      7  N   UNL     1       0.076  11.123  19.416  0.00  0.00    +0.000 NA
ATOM      8  C   UNL     1      -0.200  10.787  20.636  0.00  0.00    +0.000 A 
ATOM      9  C   UNL     1      -1.111  11.661  21.428  0.00  0.00    +0.000 A 
ATOM     10  C   UNL     1      -1.420  11.332  22.690  0.00  0.00    +0.000 A 
ATOM     11  C   UNL     1      -0.865  10.147  23.287  0.00  0.00    +0.000 A 
ATOM     12  C   UNL     1      -0.042   9.361  22.580  0.00  0.00    +0.000 A 
ATOM     13  N   UNL     1       0.298   9.648  21.260  0.00  0.00    +0.000 N 
ATOM     14  C   UNL     1       1.145   8.781  20.564  0.00  0.00    +0.000 A 
ATOM     15  O   UNL     1       1.631   7.756  21.046  0.00  0.00    +0.000 OA
ENDBRANCH   2   5
BRANCH   1  16
ATOM     16  C   UNL     1       3.198   6.139  17.643  0.00  0.00    +0.000 C 
BRANCH  16  22
ATOM     17  C   UNL     1       3.832   3.677  17.948  0.00  0.00    +0.000 A 
ATOM     18  C   UNL     1       3.476   2.382  18.349  0.00  0.00    +0.000 A 
ATOM     19  C   UNL     1       2.160   2.082  18.701  0.00  0.00    +0.000 A 
ATOM     20  C   UNL     1       1.193   3.078  18.679  0.00  0.00    +0.000 A 
ATOM     21  C   UNL     1       1.546   4.379  18.319  0.00  0.00    +0.000 A 
ATOM     22  C   UNL     1       2.866   4.700  17.953  0.00  0.00    +0.000 A 
BRANCH  17  24
ATOM     23  C   UNL     1       5.414   3.794  16.206  0.00  0.00    +0.000 C 
ATOM     24  O   UNL     1       5.113   4.010  17.584  0.00  0.00    +0.000 OA
ENDBRANCH  17  24
ENDBRANCH  16  22
ENDBRANCH   1  16
TORSDOF 4
ENDMDL
MODEL 9
REMARK VINA RESULT:      -7.0      5.209      8.748
REMARK  Name = 
REMARK  5 active torsions:
REMARK  status: ('A' for Active; 'I' for Inactive)
REMARK    1  A    between atoms: C_1  and  O_2
REMARK    2  A    between atoms: O_2  and  C_3
REMARK    3  A    between atoms: C_8  and  C_9
REMARK    4  A    between atoms: C_9  and  N_10
REMARK    5  A    between atoms: C_11  and  C_13
REMARK                            x       y       z     vdW  Elec       q    Type
REMARK                         _______ _______ _______ _____ _____    ______ ____
ROOT
ATOM      1  N   UNL     1       2.429   7.060  20.330  0.00  0.00    +0.000 N 
ATOM      2  C   UNL     1       1.868   8.130  19.680  0.00  0.00    +0.000 C 
ATOM      3  O   UNL     1       2.097   8.370  18.496  0.00  0.00    +0.000 OA
ATOM      4  H   UNL     1       2.145   6.855  21.286  0.00  0.00    +0.000 HD
ENDROOT
BRANCH   2   5
ATOM      5  C   UNL     1       0.938   8.991  20.470  0.00  0.00    +0.000 A 
ATOM      6  C   UNL     1       0.914   8.819  21.799  0.00  0.00    +0.000 A 
ATOM      7  N   UNL     1       0.167   9.539  22.691  0.00  0.00    +0.000 NA
ATOM      8  C   UNL     1      -0.583  10.481  22.210  0.00  0.00    +0.000 A 
ATOM      9  C   UNL     1      -1.384  11.307  23.156  0.00  0.00    +0.000 A 
ATOM     10  C   UNL     1      -2.161  12.293  22.686  0.00  0.00    +0.000 A 
ATOM     11  C   UNL     1      -2.234  12.547  21.272  0.00  0.00    +0.000 A 
ATOM     12  C   UNL     1      -1.518  11.803  20.418  0.00  0.00    +0.000 A 
ATOM     13  N   UNL     1      -0.683  10.777  20.855  0.00  0.00    +0.000 N 
ATOM     14  C   UNL     1       0.056  10.048  19.920  0.00  0.00    +0.000 A 
ATOM     15  O   UNL     1       0.019  10.245  18.704  0.00  0.00    +0.000 OA
ENDBRANCH   2   5
BRANCH   1  16
ATOM     16  C   UNL     1       3.179   6.047  19.606  0.00  0.00    +0.000 C 
BRANCH  16  22
ATOM     17  C   UNL     1       2.508   4.050  18.149  0.00  0.00    +0.000 A 
ATOM     18  C   UNL     1       1.794   2.853  18.002  0.00  0.00    +0.000 A 
ATOM     19  C   UNL     1       0.897   2.433  18.984  0.00  0.00    +0.000 A 
ATOM     20  C   UNL     1       0.723   3.192  20.134  0.00  0.00    +0.000 A 
ATOM     21  C   UNL     1       1.459   4.364  20.309  0.00  0.00    +0.000 A 
ATOM     22  C   UNL     1       2.362   4.809  19.325  0.00  0.00    +0.000 A 
BRANCH  17  24
ATOM     23  C   UNL     1       4.549   3.688  17.031  0.00  0.00    +0.000 C 
ATOM     24  O   UNL     1       3.391   4.504  17.202  0.00  0.00    +0.000 OA
ENDBRANCH  17  24
ENDBRANCH  16  22
ENDBRANCH   1  16
TORSDOF 4
ENDMDL
