MODEL 1
REMARK VINA RESULT:      -7.9      0.000      0.000
REMARK  Name = 
REMARK  2 active torsions:
REMARK  status: ('A' for Active; 'I' for Inactive)
REMARK    1  A    between atoms: N_6  and  C_7
REMARK    2  A    between atoms: N_10  and  C_11
REMARK                            x       y       z     vdW  Elec       q    Type
REMARK                         _______ _______ _______ _____ _____    ______ ____
ROOT
ATOM      1  O   UNL     1       1.045   3.497  21.508  0.00  0.00    +0.000 OA
ATOM      2  C   UNL     1       1.822   4.032  20.708  0.00  0.00    +0.000 C 
ATOM      3  C   UNL     1       2.303   3.262  19.515  0.00  0.00    +0.000 C 
ATOM      4  C   UNL     1       2.665   3.963  18.234  0.00  0.00    +0.000 C 
ATOM      5  O   UNL     1       2.326   3.500  17.145  0.00  0.00    +0.000 OA
ATOM      6  N   UNL     1       3.491   5.079  18.301  0.00  0.00    +0.000 N 
ATOM      7  C   UNL     1       2.814   6.221  18.805  0.00  0.00    +0.000 A 
ATOM      8  C   UNL     1       2.485   7.216  17.878  0.00  0.00    +0.000 A 
ATOM      9  C   UNL     1       1.793   8.365  18.276  0.00  0.00    +0.000 A 
ATOM     10  C   UNL     1       1.460   8.552  19.613  0.00  0.00    +0.000 A 
ATOM     11  C   UNL     1       1.755   7.536  20.519  0.00  0.00    +0.000 A 
ATOM     12  F   UNL     1       1.353   7.676  21.791  0.00  0.00    +0.000 F 
ATOM     13  C   UNL     1       2.352   6.336  20.115  0.00  0.00    +0.000 A 
ATOM     14  N   UNL     1       2.295   5.269  21.036  0.00  0.00    +0.000 N 
ATOM     15  H   UNL     1       1.888   5.542  21.933  0.00  0.00    +0.000 HD
ENDROOT
BRANCH   6  16
ATOM     16  C   UNL     1       4.897   4.837  18.740  0.00  0.00    +0.000 C 
ATOM     17  C   UNL     1       5.901   5.994  18.593  0.00  0.00    +0.000 C 
ATOM     18  C   UNL     1       6.275   6.327  17.139  0.00  0.00    +0.000 C 
ATOM     19  N   UNL     1       6.679   5.186  16.289  0.00  0.00    +0.000 NA
ATOM     20  C   UNL     1       5.788   4.024  16.506  0.00  0.00    +0.000 C 
ATOM     21  C   UNL     1       5.519   3.662  17.969  0.00  0.00    +0.000 C 
BRANCH  19  22
ATOM     22  C   UNL     1       6.714   5.581  14.823  0.00  0.00    +0.000 C 
ATOM     23  C   UNL     1       8.043   5.189  14.106  0.00  0.00    +0.000 C 
ATOM     24  C   UNL     1       8.199   5.587  12.621  0.00  0.00    +0.000 C 
ATOM     25  C   UNL     1       7.346   4.954  11.506  0.00  0.00    +0.000 C 
ATOM     26  C   UNL     1       6.988   3.473  11.633  0.00  0.00    +0.000 C 
ATOM     27  C   UNL     1       5.632   3.186  12.285  0.00  0.00    +0.000 C 
ATOM     28  C   UNL     1       5.545   3.536  13.768  0.00  0.00    +0.000 C 
ATOM     29  C   UNL     1       5.507   5.046  14.018  0.00  0.00    +0.000 C 
ENDBRANCH  19  22
ENDBRANCH   6  16
TORSDOF 2
ENDMDL
MODEL 2
REMARK VINA RESULT:      -7.5      8.156     12.829
REMARK  Name = 
REMARK  2 active torsions:
REMARK  status: ('A' for Active; 'I' for Inactive)
REMARK    1  A    between atoms: N_6  and  C_7
REMARK    2  A    between atoms: N_10  and  C_11
REMARK                            x       y       z     vdW  Elec       q    Type
REMARK                         _______ _______ _______ _____ _____    ______ ____
ROOT
ATOM      1  O   UNL     1       2.900  13.001  18.200  0.00  0.00    +0.000 OA
ATOM      2  C   UNL     1       1.883  12.915  18.899  0.00  0.00    +0.000 C 
ATOM      3  C   UNL     1       1.324  14.146  19.547  0.00  0.00    +0.000 C 
ATOM      4  C   UNL     1      -0.149  14.274  19.825  0.00  0.00    +0.000 C 
ATOM      5  O   UNL     1      -0.742  15.331  19.609  0.00  0.00    +0.000 OA
ATOM      6  N   UNL     1      -0.801  13.212  20.443  0.00  0.00    +0.000 N 
ATOM      7  C   UNL     1      -1.001  12.118  19.562  0.00  0.00    +0.000 A 
ATOM      8  C   UNL     1      -2.306  11.916  19.098  0.00  0.00    +0.000 A 
ATOM      9  C   UNL     1      -2.596  10.880  18.204  0.00  0.00    +0.000 A 
ATOM     10  C   UNL     1      -1.593  10.006  17.798  0.00  0.00    +0.000 A 
ATOM     11  C   UNL     1      -0.290  10.242  18.233  0.00  0.00    +0.000 A 
ATOM     12  F   UNL     1       0.692   9.455  17.770  0.00  0.00    +0.000 F 
ATOM     13  C   UNL     1       0.031  11.338  19.043  0.00  0.00    +0.000 A 
ATOM     14  N   UNL     1       1.400  11.662  19.140  0.00  0.00    +0.000 N 
ATOM     15  H   UNL     1       2.001  10.988  18.661  0.00  0.00    +0.000 HD
ENDROOT
BRANCH   6  16
ATOM     16  C   UNL     1      -0.407  12.924  21.854  0.00  0.00    +0.000 C 
ATOM     17  C   UNL     1      -1.100  11.748  22.563  0.00  0.00    +0.000 C 
ATOM     18  C   UNL     1      -2.584  11.989  22.889  0.00  0.00    +0.000 C 
ATOM     19  N   UNL     1      -2.905  13.262  23.572  0.00  0.00    +0.000 NA
ATOM     20  C   UNL     1      -2.155  14.388  22.972  0.00  0.00    +0.000 C 
ATOM     21  C   UNL     1      -0.659  14.144  22.755  0.00  0.00    +0.000 C 
BRANCH  19  22
ATOM     22  C   UNL     1      -4.399  13.530  23.554  0.00  0.00    +0.000 C 
ATOM     23  C   UNL     1      -4.764  15.031  23.780  0.00  0.00    +0.000 C 
ATOM     24  C   UNL     1      -6.263  15.404  23.825  0.00  0.00    +0.000 C 
ATOM     25  C   UNL     1      -7.171  15.312  22.585  0.00  0.00    +0.000 C 
ATOM     26  C   UNL     1      -6.567  15.671  21.227  0.00  0.00    +0.000 C 
ATOM     27  C   UNL     1      -6.022  14.485  20.424  0.00  0.00    +0.000 C 
ATOM     28  C   UNL     1      -4.785  13.819  21.019  0.00  0.00    +0.000 C 
ATOM     29  C   UNL     1      -5.098  13.007  22.278  0.00  0.00    +0.000 C 
ENDBRANCH  19  22
ENDBRANCH   6  16
TORSDOF 2
ENDMDL
MODEL 3
REMARK VINA RESULT:      -7.3      4.103      6.678
REMARK  Name = 
REMARK  2 active torsions:
REMARK  status: ('A' for Active; 'I' for Inactive)
REMARK    1  A    between atoms: N_6  and  C_7
REMARK    2  A    between atoms: N_10  and  C_11
REMARK                            x       y       z     vdW  Elec       q    Type
REMARK                         _______ _______ _______ _____ _____    ______ ____
ROOT
ATOM      1  O   UNL     1      -1.064  11.976  23.401  0.00  0.00    +0.000 OA
ATOM      2  C   UNL     1      -0.702  11.349  22.398  0.00  0.00    +0.000 C 
ATOM      3  C   UNL     1      -0.285   9.915  22.530  0.00  0.00    +0.000 C 
ATOM      4  C   UNL     1      -0.468   8.947  21.394  0.00  0.00    +0.000 C 
ATOM      5  O   UNL     1      -0.879   7.805  21.598  0.00  0.00    +0.000 OA
ATOM      6  N   UNL     1      -0.049   9.329  20.124  0.00  0.00    +0.000 N 
ATOM      7  C   UNL     1      -0.921  10.281  19.533  0.00  0.00    +0.000 A 
ATOM      8  C   UNL     1      -1.752   9.818  18.506  0.00  0.00    +0.000 A 
ATOM      9  C   UNL     1      -2.666  10.675  17.883  0.00  0.00    +0.000 A 
ATOM     10  C   UNL     1      -2.727  12.015  18.248  0.00  0.00    +0.000 A 
ATOM     11  C   UNL     1      -1.925  12.455  19.300  0.00  0.00    +0.000 A 
ATOM     12  F   UNL     1      -2.051  13.725  19.713  0.00  0.00    +0.000 F 
ATOM     13  C   UNL     1      -1.085  11.583  20.002  0.00  0.00    +0.000 A 
ATOM     14  N   UNL     1      -0.587  12.054  21.234  0.00  0.00    +0.000 N 
ATOM     15  H   UNL     1      -0.845  13.025  21.421  0.00  0.00    +0.000 HD
ENDROOT
BRANCH   6  16
ATOM     16  C   UNL     1       1.422   9.504  19.936  0.00  0.00    +0.000 C 
ATOM     17  C   UNL     1       1.982   9.365  18.510  0.00  0.00    +0.000 C 
ATOM     18  C   UNL     1       1.949   7.933  17.952  0.00  0.00    +0.000 C 
ATOM     19  N   UNL     1       2.505   6.877  18.826  0.00  0.00    +0.000 NA
ATOM     20  C   UNL     1       2.066   7.064  20.227  0.00  0.00    +0.000 C 
ATOM     21  C   UNL     1       2.207   8.485  20.779  0.00  0.00    +0.000 C 
BRANCH  19  22
ATOM     22  C   UNL     1       2.134   5.495  18.318  0.00  0.00    +0.000 C 
ATOM     23  C   UNL     1       3.299   4.777  17.566  0.00  0.00    +0.000 C 
ATOM     24  C   UNL     1       3.011   3.381  16.970  0.00  0.00    +0.000 C 
ATOM     25  C   UNL     1       2.746   2.148  17.853  0.00  0.00    +0.000 C 
ATOM     26  C   UNL     1       3.525   2.023  19.162  0.00  0.00    +0.000 C 
ATOM     27  C   UNL     1       2.807   2.570  20.400  0.00  0.00    +0.000 C 
ATOM     28  C   UNL     1       2.626   4.084  20.422  0.00  0.00    +0.000 C 
ATOM     29  C   UNL     1       1.574   4.569  19.422  0.00  0.00    +0.000 C 
ENDBRANCH  19  22
ENDBRANCH   6  16
TORSDOF 2
ENDMDL
MODEL 4
REMARK VINA RESULT:      -7.3      7.998     12.831
REMARK  Name = 
REMARK  2 active torsions:
REMARK  status: ('A' for Active; 'I' for Inactive)
REMARK    1  A    between atoms: N_6  and  C_7
REMARK    2  A    between atoms: N_10  and  C_11
REMARK                            x       y       z     vdW  Elec       q    Type
REMARK                         _______ _______ _______ _____ _____    ______ ____
ROOT
ATOM      1  O   UNL     1       2.959  12.053  17.852  0.00  0.00    +0.000 OA
ATOM      2  C   UNL     1       1.894  12.233  18.454  0.00  0.00    +0.000 C 
ATOM      3  C   UNL     1       1.530  13.610  18.920  0.00  0.00    +0.000 C 
ATOM      4  C   UNL     1       0.091  14.034  19.040  0.00  0.00    +0.000 C 
ATOM      5  O   UNL     1      -0.272  15.148  18.664  0.00  0.00    +0.000 OA
ATOM      6  N   UNL     1      -0.796  13.185  19.692  0.00  0.00    +0.000 N 
ATOM      7  C   UNL     1      -1.132  12.050  18.908  0.00  0.00    +0.000 A 
ATOM      8  C   UNL     1      -2.412  12.035  18.341  0.00  0.00    +0.000 A 
ATOM      9  C   UNL     1      -2.823  10.973  17.530  0.00  0.00    +0.000 A 
ATOM     10  C   UNL     1      -1.976   9.892  17.312  0.00  0.00    +0.000 A 
ATOM     11  C   UNL     1      -0.690   9.937  17.846  0.00  0.00    +0.000 A 
ATOM     12  F   UNL     1       0.158   8.938  17.560  0.00  0.00    +0.000 F 
ATOM     13  C   UNL     1      -0.230  11.043  18.571  0.00  0.00    +0.000 A 
ATOM     14  N   UNL     1       1.164  11.123  18.769  0.00  0.00    +0.000 N 
ATOM     15  H   UNL     1       1.662  10.302  18.419  0.00  0.00    +0.000 HD
ENDROOT
BRANCH   6  16
ATOM     16  C   UNL     1      -0.574  12.994  21.157  0.00  0.00    +0.000 C 
ATOM     17  C   UNL     1      -1.519  12.037  21.904  0.00  0.00    +0.000 C 
ATOM     18  C   UNL     1      -2.958  12.557  22.057  0.00  0.00    +0.000 C 
ATOM     19  N   UNL     1      -3.104  13.934  22.579  0.00  0.00    +0.000 NA
ATOM     20  C   UNL     1      -2.122  14.845  21.951  0.00  0.00    +0.000 C 
ATOM     21  C   UNL     1      -0.680  14.332  21.907  0.00  0.00    +0.000 C 
BRANCH  19  22
ATOM     22  C   UNL     1      -4.522  14.444  22.389  0.00  0.00    +0.000 C 
ATOM     23  C   UNL     1      -5.285  13.736  21.227  0.00  0.00    +0.000 C 
ATOM     24  C   UNL     1      -6.723  14.214  20.920  0.00  0.00    +0.000 C 
ATOM     25  C   UNL     1      -7.890  13.990  21.899  0.00  0.00    +0.000 C 
ATOM     26  C   UNL     1      -7.914  12.687  22.697  0.00  0.00    +0.000 C 
ATOM     27  C   UNL     1      -7.284  12.767  24.091  0.00  0.00    +0.000 C 
ATOM     28  C   UNL     1      -5.773  12.976  24.103  0.00  0.00    +0.000 C 
ATOM     29  C   UNL     1      -5.368  14.390  23.682  0.00  0.00    +0.000 C 
ENDBRANCH  19  22
ENDBRANCH   6  16
TORSDOF 2
ENDMDL
MODEL 5
REMARK VINA RESULT:      -7.3      7.938     12.527
REMARK  Name = 
REMARK  2 active torsions:
REMARK  status: ('A' for Active; 'I' for Inactive)
REMARK    1  A    between atoms: N_6  and  C_7
REMARK    2  A    between atoms: N_10  and  C_11
REMARK                            x       y       z     vdW  Elec       q    Type
REMARK                         _______ _______ _______ _____ _____    ______ ____
ROOT
ATOM      1  O   UNL     1      -1.423   9.637  17.298  0.00  0.00    +0.000 OA
ATOM      2  C   UNL     1      -1.181  10.469  18.180  0.00  0.00    +0.000 C 
ATOM      3  C   UNL     1      -1.992  11.727  18.256  0.00  0.00    +0.000 C 
ATOM      4  C   UNL     1      -2.226  12.422  19.570  0.00  0.00    +0.000 C 
ATOM      5  O   UNL     1      -3.333  12.876  19.855  0.00  0.00    +0.000 OA
ATOM      6  N   UNL     1      -1.135  12.644  20.404  0.00  0.00    +0.000 N 
ATOM      7  C   UNL     1      -0.694  11.455  21.041  0.00  0.00    +0.000 A 
ATOM      8  C   UNL     1      -0.994  11.324  22.402  0.00  0.00    +0.000 A 
ATOM      9  C   UNL     1      -0.624  10.175  23.109  0.00  0.00    +0.000 A 
ATOM     10  C   UNL     1       0.089   9.163  22.475  0.00  0.00    +0.000 A 
ATOM     11  C   UNL     1       0.345   9.286  21.111  0.00  0.00    +0.000 A 
ATOM     12  F   UNL     1       0.952   8.270  20.479  0.00  0.00    +0.000 F 
ATOM     13  C   UNL     1      -0.112  10.382  20.369  0.00  0.00    +0.000 A 
ATOM     14  N   UNL     1      -0.089  10.239  18.966  0.00  0.00    +0.000 N 
ATOM     15  H   UNL     1       0.345   9.364  18.664  0.00  0.00    +0.000 HD
ENDROOT
BRANCH   6  16
ATOM     16  C   UNL     1      -0.107  13.606  19.907  0.00  0.00    +0.000 C 
ATOM     17  C   UNL     1       1.093  13.904  20.821  0.00  0.00    +0.000 C 
ATOM     18  C   UNL     1       0.747  14.722  22.077  0.00  0.00    +0.000 C 
ATOM     19  N   UNL     1      -0.050  15.949  21.860  0.00  0.00    +0.000 NA
ATOM     20  C   UNL     1      -1.142  15.706  20.892  0.00  0.00    +0.000 C 
ATOM     21  C   UNL     1      -0.737  14.976  19.608  0.00  0.00    +0.000 C 
BRANCH  19  22
ATOM     22  C   UNL     1      -0.592  16.488  23.172  0.00  0.00    +0.000 C 
ATOM     23  C   UNL     1      -1.791  17.471  22.990  0.00  0.00    +0.000 C 
ATOM     24  C   UNL     1      -2.389  18.112  24.263  0.00  0.00    +0.000 C 
ATOM     25  C   UNL     1      -3.150  17.289  25.319  0.00  0.00    +0.000 C 
ATOM     26  C   UNL     1      -4.030  16.138  24.831  0.00  0.00    +0.000 C 
ATOM     27  C   UNL     1      -3.356  14.762  24.824  0.00  0.00    +0.000 C 
ATOM     28  C   UNL     1      -2.236  14.601  23.800  0.00  0.00    +0.000 C 
ATOM     29  C   UNL     1      -0.973  15.377  24.177  0.00  0.00    +0.000 C 
ENDBRANCH  19  22
ENDBRANCH   6  16
TORSDOF 2
ENDMDL
MODEL 6
REMARK VINA RESULT:      -7.2      9.141     11.496
REMARK  Name = 
REMARK  2 active torsions:
REMARK  status: ('A' for Active; 'I' for Inactive)
REMARK    1  A    between atoms: N_6  and  C_7
REMARK    2  A    between atoms: N_10  and  C_11
REMARK                            x       y       z     vdW  Elec       q    Type
REMARK                         _______ _______ _______ _____ _____    ______ ____
ROOT
ATOM      1  O   UNL     1       4.743  17.933  19.847  0.00  0.00    +0.000 OA
ATOM      2  C   UNL     1       3.905  17.023  19.814  0.00  0.00    +0.000 C 
ATOM      3  C   UNL     1       3.759  16.108  20.992  0.00  0.00    +0.000 C 
ATOM      4  C   UNL     1       2.438  15.465  21.315  0.00  0.00    +0.000 C 
ATOM      5  O   UNL     1       2.039  15.394  22.477  0.00  0.00    +0.000 OA
ATOM      6  N   UNL     1       1.733  14.848  20.287  0.00  0.00    +0.000 N 
ATOM      7  C   UNL     1       1.131  15.786  19.409  0.00  0.00    +0.000 A 
ATOM      8  C   UNL     1      -0.257  15.940  19.510  0.00  0.00    +0.000 A 
ATOM      9  C   UNL     1      -0.936  16.861  18.705  0.00  0.00    +0.000 A 
ATOM     10  C   UNL     1      -0.242  17.606  17.759  0.00  0.00    +0.000 A 
ATOM     11  C   UNL     1       1.144  17.475  17.695  0.00  0.00    +0.000 A 
ATOM     12  F   UNL     1       1.823  18.260  16.846  0.00  0.00    +0.000 F 
ATOM     13  C   UNL     1       1.847  16.635  18.568  0.00  0.00    +0.000 A 
ATOM     14  N   UNL     1       3.241  16.834  18.637  0.00  0.00    +0.000 N 
ATOM     15  H   UNL     1       3.576  17.527  17.964  0.00  0.00    +0.000 HD
ENDROOT
BRANCH   6  16
ATOM     16  C   UNL     1       2.355  13.623  19.700  0.00  0.00    +0.000 C 
ATOM     17  C   UNL     1       1.837  13.145  18.333  0.00  0.00    +0.000 C 
ATOM     18  C   UNL     1       0.413  12.567  18.360  0.00  0.00    +0.000 C 
ATOM     19  N   UNL     1       0.140  11.547  19.396  0.00  0.00    +0.000 NA
ATOM     20  C   UNL     1       0.732  11.941  20.694  0.00  0.00    +0.000 C 
ATOM     21  C   UNL     1       2.186  12.418  20.639  0.00  0.00    +0.000 C 
BRANCH  19  22
ATOM     22  C   UNL     1      -1.350  11.290  19.532  0.00  0.00    +0.000 C 
ATOM     23  C   UNL     1      -2.227  12.546  19.235  0.00  0.00    +0.000 C 
ATOM     24  C   UNL     1      -3.758  12.402  19.389  0.00  0.00    +0.000 C 
ATOM     25  C   UNL     1      -4.600  11.522  18.447  0.00  0.00    +0.000 C 
ATOM     26  C   UNL     1      -4.199  11.464  16.973  0.00  0.00    +0.000 C 
ATOM     27  C   UNL     1      -3.281  10.297  16.595  0.00  0.00    +0.000 C 
ATOM     28  C   UNL     1      -1.874  10.370  17.178  0.00  0.00    +0.000 C 
ATOM     29  C   UNL     1      -1.842  10.095  18.683  0.00  0.00    +0.000 C 
ENDBRANCH  19  22
ENDBRANCH   6  16
TORSDOF 2
ENDMDL
MODEL 7
REMARK VINA RESULT:      -7.2      8.003     12.673
REMARK  Name = 
REMARK  2 active torsions:
REMARK  status: ('A' for Active; 'I' for Inactive)
REMARK    1  A    between atoms: N_6  and  C_7
REMARK    2  A    between atoms: N_10  and  C_11
REMARK                            x       y       z     vdW  Elec       q    Type
REMARK                         _______ _______ _______ _____ _____    ______ ____
ROOT
ATOM      1  O   UNL     1      -1.448   9.703  17.315  0.00  0.00    +0.000 OA
ATOM      2  C   UNL     1      -1.252  10.522  18.221  0.00  0.00    +0.000 C 
ATOM      3  C   UNL     1      -2.131  11.732  18.329  0.00  0.00    +0.000 C 
ATOM      4  C   UNL     1      -2.404  12.376  19.661  0.00  0.00    +0.000 C 
ATOM      5  O   UNL     1      -3.535  12.761  19.955  0.00  0.00    +0.000 OA
ATOM      6  N   UNL     1      -1.329  12.634  20.504  0.00  0.00    +0.000 N 
ATOM      7  C   UNL     1      -0.824  11.453  21.110  0.00  0.00    +0.000 A 
ATOM      8  C   UNL     1      -1.119  11.268  22.466  0.00  0.00    +0.000 A 
ATOM      9  C   UNL     1      -0.689  10.122  23.142  0.00  0.00    +0.000 A 
ATOM     10  C   UNL     1       0.079   9.168  22.482  0.00  0.00    +0.000 A 
ATOM     11  C   UNL     1       0.331   9.342  21.123  0.00  0.00    +0.000 A 
ATOM     12  F   UNL     1       0.993   8.378  20.466  0.00  0.00    +0.000 F 
ATOM     13  C   UNL     1      -0.184  10.432  20.410  0.00  0.00    +0.000 A 
ATOM     14  N   UNL     1      -0.151  10.330  19.005  0.00  0.00    +0.000 N 
ATOM     15  H   UNL     1       0.331   9.489  18.679  0.00  0.00    +0.000 HD
ENDROOT
BRANCH   6  16
ATOM     16  C   UNL     1      -0.353  13.664  20.038  0.00  0.00    +0.000 C 
ATOM     17  C   UNL     1       0.827  14.001  20.964  0.00  0.00    +0.000 C 
ATOM     18  C   UNL     1       0.435  14.763  22.241  0.00  0.00    +0.000 C 
ATOM     19  N   UNL     1      -0.427  15.951  22.055  0.00  0.00    +0.000 NA
ATOM     20  C   UNL     1      -1.503  15.676  21.077  0.00  0.00    +0.000 C 
ATOM     21  C   UNL     1      -1.056  15.005  19.775  0.00  0.00    +0.000 C 
BRANCH  19  22
ATOM     22  C   UNL     1      -1.000  16.423  23.379  0.00  0.00    +0.000 C 
ATOM     23  C   UNL     1      -0.985  15.326  24.489  0.00  0.00    +0.000 C 
ATOM     24  C   UNL     1      -1.589  15.692  25.864  0.00  0.00    +0.000 C 
ATOM     25  C   UNL     1      -0.937  16.727  26.799  0.00  0.00    +0.000 C 
ATOM     26  C   UNL     1       0.589  16.786  26.849  0.00  0.00    +0.000 C 
ATOM     27  C   UNL     1       1.230  17.817  25.914  0.00  0.00    +0.000 C 
ATOM     28  C   UNL     1       1.094  17.509  24.427  0.00  0.00    +0.000 C 
ATOM     29  C   UNL     1      -0.332  17.713  23.908  0.00  0.00    +0.000 C 
ENDBRANCH  19  22
ENDBRANCH   6  16
TORSDOF 2
ENDMDL
MODEL 8
REMARK VINA RESULT:      -7.2      7.456     12.407
REMARK  Name = 
REMARK  2 active torsions:
REMARK  status: ('A' for Active; 'I' for Inactive)
REMARK    1  A    between atoms: N_6  and  C_7
REMARK    2  A    between atoms: N_10  and  C_11
REMARK                            x       y       z     vdW  Elec       q    Type
REMARK                         _______ _______ _______ _____ _____    ______ ____
ROOT
ATOM      1  O   UNL     1       0.416   9.276  17.665  0.00  0.00    +0.000 OA
ATOM      2  C   UNL     1       0.204  10.183  18.479  0.00  0.00    +0.000 C 
ATOM      3  C   UNL     1      -0.788  11.257  18.151  0.00  0.00    +0.000 C 
ATOM      4  C   UNL     1      -1.561  11.956  19.235  0.00  0.00    +0.000 C 
ATOM      5  O   UNL     1      -2.761  12.195  19.100  0.00  0.00    +0.000 OA
ATOM      6  N   UNL     1      -0.866  12.431  20.342  0.00  0.00    +0.000 N 
ATOM      7  C   UNL     1      -0.467  11.387  21.216  0.00  0.00    +0.000 A 
ATOM      8  C   UNL     1      -1.176  11.267  22.417  0.00  0.00    +0.000 A 
ATOM      9  C   UNL     1      -0.873  10.251  23.330  0.00  0.00    +0.000 A 
ATOM     10  C   UNL     1       0.172   9.370  23.072  0.00  0.00    +0.000 A 
ATOM     11  C   UNL     1       0.844   9.473  21.856  0.00  0.00    +0.000 A 
ATOM     12  F   UNL     1       1.791   8.567  21.569  0.00  0.00    +0.000 F 
ATOM     13  C   UNL     1       0.480  10.418  20.889  0.00  0.00    +0.000 A 
ATOM     14  N   UNL     1       0.994  10.213  19.592  0.00  0.00    +0.000 N 
ATOM     15  H   UNL     1       1.647   9.428  19.544  0.00  0.00    +0.000 HD
ENDROOT
BRANCH   6  16
ATOM     16  C   UNL     1       0.088  13.553  20.093  0.00  0.00    +0.000 C 
ATOM     17  C   UNL     1       0.941  14.040  21.277  0.00  0.00    +0.000 C 
ATOM     18  C   UNL     1       0.150  14.784  22.366  0.00  0.00    +0.000 C 
ATOM     19  N   UNL     1      -0.748  15.863  21.901  0.00  0.00    +0.000 NA
ATOM     20  C   UNL     1      -1.493  15.448  20.691  0.00  0.00    +0.000 C 
ATOM     21  C   UNL     1      -0.652  14.801  19.587  0.00  0.00    +0.000 C 
BRANCH  19  22
ATOM     22  C   UNL     1      -1.696  16.300  23.003  0.00  0.00    +0.000 C 
ATOM     23  C   UNL     1      -2.987  16.998  22.472  0.00  0.00    +0.000 C 
ATOM     24  C   UNL     1      -3.998  17.521  23.516  0.00  0.00    +0.000 C 
ATOM     25  C   UNL     1      -4.813  16.575  24.417  0.00  0.00    +0.000 C 
ATOM     26  C   UNL     1      -5.293  15.253  23.819  0.00  0.00    +0.000 C 
ATOM     27  C   UNL     1      -4.372  14.054  24.071  0.00  0.00    +0.000 C 
ATOM     28  C   UNL     1      -3.026  14.116  23.357  0.00  0.00    +0.000 C 
ATOM     29  C   UNL     1      -2.080  15.153  23.967  0.00  0.00    +0.000 C 
ENDBRANCH  19  22
ENDBRANCH   6  16
TORSDOF 2
ENDMDL
MODEL 9
REMARK VINA RESULT:      -7.2      8.751     10.668
REMARK  Name = 
REMARK  2 active torsions:
REMARK  status: ('A' for Active; 'I' for Inactive)
REMARK    1  A    between atoms: N_6  and  C_7
REMARK    2  A    between atoms: N_10  and  C_11
REMARK                            x       y       z     vdW  Elec       q    Type
REMARK                         _______ _______ _______ _____ _____    ______ ____
ROOT
ATOM      1  O   UNL     1      -4.948  12.285  21.983  0.00  0.00    +0.000 OA
ATOM      2  C   UNL     1      -3.829  12.589  21.552  0.00  0.00    +0.000 C 
ATOM      3  C   UNL     1      -2.729  12.922  22.514  0.00  0.00    +0.000 C 
ATOM      4  C   UNL     1      -1.290  12.658  22.167  0.00  0.00    +0.000 C 
ATOM      5  O   UNL     1      -0.517  12.183  22.999  0.00  0.00    +0.000 OA
ATOM      6  N   UNL     1      -0.822  13.073  20.925  0.00  0.00    +0.000 N 
ATOM      7  C   UNL     1      -1.291  12.247  19.870  0.00  0.00    +0.000 A 
ATOM      8  C   UNL     1      -0.361  11.369  19.299  0.00  0.00    +0.000 A 
ATOM      9  C   UNL     1      -0.737  10.497  18.273  0.00  0.00    +0.000 A 
ATOM     10  C   UNL     1      -2.035  10.523  17.774  0.00  0.00    +0.000 A 
ATOM     11  C   UNL     1      -2.962  11.371  18.377  0.00  0.00    +0.000 A 
ATOM     12  F   UNL     1      -4.235  11.330  17.957  0.00  0.00    +0.000 F 
ATOM     13  C   UNL     1      -2.625  12.172  19.475  0.00  0.00    +0.000 A 
ATOM     14  N   UNL     1      -3.702  12.722  20.199  0.00  0.00    +0.000 N 
ATOM     15  H   UNL     1      -4.609  12.527  19.771  0.00  0.00    +0.000 HD
ENDROOT
BRANCH   6  16
ATOM     16  C   UNL     1      -0.762  14.548  20.698  0.00  0.00    +0.000 C 
ATOM     17  C   UNL     1      -0.351  15.040  19.300  0.00  0.00    +0.000 C 
ATOM     18  C   UNL     1       1.126  14.796  18.950  0.00  0.00    +0.000 C 
ATOM     19  N   UNL     1       2.118  15.229  19.958  0.00  0.00    +0.000 NA
ATOM     20  C   UNL     1       1.679  14.862  21.323  0.00  0.00    +0.000 C 
ATOM     21  C   UNL     1       0.229  15.213  21.667  0.00  0.00    +0.000 C 
BRANCH  19  22
ATOM     22  C   UNL     1       3.492  14.659  19.655  0.00  0.00    +0.000 C 
ATOM     23  C   UNL     1       4.045  15.082  18.258  0.00  0.00    +0.000 C 
ATOM     24  C   UNL     1       5.420  14.518  17.833  0.00  0.00    +0.000 C 
ATOM     25  C   UNL     1       6.728  14.923  18.536  0.00  0.00    +0.000 C 
ATOM     26  C   UNL     1       6.865  16.366  19.019  0.00  0.00    +0.000 C 
ATOM     27  C   UNL     1       6.472  16.603  20.481  0.00  0.00    +0.000 C 
ATOM     28  C   UNL     1       4.986  16.434  20.783  0.00  0.00    +0.000 C 
ATOM     29  C   UNL     1       4.537  14.972  20.750  0.00  0.00    +0.000 C 
ENDBRANCH  19  22
ENDBRANCH   6  16
TORSDOF 2
ENDMDL
