MODEL 1
REMARK VINA RESULT:      -5.4      0.000      0.000
REMARK  Name = 
REMARK  7 active torsions:
REMARK  status: ('A' for Active; 'I' for Inactive)
REMARK    1  A    between atoms: C_1  and  C_2
REMARK    2  A    between atoms: C_2  and  C_3
REMARK    3  A    between atoms: C_3  and  S_4
REMARK    4  A    between atoms: S_4  and  C_5
REMARK    5  A    between atoms: C_5  and  C_6
REMARK    6  A    between atoms: N_8  and  C_9
REMARK    7  A    between atoms: C_9  and  C_10
REMARK                            x       y       z     vdW  Elec       q    Type
REMARK                         _______ _______ _______ _____ _____    ______ ____
ROOT
ATOM      1  C   UNL     1       5.048   4.121  19.116  0.00  0.00    +0.000 C 
ATOM      2  O   UNL     1       4.575   5.253  19.187  0.00  0.00    +0.000 OA
ATOM      3  N   UNL     1       6.131   3.808  18.327  0.00  0.00    +0.000 N 
ATOM      4  H   UNL     1       6.638   2.951  18.527  0.00  0.00    +0.000 HD
ENDROOT
BRANCH   1   5
ATOM      5  C   UNL     1       4.439   2.951  19.867  0.00  0.00    +0.000 C 
BRANCH   5   6
ATOM      6  S   UNL     1       3.194   2.079  18.867  0.00  0.00    +0.000 S 
BRANCH   6   7
ATOM      7  C   UNL     1       1.722   2.343  19.917  0.00  0.00    +0.000 C 
BRANCH   7   9
ATOM      8  C   UNL     1       1.450   3.967  18.002  0.00  0.00    +0.000 C 
ATOM      9  C   UNL     1       0.929   3.524  19.361  0.00  0.00    +0.000 C 
ENDBRANCH   7   9
ENDBRANCH   6   7
ENDBRANCH   5   6
ENDBRANCH   1   5
BRANCH   3  10
ATOM     10  C   UNL     1       6.866   4.853  17.652  0.00  0.00    +0.000 C 
BRANCH  10  11
ATOM     11  C   UNL     1       6.768   4.658  16.174  0.00  0.00    +0.000 A 
ATOM     12  C   UNL     1       5.911   3.787  15.524  0.00  0.00    +0.000 A 
ATOM     13  S   UNL     1       6.097   3.925  13.827  0.00  0.00    +0.000 S 
ATOM     14  C   UNL     1       7.306   5.111  14.078  0.00  0.00    +0.000 A 
ATOM     15  N   UNL     1       7.582   5.408  15.330  0.00  0.00    +0.000 NA
ENDBRANCH  10  11
ENDBRANCH   3  10
TORSDOF 6
ENDMDL
MODEL 2
REMARK VINA RESULT:      -5.3      0.826      1.255
REMARK  Name = 
REMARK  7 active torsions:
REMARK  status: ('A' for Active; 'I' for Inactive)
REMARK    1  A    between atoms: C_1  and  C_2
REMARK    2  A    between atoms: C_2  and  C_3
REMARK    3  A    between atoms: C_3  and  S_4
REMARK    4  A    between atoms: S_4  and  C_5
REMARK    5  A    between atoms: C_5  and  C_6
REMARK    6  A    between atoms: N_8  and  C_9
REMARK    7  A    between atoms: C_9  and  C_10
REMARK                            x       y       z     vdW  Elec       q    Type
REMARK                         _______ _______ _______ _____ _____    ______ ____
ROOT
ATOM      1  C   UNL     1       5.223   4.611  18.701  0.00  0.00    +0.000 C 
ATOM      2  O   UNL     1       4.868   5.752  18.414  0.00  0.00    +0.000 OA
ATOM      3  N   UNL     1       6.359   4.026  18.189  0.00  0.00    +0.000 N 
ATOM      4  H   UNL     1       6.742   3.219  18.673  0.00  0.00    +0.000 HD
ENDROOT
BRANCH   1   5
ATOM      5  C   UNL     1       4.402   3.726  19.622  0.00  0.00    +0.000 C 
BRANCH   5   6
ATOM      6  S   UNL     1       2.939   3.048  18.780  0.00  0.00    +0.000 S 
BRANCH   6   7
ATOM      7  C   UNL     1       1.727   4.359  19.174  0.00  0.00    +0.000 C 
BRANCH   7   9
ATOM      8  C   UNL     1       1.296   2.841  21.145  0.00  0.00    +0.000 C 
ATOM      9  C   UNL     1       1.385   4.280  20.660  0.00  0.00    +0.000 C 
ENDBRANCH   7   9
ENDBRANCH   6   7
ENDBRANCH   5   6
ENDBRANCH   1   5
BRANCH   3  10
ATOM     10  C   UNL     1       7.281   4.802  17.393  0.00  0.00    +0.000 C 
BRANCH  10  11
ATOM     11  C   UNL     1       6.976   4.607  15.943  0.00  0.00    +0.000 A 
ATOM     12  C   UNL     1       6.031   3.741  15.422  0.00  0.00    +0.000 A 
ATOM     13  S   UNL     1       5.979   3.876  13.715  0.00  0.00    +0.000 S 
ATOM     14  C   UNL     1       7.217   5.056  13.792  0.00  0.00    +0.000 A 
ATOM     15  N   UNL     1       7.667   5.352  14.993  0.00  0.00    +0.000 NA
ENDBRANCH  10  11
ENDBRANCH   3  10
TORSDOF 6
ENDMDL
MODEL 3
REMARK VINA RESULT:      -5.1      2.287      5.734
REMARK  Name = 
REMARK  7 active torsions:
REMARK  status: ('A' for Active; 'I' for Inactive)
REMARK    1  A    between atoms: C_1  and  C_2
REMARK    2  A    between atoms: C_2  and  C_3
REMARK    3  A    between atoms: C_3  and  S_4
REMARK    4  A    between atoms: S_4  and  C_5
REMARK    5  A    between atoms: C_5  and  C_6
REMARK    6  A    between atoms: N_8  and  C_9
REMARK    7  A    between atoms: C_9  and  C_10
REMARK                            x       y       z     vdW  Elec       q    Type
REMARK                         _______ _______ _______ _____ _____    ______ ____
ROOT
ATOM      1  C   UNL     1       7.050   4.932  16.105  0.00  0.00    +0.000 C 
ATOM      2  O   UNL     1       7.939   4.402  16.767  0.00  0.00    +0.000 OA
ATOM      3  N   UNL     1       5.913   5.469  16.666  0.00  0.00    +0.000 N 
ATOM      4  H   UNL     1       5.373   6.129  16.114  0.00  0.00    +0.000 HD
ENDROOT
BRANCH   1   5
ATOM      5  C   UNL     1       7.114   4.999  14.590  0.00  0.00    +0.000 C 
BRANCH   5   6
ATOM      6  S   UNL     1       5.695   4.163  13.815  0.00  0.00    +0.000 S 
BRANCH   6   7
ATOM      7  C   UNL     1       6.553   3.319  12.440  0.00  0.00    +0.000 C 
BRANCH   7   9
ATOM      8  C   UNL     1       4.174   3.293  11.594  0.00  0.00    +0.000 C 
ATOM      9  C   UNL     1       5.518   2.579  11.597  0.00  0.00    +0.000 C 
ENDBRANCH   7   9
ENDBRANCH   6   7
ENDBRANCH   5   6
ENDBRANCH   1   5
BRANCH   3  10
ATOM     10  C   UNL     1       5.787   5.567  18.102  0.00  0.00    +0.000 C 
BRANCH  10  11
ATOM     11  C   UNL     1       4.815   4.542  18.589  0.00  0.00    +0.000 A 
ATOM     12  C   UNL     1       3.448   4.552  18.374  0.00  0.00    +0.000 A 
ATOM     13  S   UNL     1       2.728   3.159  19.064  0.00  0.00    +0.000 S 
ATOM     14  C   UNL     1       4.272   2.656  19.607  0.00  0.00    +0.000 A 
ATOM     15  N   UNL     1       5.280   3.449  19.315  0.00  0.00    +0.000 NA
ENDBRANCH  10  11
ENDBRANCH   3  10
TORSDOF 6
ENDMDL
MODEL 4
REMARK VINA RESULT:      -5.0      1.533      1.839
REMARK  Name = 
REMARK  7 active torsions:
REMARK  status: ('A' for Active; 'I' for Inactive)
REMARK    1  A    between atoms: C_1  and  C_2
REMARK    2  A    between atoms: C_2  and  C_3
REMARK    3  A    between atoms: C_3  and  S_4
REMARK    4  A    between atoms: S_4  and  C_5
REMARK    5  A    between atoms: C_5  and  C_6
REMARK    6  A    between atoms: N_8  and  C_9
REMARK    7  A    between atoms: C_9  and  C_10
REMARK                            x       y       z     vdW  Elec       q    Type
REMARK                         _______ _______ _______ _____ _____    ______ ____
ROOT
ATOM      1  C   UNL     1       4.632   5.488  19.010  0.00  0.00    +0.000 C 
ATOM      2  O   UNL     1       5.589   5.202  19.727  0.00  0.00    +0.000 OA
ATOM      3  N   UNL     1       4.766   6.133  17.802  0.00  0.00    +0.000 N 
ATOM      4  H   UNL     1       3.994   6.081  17.144  0.00  0.00    +0.000 HD
ENDROOT
BRANCH   1   5
ATOM      5  C   UNL     1       3.204   5.189  19.426  0.00  0.00    +0.000 C 
BRANCH   5   6
ATOM      6  S   UNL     1       2.321   4.220  18.164  0.00  0.00    +0.000 S 
BRANCH   6   7
ATOM      7  C   UNL     1       1.106   3.367  19.230  0.00  0.00    +0.000 C 
BRANCH   7   9
ATOM      8  C   UNL     1       1.648   2.764  21.621  0.00  0.00    +0.000 C 
ATOM      9  C   UNL     1       1.264   3.879  20.660  0.00  0.00    +0.000 C 
ENDBRANCH   7   9
ENDBRANCH   6   7
ENDBRANCH   5   6
ENDBRANCH   1   5
BRANCH   3  10
ATOM     10  C   UNL     1       6.078   6.370  17.245  0.00  0.00    +0.000 C 
BRANCH  10  11
ATOM     11  C   UNL     1       6.251   5.547  16.009  0.00  0.00    +0.000 A 
ATOM     12  C   UNL     1       5.351   4.618  15.518  0.00  0.00    +0.000 A 
ATOM     13  S   UNL     1       5.928   3.947  14.051  0.00  0.00    +0.000 S 
ATOM     14  C   UNL     1       7.330   4.922  14.183  0.00  0.00    +0.000 A 
ATOM     15  N   UNL     1       7.400   5.705  15.239  0.00  0.00    +0.000 NA
ENDBRANCH  10  11
ENDBRANCH   3  10
TORSDOF 6
ENDMDL
MODEL 5
REMARK VINA RESULT:      -5.0      1.264      1.350
REMARK  Name = 
REMARK  7 active torsions:
REMARK  status: ('A' for Active; 'I' for Inactive)
REMARK    1  A    between atoms: C_1  and  C_2
REMARK    2  A    between atoms: C_2  and  C_3
REMARK    3  A    between atoms: C_3  and  S_4
REMARK    4  A    between atoms: S_4  and  C_5
REMARK    5  A    between atoms: C_5  and  C_6
REMARK    6  A    between atoms: N_8  and  C_9
REMARK    7  A    between atoms: C_9  and  C_10
REMARK                            x       y       z     vdW  Elec       q    Type
REMARK                         _______ _______ _______ _____ _____    ______ ____
ROOT
ATOM      1  C   UNL     1       5.734   4.857  19.015  0.00  0.00    +0.000 C 
ATOM      2  O   UNL     1       6.680   5.192  19.724  0.00  0.00    +0.000 OA
ATOM      3  N   UNL     1       5.763   4.927  17.641  0.00  0.00    +0.000 N 
ATOM      4  H   UNL     1       5.085   4.381  17.120  0.00  0.00    +0.000 HD
ENDROOT
BRANCH   1   5
ATOM      5  C   UNL     1       4.423   4.373  19.608  0.00  0.00    +0.000 C 
BRANCH   5   6
ATOM      6  S   UNL     1       3.329   3.664  18.339  0.00  0.00    +0.000 S 
BRANCH   6   7
ATOM      7  C   UNL     1       2.644   2.255  19.281  0.00  0.00    +0.000 C 
BRANCH   7   9
ATOM      8  C   UNL     1       0.896   3.761  20.308  0.00  0.00    +0.000 C 
ATOM      9  C   UNL     1       2.031   2.783  20.576  0.00  0.00    +0.000 C 
ENDBRANCH   7   9
ENDBRANCH   6   7
ENDBRANCH   5   6
ENDBRANCH   1   5
BRANCH   3  10
ATOM     10  C   UNL     1       6.990   5.264  16.956  0.00  0.00    +0.000 C 
BRANCH  10  11
ATOM     11  C   UNL     1       6.893   4.845  15.525  0.00  0.00    +0.000 A 
ATOM     12  C   UNL     1       6.015   3.908  15.010  0.00  0.00    +0.000 A 
ATOM     13  S   UNL     1       6.212   3.776  13.313  0.00  0.00    +0.000 S 
ATOM     14  C   UNL     1       7.452   4.954  13.388  0.00  0.00    +0.000 A 
ATOM     15  N   UNL     1       7.730   5.434  14.582  0.00  0.00    +0.000 NA
ENDBRANCH  10  11
ENDBRANCH   3  10
TORSDOF 6
ENDMDL
MODEL 6
REMARK VINA RESULT:      -5.0      2.036      5.663
REMARK  Name = 
REMARK  7 active torsions:
REMARK  status: ('A' for Active; 'I' for Inactive)
REMARK    1  A    between atoms: C_1  and  C_2
REMARK    2  A    between atoms: C_2  and  C_3
REMARK    3  A    between atoms: C_3  and  S_4
REMARK    4  A    between atoms: S_4  and  C_5
REMARK    5  A    between atoms: C_5  and  C_6
REMARK    6  A    between atoms: N_8  and  C_9
REMARK    7  A    between atoms: C_9  and  C_10
REMARK                            x       y       z     vdW  Elec       q    Type
REMARK                         _______ _______ _______ _____ _____    ______ ____
ROOT
ATOM      1  C   UNL     1       5.166   4.674  18.977  0.00  0.00    +0.000 C 
ATOM      2  O   UNL     1       4.661   5.289  19.914  0.00  0.00    +0.000 OA
ATOM      3  N   UNL     1       5.247   3.300  18.938  0.00  0.00    +0.000 N 
ATOM      4  H   UNL     1       5.406   2.856  18.038  0.00  0.00    +0.000 HD
ENDROOT
BRANCH   1   5
ATOM      5  C   UNL     1       5.790   5.390  17.794  0.00  0.00    +0.000 C 
BRANCH   5   6
ATOM      6  S   UNL     1       7.413   4.693  17.360  0.00  0.00    +0.000 S 
BRANCH   6   7
ATOM      7  C   UNL     1       7.242   4.632  15.541  0.00  0.00    +0.000 C 
BRANCH   7   9
ATOM      8  C   UNL     1       5.647   3.966  13.700  0.00  0.00    +0.000 C 
ATOM      9  C   UNL     1       5.928   3.935  15.196  0.00  0.00    +0.000 C 
ENDBRANCH   7   9
ENDBRANCH   6   7
ENDBRANCH   5   6
ENDBRANCH   1   5
BRANCH   3  10
ATOM     10  C   UNL     1       4.592   2.503  19.948  0.00  0.00    +0.000 C 
BRANCH  10  11
ATOM     11  C   UNL     1       3.111   2.568  19.752  0.00  0.00    +0.000 A 
ATOM     12  C   UNL     1       2.425   2.174  18.617  0.00  0.00    +0.000 A 
ATOM     13  S   UNL     1       0.738   2.372  18.843  0.00  0.00    +0.000 S 
ATOM     14  C   UNL     1       1.043   2.977  20.416  0.00  0.00    +0.000 A 
ATOM     15  N   UNL     1       2.305   3.045  20.781  0.00  0.00    +0.000 NA
ENDBRANCH  10  11
ENDBRANCH   3  10
TORSDOF 6
ENDMDL
MODEL 7
REMARK VINA RESULT:      -5.0      1.238      1.338
REMARK  Name = 
REMARK  7 active torsions:
REMARK  status: ('A' for Active; 'I' for Inactive)
REMARK    1  A    between atoms: C_1  and  C_2
REMARK    2  A    between atoms: C_2  and  C_3
REMARK    3  A    between atoms: C_3  and  S_4
REMARK    4  A    between atoms: S_4  and  C_5
REMARK    5  A    between atoms: C_5  and  C_6
REMARK    6  A    between atoms: N_8  and  C_9
REMARK    7  A    between atoms: C_9  and  C_10
REMARK                            x       y       z     vdW  Elec       q    Type
REMARK                         _______ _______ _______ _____ _____    ______ ____
ROOT
ATOM      1  C   UNL     1       4.024   3.894  18.006  0.00  0.00    +0.000 C 
ATOM      2  O   UNL     1       3.533   4.966  17.661  0.00  0.00    +0.000 OA
ATOM      3  N   UNL     1       5.360   3.599  17.860  0.00  0.00    +0.000 N 
ATOM      4  H   UNL     1       5.745   2.838  18.412  0.00  0.00    +0.000 HD
ENDROOT
BRANCH   1   5
ATOM      5  C   UNL     1       3.177   2.778  18.590  0.00  0.00    +0.000 C 
BRANCH   5   6
ATOM      6  S   UNL     1       3.315   2.702  20.402  0.00  0.00    +0.000 S 
BRANCH   6   7
ATOM      7  C   UNL     1       1.544   2.782  20.846  0.00  0.00    +0.000 C 
BRANCH   7   9
ATOM      8  C   UNL     1       1.708   5.298  20.704  0.00  0.00    +0.000 C 
ATOM      9  C   UNL     1       0.948   4.058  20.256  0.00  0.00    +0.000 C 
ENDBRANCH   7   9
ENDBRANCH   6   7
ENDBRANCH   5   6
ENDBRANCH   1   5
BRANCH   3  10
ATOM     10  C   UNL     1       6.287   4.617  17.423  0.00  0.00    +0.000 C 
BRANCH  10  11
ATOM     11  C   UNL     1       6.481   4.514  15.944  0.00  0.00    +0.000 A 
ATOM     12  C   UNL     1       5.836   3.626  15.101  0.00  0.00    +0.000 A 
ATOM     13  S   UNL     1       6.319   3.890  13.478  0.00  0.00    +0.000 S 
ATOM     14  C   UNL     1       7.354   5.145  14.014  0.00  0.00    +0.000 A 
ATOM     15  N   UNL     1       7.367   5.378  15.309  0.00  0.00    +0.000 NA
ENDBRANCH  10  11
ENDBRANCH   3  10
TORSDOF 6
ENDMDL
MODEL 8
REMARK VINA RESULT:      -4.9      1.485      1.655
REMARK  Name = 
REMARK  7 active torsions:
REMARK  status: ('A' for Active; 'I' for Inactive)
REMARK    1  A    between atoms: C_1  and  C_2
REMARK    2  A    between atoms: C_2  and  C_3
REMARK    3  A    between atoms: C_3  and  S_4
REMARK    4  A    between atoms: S_4  and  C_5
REMARK    5  A    between atoms: C_5  and  C_6
REMARK    6  A    between atoms: N_8  and  C_9
REMARK    7  A    between atoms: C_9  and  C_10
REMARK                            x       y       z     vdW  Elec       q    Type
REMARK                         _______ _______ _______ _____ _____    ______ ____
ROOT
ATOM      1  C   UNL     1       4.897   4.974  18.290  0.00  0.00    +0.000 C 
ATOM      2  O   UNL     1       4.895   3.767  18.521  0.00  0.00    +0.000 OA
ATOM      3  N   UNL     1       5.966   5.628  17.719  0.00  0.00    +0.000 N 
ATOM      4  H   UNL     1       5.801   6.538  17.301  0.00  0.00    +0.000 HD
ENDROOT
BRANCH   1   5
ATOM      5  C   UNL     1       3.724   5.862  18.663  0.00  0.00    +0.000 C 
BRANCH   5   6
ATOM      6  S   UNL     1       2.134   5.004  18.452  0.00  0.00    +0.000 S 
BRANCH   6   7
ATOM      7  C   UNL     1       1.772   4.600  20.197  0.00  0.00    +0.000 C 
BRANCH   7   9
ATOM      8  C   UNL     1       1.061   2.559  18.889  0.00  0.00    +0.000 C 
ATOM      9  C   UNL     1       1.092   3.233  20.253  0.00  0.00    +0.000 C 
ENDBRANCH   7   9
ENDBRANCH   6   7
ENDBRANCH   5   6
ENDBRANCH   1   5
BRANCH   3  10
ATOM     10  C   UNL     1       7.094   4.877  17.218  0.00  0.00    +0.000 C 
BRANCH  10  11
ATOM     11  C   UNL     1       6.921   4.636  15.753  0.00  0.00    +0.000 A 
ATOM     12  C   UNL     1       6.022   3.758  15.175  0.00  0.00    +0.000 A 
ATOM     13  S   UNL     1       6.127   3.838  13.466  0.00  0.00    +0.000 S 
ATOM     14  C   UNL     1       7.362   5.014  13.620  0.00  0.00    +0.000 A 
ATOM     15  N   UNL     1       7.702   5.347  14.846  0.00  0.00    +0.000 NA
ENDBRANCH  10  11
ENDBRANCH   3  10
TORSDOF 6
ENDMDL
MODEL 9
REMARK VINA RESULT:      -4.9      2.342      6.026
REMARK  Name = 
REMARK  7 active torsions:
REMARK  status: ('A' for Active; 'I' for Inactive)
REMARK    1  A    between atoms: C_1  and  C_2
REMARK    2  A    between atoms: C_2  and  C_3
REMARK    3  A    between atoms: C_3  and  S_4
REMARK    4  A    between atoms: S_4  and  C_5
REMARK    5  A    between atoms: C_5  and  C_6
REMARK    6  A    between atoms: N_8  and  C_9
REMARK    7  A    between atoms: C_9  and  C_10
REMARK                            x       y       z     vdW  Elec       q    Type
REMARK                         _______ _______ _______ _____ _____    ______ ____
ROOT
ATOM      1  C   UNL     1       4.150   5.435  17.311  0.00  0.00    +0.000 C 
ATOM      2  O   UNL     1       3.252   6.201  17.655  0.00  0.00    +0.000 OA
ATOM      3  N   UNL     1       3.980   4.072  17.217  0.00  0.00    +0.000 N 
ATOM      4  H   UNL     1       4.650   3.544  16.667  0.00  0.00    +0.000 HD
ENDROOT
BRANCH   1   5
ATOM      5  C   UNL     1       5.550   5.933  17.002  0.00  0.00    +0.000 C 
BRANCH   5   6
ATOM      6  S   UNL     1       6.700   4.560  16.679  0.00  0.00    +0.000 S 
BRANCH   6   7
ATOM      7  C   UNL     1       6.967   4.802  14.888  0.00  0.00    +0.000 C 
BRANCH   7   9
ATOM      8  C   UNL     1       6.314   3.665  12.730  0.00  0.00    +0.000 C 
ATOM      9  C   UNL     1       5.863   4.075  14.124  0.00  0.00    +0.000 C 
ENDBRANCH   7   9
ENDBRANCH   6   7
ENDBRANCH   5   6
ENDBRANCH   1   5
BRANCH   3  10
ATOM     10  C   UNL     1       2.668   3.490  17.376  0.00  0.00    +0.000 C 
BRANCH  10  11
ATOM     11  C   UNL     1       2.356   3.353  18.831  0.00  0.00    +0.000 A 
ATOM     12  C   UNL     1       3.129   2.692  19.769  0.00  0.00    +0.000 A 
ATOM     13  S   UNL     1       2.422   2.828  21.325  0.00  0.00    +0.000 S 
ATOM     14  C   UNL     1       1.142   3.735  20.639  0.00  0.00    +0.000 A 
ATOM     15  N   UNL     1       1.201   3.940  19.341  0.00  0.00    +0.000 NA
ENDBRANCH  10  11
ENDBRANCH   3  10
TORSDOF 6
ENDMDL
