MODEL 1
REMARK VINA RESULT:      -7.2      0.000      0.000
REMARK  Name = 
REMARK  9 active torsions:
REMARK  status: ('A' for Active; 'I' for Inactive)
REMARK    1  A    between atoms: C_2  and  C_3
REMARK    2  A    between atoms: C_3  and  O_4
REMARK    3  A    between atoms: O_4  and  C_5
REMARK    4  A    between atoms: C_5  and  C_7
REMARK    5  A    between atoms: C_7  and  N_8
REMARK    6  A    between atoms: C_9  and  C_11
REMARK    7  A    between atoms: C_15  and  N_16
REMARK    8  A    between atoms: N_20  and  C_21
REMARK    9  A    between atoms: C_21  and  C_22
REMARK                            x       y       z     vdW  Elec       q    Type
REMARK                         _______ _______ _______ _____ _____    ______ ____
ROOT
ATOM      1  C   UNL     1       2.535   2.257  20.702  0.00  0.00    +0.000 C 
ATOM      2  O   UNL     1       3.342   2.219  21.625  0.00  0.00    +0.000 OA
ENDROOT
BRANCH   1   3
ATOM      3  O   UNL     1       1.255   2.700  20.810  0.00  0.00    +0.000 OA
BRANCH   3   4
ATOM      4  C   UNL     1       0.904   3.797  19.968  0.00  0.00    +0.000 C 
BRANCH   4   6
ATOM      5  O   UNL     1       2.166   5.303  21.373  0.00  0.00    +0.000 OA
ATOM      6  C   UNL     1       1.791   5.009  20.242  0.00  0.00    +0.000 C 
ATOM      7  N   UNL     1       2.141   5.718  19.119  0.00  0.00    +0.000 N 
ATOM      8  H   UNL     1       1.858   5.380  18.204  0.00  0.00    +0.000 HD
BRANCH   7   9
ATOM      9  C   UNL     1       2.974   6.897  19.176  0.00  0.00    +0.000 C 
BRANCH   9  10
ATOM     10  C   UNL     1       2.128   8.083  18.902  0.00  0.00    +0.000 A 
ATOM     11  C   UNL     1       1.887   8.833  17.770  0.00  0.00    +0.000 A 
ATOM     12  C   UNL     1       0.977   9.848  18.149  0.00  0.00    +0.000 A 
ATOM     13  C   UNL     1       0.720   9.653  19.486  0.00  0.00    +0.000 A 
ATOM     14  O   UNL     1       1.415   8.584  19.953  0.00  0.00    +0.000 OA
ENDBRANCH   9  10
ENDBRANCH   7   9
ENDBRANCH   4   6
ENDBRANCH   3   4
ENDBRANCH   1   3
BRANCH   1  15
ATOM     15  C   UNL     1       2.866   1.889  19.261  0.00  0.00    +0.000 C 
BRANCH  15  16
ATOM     16  N   UNL     1       4.039   2.589  18.758  0.00  0.00    +0.000 N 
ATOM     17  C   UNL     1       3.926   3.373  17.630  0.00  0.00    +0.000 C 
ATOM     18  O   UNL     1       2.871   3.526  17.025  0.00  0.00    +0.000 OA
ATOM     19  H   UNL     1       4.850   2.662  19.358  0.00  0.00    +0.000 HD
BRANCH  17  20
ATOM     20  C   UNL     1       5.146   4.074  17.150  0.00  0.00    +0.000 A 
ATOM     21  C   UNL     1       5.836   4.883  18.063  0.00  0.00    +0.000 A 
ATOM     22  C   UNL     1       6.939   5.638  17.657  0.00  0.00    +0.000 A 
ATOM     23  C   UNL     1       7.354   5.602  16.327  0.00  0.00    +0.000 A 
ATOM     24  C   UNL     1       6.659   4.800  15.410  0.00  0.00    +0.000 A 
ATOM     25  C   UNL     1       5.556   4.027  15.811  0.00  0.00    +0.000 A 
BRANCH  24  26
ATOM     26  N   UNL     1       7.079   4.791  14.002  0.00  0.00    +0.000 N 
ATOM     27  O   UNL     1       7.927   5.621  13.645  0.00  0.00    +0.000 OA
ATOM     28  O   UNL     1       6.559   3.950  13.255  0.00  0.00    +0.000 OA
ENDBRANCH  24  26
ENDBRANCH  17  20
ENDBRANCH  15  16
ENDBRANCH   1  15
TORSDOF 9
ENDMDL
MODEL 2
REMARK VINA RESULT:      -7.2      2.171      3.086
REMARK  Name = 
REMARK  9 active torsions:
REMARK  status: ('A' for Active; 'I' for Inactive)
REMARK    1  A    between atoms: C_2  and  C_3
REMARK    2  A    between atoms: C_3  and  O_4
REMARK    3  A    between atoms: O_4  and  C_5
REMARK    4  A    between atoms: C_5  and  C_7
REMARK    5  A    between atoms: C_7  and  N_8
REMARK    6  A    between atoms: C_9  and  C_11
REMARK    7  A    between atoms: C_15  and  N_16
REMARK    8  A    between atoms: N_20  and  C_21
REMARK    9  A    between atoms: C_21  and  C_22
REMARK                            x       y       z     vdW  Elec       q    Type
REMARK                         _______ _______ _______ _____ _____    ______ ____
ROOT
ATOM      1  C   UNL     1       4.118   3.097  18.720  0.00  0.00    +0.000 C 
ATOM      2  O   UNL     1       3.533   2.295  18.000  0.00  0.00    +0.000 OA
ENDROOT
BRANCH   1   3
ATOM      3  O   UNL     1       3.992   3.159  20.071  0.00  0.00    +0.000 OA
BRANCH   3   4
ATOM      4  C   UNL     1       2.682   2.919  20.586  0.00  0.00    +0.000 C 
BRANCH   4   6
ATOM      5  O   UNL     1       0.663   4.104  19.995  0.00  0.00    +0.000 OA
ATOM      6  C   UNL     1       1.801   4.157  20.452  0.00  0.00    +0.000 C 
ATOM      7  N   UNL     1       2.383   5.317  20.903  0.00  0.00    +0.000 N 
ATOM      8  H   UNL     1       3.300   5.281  21.339  0.00  0.00    +0.000 HD
BRANCH   7   9
ATOM      9  C   UNL     1       1.706   6.593  20.857  0.00  0.00    +0.000 C 
BRANCH   9  10
ATOM     10  C   UNL     1       2.094   7.285  19.605  0.00  0.00    +0.000 A 
ATOM     11  C   UNL     1       2.939   6.957  18.565  0.00  0.00    +0.000 A 
ATOM     12  C   UNL     1       2.890   8.039  17.654  0.00  0.00    +0.000 A 
ATOM     13  C   UNL     1       2.019   8.956  18.194  0.00  0.00    +0.000 A 
ATOM     14  O   UNL     1       1.531   8.507  19.380  0.00  0.00    +0.000 OA
ENDBRANCH   9  10
ENDBRANCH   7   9
ENDBRANCH   4   6
ENDBRANCH   3   4
ENDBRANCH   1   3
BRANCH   1  15
ATOM     15  C   UNL     1       5.150   4.102  18.220  0.00  0.00    +0.000 C 
BRANCH  15  16
ATOM     16  N   UNL     1       5.620   3.801  16.875  0.00  0.00    +0.000 N 
ATOM     17  C   UNL     1       5.648   4.803  15.930  0.00  0.00    +0.000 C 
ATOM     18  O   UNL     1       5.305   5.956  16.167  0.00  0.00    +0.000 OA
ATOM     19  H   UNL     1       6.115   2.932  16.722  0.00  0.00    +0.000 HD
BRANCH  17  20
ATOM     20  C   UNL     1       6.137   4.457  14.569  0.00  0.00    +0.000 A 
ATOM     21  C   UNL     1       7.292   5.103  14.109  0.00  0.00    +0.000 A 
ATOM     22  C   UNL     1       7.758   4.890  12.808  0.00  0.00    +0.000 A 
ATOM     23  C   UNL     1       7.062   4.040  11.951  0.00  0.00    +0.000 A 
ATOM     24  C   UNL     1       5.901   3.400  12.409  0.00  0.00    +0.000 A 
ATOM     25  C   UNL     1       5.431   3.597  13.718  0.00  0.00    +0.000 A 
BRANCH  24  26
ATOM     26  N   UNL     1       5.152   2.532  11.491  0.00  0.00    +0.000 N 
ATOM     27  O   UNL     1       4.053   2.930  11.081  0.00  0.00    +0.000 OA
ATOM     28  O   UNL     1       5.668   1.449  11.179  0.00  0.00    +0.000 OA
ENDBRANCH  24  26
ENDBRANCH  17  20
ENDBRANCH  15  16
ENDBRANCH   1  15
TORSDOF 9
ENDMDL
MODEL 3
REMARK VINA RESULT:      -7.2      2.015      2.497
REMARK  Name = 
REMARK  9 active torsions:
REMARK  status: ('A' for Active; 'I' for Inactive)
REMARK    1  A    between atoms: C_2  and  C_3
REMARK    2  A    between atoms: C_3  and  O_4
REMARK    3  A    between atoms: O_4  and  C_5
REMARK    4  A    between atoms: C_5  and  C_7
REMARK    5  A    between atoms: C_7  and  N_8
REMARK    6  A    between atoms: C_9  and  C_11
REMARK    7  A    between atoms: C_15  and  N_16
REMARK    8  A    between atoms: N_20  and  C_21
REMARK    9  A    between atoms: C_21  and  C_22
REMARK                            x       y       z     vdW  Elec       q    Type
REMARK                         _______ _______ _______ _____ _____    ______ ____
ROOT
ATOM      1  C   UNL     1       2.407   3.088  21.123  0.00  0.00    +0.000 C 
ATOM      2  O   UNL     1       2.229   2.380  22.108  0.00  0.00    +0.000 OA
ENDROOT
BRANCH   1   3
ATOM      3  O   UNL     1       2.578   4.436  21.160  0.00  0.00    +0.000 OA
BRANCH   3   4
ATOM      4  C   UNL     1       1.472   5.216  20.706  0.00  0.00    +0.000 C 
BRANCH   4   6
ATOM      5  O   UNL     1       2.722   6.899  19.506  0.00  0.00    +0.000 OA
ATOM      6  C   UNL     1       1.900   6.644  20.383  0.00  0.00    +0.000 C 
ATOM      7  N   UNL     1       1.277   7.607  21.138  0.00  0.00    +0.000 N 
ATOM      8  H   UNL     1       0.552   7.336  21.797  0.00  0.00    +0.000 HD
BRANCH   7   9
ATOM      9  C   UNL     1       1.552   9.016  20.979  0.00  0.00    +0.000 C 
BRANCH   9  10
ATOM     10  C   UNL     1       0.662   9.552  19.923  0.00  0.00    +0.000 A 
ATOM     11  C   UNL     1       0.789   9.685  18.555  0.00  0.00    +0.000 A 
ATOM     12  C   UNL     1      -0.412  10.277  18.098  0.00  0.00    +0.000 A 
ATOM     13  C   UNL     1      -1.195  10.466  19.213  0.00  0.00    +0.000 A 
ATOM     14  O   UNL     1      -0.551  10.030  20.326  0.00  0.00    +0.000 OA
ENDBRANCH   9  10
ENDBRANCH   7   9
ENDBRANCH   4   6
ENDBRANCH   3   4
ENDBRANCH   1   3
BRANCH   1  15
ATOM     15  C   UNL     1       2.548   2.558  19.701  0.00  0.00    +0.000 C 
BRANCH  15  16
ATOM     16  N   UNL     1       3.707   3.106  19.011  0.00  0.00    +0.000 N 
ATOM     17  C   UNL     1       3.522   3.881  17.888  0.00  0.00    +0.000 C 
ATOM     18  O   UNL     1       2.414   4.151  17.438  0.00  0.00    +0.000 OA
ATOM     19  H   UNL     1       4.601   3.089  19.485  0.00  0.00    +0.000 HD
BRANCH  17  20
ATOM     20  C   UNL     1       4.730   4.424  17.213  0.00  0.00    +0.000 A 
ATOM     21  C   UNL     1       5.163   3.788  16.041  0.00  0.00    +0.000 A 
ATOM     22  C   UNL     1       6.339   4.191  15.404  0.00  0.00    +0.000 A 
ATOM     23  C   UNL     1       7.102   5.226  15.943  0.00  0.00    +0.000 A 
ATOM     24  C   UNL     1       6.674   5.857  17.120  0.00  0.00    +0.000 A 
ATOM     25  C   UNL     1       5.486   5.468  17.762  0.00  0.00    +0.000 A 
BRANCH  24  26
ATOM     26  N   UNL     1       7.499   6.924  17.702  0.00  0.00    +0.000 N 
ATOM     27  O   UNL     1       8.095   6.684  18.761  0.00  0.00    +0.000 OA
ATOM     28  O   UNL     1       7.550   8.003  17.095  0.00  0.00    +0.000 OA
ENDBRANCH  24  26
ENDBRANCH  17  20
ENDBRANCH  15  16
ENDBRANCH   1  15
TORSDOF 9
ENDMDL
MODEL 4
REMARK VINA RESULT:      -7.1      5.316      7.651
REMARK  Name = 
REMARK  9 active torsions:
REMARK  status: ('A' for Active; 'I' for Inactive)
REMARK    1  A    between atoms: C_2  and  C_3
REMARK    2  A    between atoms: C_3  and  O_4
REMARK    3  A    between atoms: O_4  and  C_5
REMARK    4  A    between atoms: C_5  and  C_7
REMARK    5  A    between atoms: C_7  and  N_8
REMARK    6  A    between atoms: C_9  and  C_11
REMARK    7  A    between atoms: C_15  and  N_16
REMARK    8  A    between atoms: N_20  and  C_21
REMARK    9  A    between atoms: C_21  and  C_22
REMARK                            x       y       z     vdW  Elec       q    Type
REMARK                         _______ _______ _______ _____ _____    ______ ____
ROOT
ATOM      1  C   UNL     1       7.811   5.666  19.033  0.00  0.00    +0.000 C 
ATOM      2  O   UNL     1       7.972   5.622  20.247  0.00  0.00    +0.000 OA
ENDROOT
BRANCH   1   3
ATOM      3  O   UNL     1       7.484   4.599  18.256  0.00  0.00    +0.000 OA
BRANCH   3   4
ATOM      4  C   UNL     1       6.124   4.535  17.827  0.00  0.00    +0.000 C 
BRANCH   4   6
ATOM      5  O   UNL     1       4.578   5.086  19.599  0.00  0.00    +0.000 OA
ATOM      6  C   UNL     1       5.193   4.213  18.992  0.00  0.00    +0.000 C 
ATOM      7  N   UNL     1       5.092   2.874  19.283  0.00  0.00    +0.000 N 
ATOM      8  H   UNL     1       5.569   2.196  18.695  0.00  0.00    +0.000 HD
BRANCH   7   9
ATOM      9  C   UNL     1       4.260   2.374  20.353  0.00  0.00    +0.000 C 
BRANCH   9  10
ATOM     10  C   UNL     1       2.841   2.565  19.973  0.00  0.00    +0.000 A 
ATOM     11  C   UNL     1       1.769   3.176  20.591  0.00  0.00    +0.000 A 
ATOM     12  C   UNL     1       0.666   3.025  19.718  0.00  0.00    +0.000 A 
ATOM     13  C   UNL     1       1.132   2.333  18.625  0.00  0.00    +0.000 A 
ATOM     14  O   UNL     1       2.452   2.049  18.771  0.00  0.00    +0.000 OA
ENDBRANCH   9  10
ENDBRANCH   7   9
ENDBRANCH   4   6
ENDBRANCH   3   4
ENDBRANCH   1   3
BRANCH   1  15
ATOM     15  C   UNL     1       7.868   6.945  18.207  0.00  0.00    +0.000 C 
BRANCH  15  16
ATOM     16  N   UNL     1       8.604   8.011  18.874  0.00  0.00    +0.000 N 
ATOM     17  C   UNL     1       8.494   9.303  18.408  0.00  0.00    +0.000 C 
ATOM     18  O   UNL     1       7.787   9.611  17.455  0.00  0.00    +0.000 OA
ATOM     19  H   UNL     1       9.003   7.823  19.784  0.00  0.00    +0.000 HD
BRANCH  17  20
ATOM     20  C   UNL     1       9.258  10.362  19.117  0.00  0.00    +0.000 A 
ATOM     21  C   UNL     1      10.518  10.707  18.609  0.00  0.00    +0.000 A 
ATOM     22  C   UNL     1      11.327  11.632  19.274  0.00  0.00    +0.000 A 
ATOM     23  C   UNL     1      10.888  12.209  20.465  0.00  0.00    +0.000 A 
ATOM     24  C   UNL     1       9.630  11.859  20.978  0.00  0.00    +0.000 A 
ATOM     25  C   UNL     1       8.804  10.939  20.310  0.00  0.00    +0.000 A 
BRANCH  24  26
ATOM     26  N   UNL     1       9.186  12.444  22.250  0.00  0.00    +0.000 N 
ATOM     27  O   UNL     1       8.549  11.723  23.029  0.00  0.00    +0.000 OA
ATOM     28  O   UNL     1       9.480  13.629  22.468  0.00  0.00    +0.000 OA
ENDBRANCH  24  26
ENDBRANCH  17  20
ENDBRANCH  15  16
ENDBRANCH   1  15
TORSDOF 9
ENDMDL
MODEL 5
REMARK VINA RESULT:      -7.1      2.277      7.352
REMARK  Name = 
REMARK  9 active torsions:
REMARK  status: ('A' for Active; 'I' for Inactive)
REMARK    1  A    between atoms: C_2  and  C_3
REMARK    2  A    between atoms: C_3  and  O_4
REMARK    3  A    between atoms: O_4  and  C_5
REMARK    4  A    between atoms: C_5  and  C_7
REMARK    5  A    between atoms: C_7  and  N_8
REMARK    6  A    between atoms: C_9  and  C_11
REMARK    7  A    between atoms: C_15  and  N_16
REMARK    8  A    between atoms: N_20  and  C_21
REMARK    9  A    between atoms: C_21  and  C_22
REMARK                            x       y       z     vdW  Elec       q    Type
REMARK                         _______ _______ _______ _____ _____    ______ ____
ROOT
ATOM      1  C   UNL     1       1.906   3.270  20.092  0.00  0.00    +0.000 C 
ATOM      2  O   UNL     1       0.730   3.264  19.747  0.00  0.00    +0.000 OA
ENDROOT
BRANCH   1   3
ATOM      3  O   UNL     1       2.862   2.441  19.596  0.00  0.00    +0.000 OA
BRANCH   3   4
ATOM      4  C   UNL     1       3.275   2.698  18.254  0.00  0.00    +0.000 C 
BRANCH   4   6
ATOM      5  O   UNL     1       5.311   3.557  19.230  0.00  0.00    +0.000 OA
ATOM      6  C   UNL     1       4.635   3.388  18.218  0.00  0.00    +0.000 C 
ATOM      7  N   UNL     1       5.038   3.781  16.965  0.00  0.00    +0.000 N 
ATOM      8  H   UNL     1       4.466   3.546  16.158  0.00  0.00    +0.000 HD
BRANCH   7   9
ATOM      9  C   UNL     1       6.295   4.452  16.729  0.00  0.00    +0.000 C 
BRANCH   9  10
ATOM     10  C   UNL     1       6.562   4.450  15.272  0.00  0.00    +0.000 A 
ATOM     11  C   UNL     1       6.014   3.759  14.210  0.00  0.00    +0.000 A 
ATOM     12  C   UNL     1       6.702   4.196  13.053  0.00  0.00    +0.000 A 
ATOM     13  C   UNL     1       7.623   5.123  13.480  0.00  0.00    +0.000 A 
ATOM     14  O   UNL     1       7.546   5.284  14.826  0.00  0.00    +0.000 OA
ENDBRANCH   9  10
ENDBRANCH   7   9
ENDBRANCH   4   6
ENDBRANCH   3   4
ENDBRANCH   1   3
BRANCH   1  15
ATOM     15  C   UNL     1       2.505   4.269  21.074  0.00  0.00    +0.000 C 
BRANCH  15  16
ATOM     16  N   UNL     1       1.866   5.576  21.006  0.00  0.00    +0.000 N 
ATOM     17  C   UNL     1       2.347   6.519  20.124  0.00  0.00    +0.000 C 
ATOM     18  O   UNL     1       3.292   6.309  19.371  0.00  0.00    +0.000 OA
ATOM     19  H   UNL     1       0.961   5.692  21.442  0.00  0.00    +0.000 HD
BRANCH  17  20
ATOM     20  C   UNL     1       1.667   7.839  20.082  0.00  0.00    +0.000 A 
ATOM     21  C   UNL     1       1.764   8.586  18.900  0.00  0.00    +0.000 A 
ATOM     22  C   UNL     1       1.222   9.871  18.821  0.00  0.00    +0.000 A 
ATOM     23  C   UNL     1       0.589  10.428  19.931  0.00  0.00    +0.000 A 
ATOM     24  C   UNL     1       0.498   9.685  21.117  0.00  0.00    +0.000 A 
ATOM     25  C   UNL     1       1.029   8.387  21.203  0.00  0.00    +0.000 A 
BRANCH  24  26
ATOM     26  N   UNL     1      -0.139  10.289  22.295  0.00  0.00    +0.000 N 
ATOM     27  O   UNL     1      -1.078  11.075  22.107  0.00  0.00    +0.000 OA
ATOM     28  O   UNL     1       0.301   9.971  23.409  0.00  0.00    +0.000 OA
ENDBRANCH  24  26
ENDBRANCH  17  20
ENDBRANCH  15  16
ENDBRANCH   1  15
TORSDOF 9
ENDMDL
MODEL 6
REMARK VINA RESULT:      -7.0      1.936      5.688
REMARK  Name = 
REMARK  9 active torsions:
REMARK  status: ('A' for Active; 'I' for Inactive)
REMARK    1  A    between atoms: C_2  and  C_3
REMARK    2  A    between atoms: C_3  and  O_4
REMARK    3  A    between atoms: O_4  and  C_5
REMARK    4  A    between atoms: C_5  and  C_7
REMARK    5  A    between atoms: C_7  and  N_8
REMARK    6  A    between atoms: C_9  and  C_11
REMARK    7  A    between atoms: C_15  and  N_16
REMARK    8  A    between atoms: N_20  and  C_21
REMARK    9  A    between atoms: C_21  and  C_22
REMARK                            x       y       z     vdW  Elec       q    Type
REMARK                         _______ _______ _______ _____ _____    ______ ____
ROOT
ATOM      1  C   UNL     1       6.561   5.026  15.052  0.00  0.00    +0.000 C 
ATOM      2  O   UNL     1       7.568   5.524  14.561  0.00  0.00    +0.000 OA
ENDROOT
BRANCH   1   3
ATOM      3  O   UNL     1       5.307   5.536  14.929  0.00  0.00    +0.000 OA
BRANCH   3   4
ATOM      4  C   UNL     1       5.145   6.896  15.331  0.00  0.00    +0.000 C 
BRANCH   4   6
ATOM      5  O   UNL     1       5.868   7.100  17.627  0.00  0.00    +0.000 OA
ATOM      6  C   UNL     1       4.931   7.003  16.838  0.00  0.00    +0.000 C 
ATOM      7  N   UNL     1       3.613   7.001  17.224  0.00  0.00    +0.000 N 
ATOM      8  H   UNL     1       2.884   6.993  16.517  0.00  0.00    +0.000 HD
BRANCH   7   9
ATOM      9  C   UNL     1       3.211   7.093  18.609  0.00  0.00    +0.000 C 
BRANCH   9  10
ATOM     10  C   UNL     1       2.220   8.187  18.738  0.00  0.00    +0.000 A 
ATOM     11  C   UNL     1       1.747   9.144  17.863  0.00  0.00    +0.000 A 
ATOM     12  C   UNL     1       0.803   9.913  18.585  0.00  0.00    +0.000 A 
ATOM     13  C   UNL     1       0.759   9.377  19.851  0.00  0.00    +0.000 A 
ATOM     14  O   UNL     1       1.617   8.329  19.954  0.00  0.00    +0.000 OA
ENDBRANCH   9  10
ENDBRANCH   7   9
ENDBRANCH   4   6
ENDBRANCH   3   4
ENDBRANCH   1   3
BRANCH   1  15
ATOM     15  C   UNL     1       6.541   3.706  15.812  0.00  0.00    +0.000 C 
BRANCH  15  16
ATOM     16  N   UNL     1       5.249   3.430  16.425  0.00  0.00    +0.000 N 
ATOM     17  C   UNL     1       5.081   3.649  17.775  0.00  0.00    +0.000 C 
ATOM     18  O   UNL     1       5.970   4.084  18.497  0.00  0.00    +0.000 OA
ATOM     19  H   UNL     1       4.450   3.293  15.821  0.00  0.00    +0.000 HD
BRANCH  17  20
ATOM     20  C   UNL     1       3.747   3.358  18.362  0.00  0.00    +0.000 A 
ATOM     21  C   UNL     1       2.620   3.556  17.552  0.00  0.00    +0.000 A 
ATOM     22  C   UNL     1       1.332   3.386  18.066  0.00  0.00    +0.000 A 
ATOM     23  C   UNL     1       1.159   3.029  19.402  0.00  0.00    +0.000 A 
ATOM     24  C   UNL     1       2.285   2.838  20.216  0.00  0.00    +0.000 A 
ATOM     25  C   UNL     1       3.585   2.995  19.706  0.00  0.00    +0.000 A 
BRANCH  24  26
ATOM     26  N   UNL     1       2.097   2.496  21.632  0.00  0.00    +0.000 N 
ATOM     27  O   UNL     1       3.079   2.085  22.265  0.00  0.00    +0.000 OA
ATOM     28  O   UNL     1       0.962   2.641  22.110  0.00  0.00    +0.000 OA
ENDBRANCH  24  26
ENDBRANCH  17  20
ENDBRANCH  15  16
ENDBRANCH   1  15
TORSDOF 9
ENDMDL
MODEL 7
REMARK VINA RESULT:      -6.9      2.153      2.901
REMARK  Name = 
REMARK  9 active torsions:
REMARK  status: ('A' for Active; 'I' for Inactive)
REMARK    1  A    between atoms: C_2  and  C_3
REMARK    2  A    between atoms: C_3  and  O_4
REMARK    3  A    between atoms: O_4  and  C_5
REMARK    4  A    between atoms: C_5  and  C_7
REMARK    5  A    between atoms: C_7  and  N_8
REMARK    6  A    between atoms: C_9  and  C_11
REMARK    7  A    between atoms: C_15  and  N_16
REMARK    8  A    between atoms: N_20  and  C_21
REMARK    9  A    between atoms: C_21  and  C_22
REMARK                            x       y       z     vdW  Elec       q    Type
REMARK                         _______ _______ _______ _____ _____    ______ ____
ROOT
ATOM      1  C   UNL     1       4.164   2.618  18.997  0.00  0.00    +0.000 C 
ATOM      2  O   UNL     1       4.825   1.859  19.697  0.00  0.00    +0.000 OA
ENDROOT
BRANCH   1   3
ATOM      3  O   UNL     1       2.834   2.484  18.751  0.00  0.00    +0.000 OA
BRANCH   3   4
ATOM      4  C   UNL     1       1.997   2.369  19.901  0.00  0.00    +0.000 C 
BRANCH   4   6
ATOM      5  O   UNL     1       2.285   3.647  21.931  0.00  0.00    +0.000 OA
ATOM      6  C   UNL     1       2.021   3.649  20.731  0.00  0.00    +0.000 C 
ATOM      7  N   UNL     1       1.743   4.791  20.020  0.00  0.00    +0.000 N 
ATOM      8  H   UNL     1       1.605   4.734  19.015  0.00  0.00    +0.000 HD
BRANCH   7   9
ATOM      9  C   UNL     1       1.717   6.099  20.632  0.00  0.00    +0.000 C 
BRANCH   9  10
ATOM     10  C   UNL     1       2.021   7.110  19.592  0.00  0.00    +0.000 A 
ATOM     11  C   UNL     1       1.757   8.459  19.478  0.00  0.00    +0.000 A 
ATOM     12  C   UNL     1       2.307   8.870  18.240  0.00  0.00    +0.000 A 
ATOM     13  C   UNL     1       2.871   7.749  17.680  0.00  0.00    +0.000 A 
ATOM     14  O   UNL     1       2.702   6.674  18.493  0.00  0.00    +0.000 OA
ENDBRANCH   9  10
ENDBRANCH   7   9
ENDBRANCH   4   6
ENDBRANCH   3   4
ENDBRANCH   1   3
BRANCH   1  15
ATOM     15  C   UNL     1       4.713   3.888  18.356  0.00  0.00    +0.000 C 
BRANCH  15  16
ATOM     16  N   UNL     1       5.184   3.671  16.996  0.00  0.00    +0.000 N 
ATOM     17  C   UNL     1       5.693   4.732  16.279  0.00  0.00    +0.000 C 
ATOM     18  O   UNL     1       5.784   5.865  16.737  0.00  0.00    +0.000 OA
ATOM     19  H   UNL     1       5.331   2.719  16.684  0.00  0.00    +0.000 HD
BRANCH  17  20
ATOM     20  C   UNL     1       6.167   4.469  14.895  0.00  0.00    +0.000 A 
ATOM     21  C   UNL     1       7.309   5.151  14.456  0.00  0.00    +0.000 A 
ATOM     22  C   UNL     1       7.760   5.018  13.140  0.00  0.00    +0.000 A 
ATOM     23  C   UNL     1       7.060   4.210  12.245  0.00  0.00    +0.000 A 
ATOM     24  C   UNL     1       5.911   3.533  12.681  0.00  0.00    +0.000 A 
ATOM     25  C   UNL     1       5.457   3.651  14.006  0.00  0.00    +0.000 A 
BRANCH  24  26
ATOM     26  N   UNL     1       5.158   2.710  11.725  0.00  0.00    +0.000 N 
ATOM     27  O   UNL     1       5.639   1.618  11.394  0.00  0.00    +0.000 OA
ATOM     28  O   UNL     1       4.081   3.160  11.308  0.00  0.00    +0.000 OA
ENDBRANCH  24  26
ENDBRANCH  17  20
ENDBRANCH  15  16
ENDBRANCH   1  15
TORSDOF 9
ENDMDL
MODEL 8
REMARK VINA RESULT:      -6.9      1.221      1.972
REMARK  Name = 
REMARK  9 active torsions:
REMARK  status: ('A' for Active; 'I' for Inactive)
REMARK    1  A    between atoms: C_2  and  C_3
REMARK    2  A    between atoms: C_3  and  O_4
REMARK    3  A    between atoms: O_4  and  C_5
REMARK    4  A    between atoms: C_5  and  C_7
REMARK    5  A    between atoms: C_7  and  N_8
REMARK    6  A    between atoms: C_9  and  C_11
REMARK    7  A    between atoms: C_15  and  N_16
REMARK    8  A    between atoms: N_20  and  C_21
REMARK    9  A    between atoms: C_21  and  C_22
REMARK                            x       y       z     vdW  Elec       q    Type
REMARK                         _______ _______ _______ _____ _____    ______ ____
ROOT
ATOM      1  C   UNL     1       1.936   2.339  18.511  0.00  0.00    +0.000 C 
ATOM      2  O   UNL     1       1.444   2.816  17.495  0.00  0.00    +0.000 OA
ENDROOT
BRANCH   1   3
ATOM      3  O   UNL     1       1.257   2.110  19.666  0.00  0.00    +0.000 OA
BRANCH   3   4
ATOM      4  C   UNL     1       2.033   2.156  20.863  0.00  0.00    +0.000 C 
BRANCH   4   6
ATOM      5  O   UNL     1       2.468   3.807  22.571  0.00  0.00    +0.000 OA
ATOM      6  C   UNL     1       2.100   3.574  21.423  0.00  0.00    +0.000 C 
ATOM      7  N   UNL     1       1.734   4.552  20.531  0.00  0.00    +0.000 N 
ATOM      8  H   UNL     1       1.510   4.299  19.573  0.00  0.00    +0.000 HD
BRANCH   7   9
ATOM      9  C   UNL     1       1.730   5.955  20.878  0.00  0.00    +0.000 C 
BRANCH   9  10
ATOM     10  C   UNL     1       2.109   6.736  19.677  0.00  0.00    +0.000 A 
ATOM     11  C   UNL     1       2.734   6.406  18.492  0.00  0.00    +0.000 A 
ATOM     12  C   UNL     1       2.814   7.600  17.737  0.00  0.00    +0.000 A 
ATOM     13  C   UNL     1       2.234   8.581  18.506  0.00  0.00    +0.000 A 
ATOM     14  O   UNL     1       1.803   8.066  19.687  0.00  0.00    +0.000 OA
ENDBRANCH   9  10
ENDBRANCH   7   9
ENDBRANCH   4   6
ENDBRANCH   3   4
ENDBRANCH   1   3
BRANCH   1  15
ATOM     15  C   UNL     1       3.374   1.845  18.616  0.00  0.00    +0.000 C 
BRANCH  15  16
ATOM     16  N   UNL     1       4.310   2.682  17.878  0.00  0.00    +0.000 N 
ATOM     17  C   UNL     1       4.958   3.709  18.530  0.00  0.00    +0.000 C 
ATOM     18  O   UNL     1       4.797   3.951  19.721  0.00  0.00    +0.000 OA
ATOM     19  H   UNL     1       4.627   2.365  16.971  0.00  0.00    +0.000 HD
BRANCH  17  20
ATOM     20  C   UNL     1       5.907   4.539  17.743  0.00  0.00    +0.000 A 
ATOM     21  C   UNL     1       6.497   5.638  18.382  0.00  0.00    +0.000 A 
ATOM     22  C   UNL     1       7.331   6.510  17.678  0.00  0.00    +0.000 A 
ATOM     23  C   UNL     1       7.570   6.299  16.321  0.00  0.00    +0.000 A 
ATOM     24  C   UNL     1       6.975   5.203  15.679  0.00  0.00    +0.000 A 
ATOM     25  C   UNL     1       6.144   4.313  16.381  0.00  0.00    +0.000 A 
BRANCH  24  26
ATOM     26  N   UNL     1       7.203   5.004  14.242  0.00  0.00    +0.000 N 
ATOM     27  O   UNL     1       6.504   4.169  13.653  0.00  0.00    +0.000 OA
ATOM     28  O   UNL     1       8.085   5.689  13.702  0.00  0.00    +0.000 OA
ENDBRANCH  24  26
ENDBRANCH  17  20
ENDBRANCH  15  16
ENDBRANCH   1  15
TORSDOF 9
ENDMDL
MODEL 9
REMARK VINA RESULT:      -6.8      2.226      7.151
REMARK  Name = 
REMARK  9 active torsions:
REMARK  status: ('A' for Active; 'I' for Inactive)
REMARK    1  A    between atoms: C_2  and  C_3
REMARK    2  A    between atoms: C_3  and  O_4
REMARK    3  A    between atoms: O_4  and  C_5
REMARK    4  A    between atoms: C_5  and  C_7
REMARK    5  A    between atoms: C_7  and  N_8
REMARK    6  A    between atoms: C_9  and  C_11
REMARK    7  A    between atoms: C_15  and  N_16
REMARK    8  A    between atoms: N_20  and  C_21
REMARK    9  A    between atoms: C_21  and  C_22
REMARK                            x       y       z     vdW  Elec       q    Type
REMARK                         _______ _______ _______ _____ _____    ______ ____
ROOT
ATOM      1  C   UNL     1       2.944   3.444  18.626  0.00  0.00    +0.000 C 
ATOM      2  O   UNL     1       1.989   2.703  18.830  0.00  0.00    +0.000 OA
ENDROOT
BRANCH   1   3
ATOM      3  O   UNL     1       4.202   3.232  19.095  0.00  0.00    +0.000 OA
BRANCH   3   4
ATOM      4  C   UNL     1       4.814   4.339  19.755  0.00  0.00    +0.000 C 
BRANCH   4   6
ATOM      5  O   UNL     1       6.265   6.121  19.010  0.00  0.00    +0.000 OA
ATOM      6  C   UNL     1       5.924   4.946  18.902  0.00  0.00    +0.000 C 
ATOM      7  N   UNL     1       6.512   4.065  18.028  0.00  0.00    +0.000 N 
ATOM      8  H   UNL     1       6.234   3.087  18.039  0.00  0.00    +0.000 HD
BRANCH   7   9
ATOM      9  C   UNL     1       7.579   4.454  17.135  0.00  0.00    +0.000 C 
BRANCH   9  10
ATOM     10  C   UNL     1       7.075   4.386  15.743  0.00  0.00    +0.000 A 
ATOM     11  C   UNL     1       6.067   3.665  15.136  0.00  0.00    +0.000 A 
ATOM     12  C   UNL     1       6.077   4.038  13.771  0.00  0.00    +0.000 A 
ATOM     13  C   UNL     1       7.087   4.962  13.632  0.00  0.00    +0.000 A 
ATOM     14  O   UNL     1       7.700   5.179  14.825  0.00  0.00    +0.000 OA
ENDBRANCH   9  10
ENDBRANCH   7   9
ENDBRANCH   4   6
ENDBRANCH   3   4
ENDBRANCH   1   3
BRANCH   1  15
ATOM     15  C   UNL     1       2.893   4.682  17.739  0.00  0.00    +0.000 C 
BRANCH  15  16
ATOM     16  N   UNL     1       2.208   5.799  18.374  0.00  0.00    +0.000 N 
ATOM     17  C   UNL     1       2.704   7.075  18.216  0.00  0.00    +0.000 C 
ATOM     18  O   UNL     1       3.701   7.326  17.548  0.00  0.00    +0.000 OA
ATOM     19  H   UNL     1       1.274   5.649  18.732  0.00  0.00    +0.000 HD
BRANCH  17  20
ATOM     20  C   UNL     1       1.975   8.188  18.878  0.00  0.00    +0.000 A 
ATOM     21  C   UNL     1       1.827   9.385  18.165  0.00  0.00    +0.000 A 
ATOM     22  C   UNL     1       1.229  10.500  18.757  0.00  0.00    +0.000 A 
ATOM     23  C   UNL     1       0.787  10.432  20.078  0.00  0.00    +0.000 A 
ATOM     24  C   UNL     1       0.942   9.236  20.795  0.00  0.00    +0.000 A 
ATOM     25  C   UNL     1       1.531   8.106  20.204  0.00  0.00    +0.000 A 
BRANCH  24  26
ATOM     26  N   UNL     1       0.505   9.179  22.196  0.00  0.00    +0.000 N 
ATOM     27  O   UNL     1      -0.648   8.791  22.430  0.00  0.00    +0.000 OA
ATOM     28  O   UNL     1       1.321   9.523  23.064  0.00  0.00    +0.000 OA
ENDBRANCH  24  26
ENDBRANCH  17  20
ENDBRANCH  15  16
ENDBRANCH   1  15
TORSDOF 9
ENDMDL
