MODEL 1
REMARK VINA RESULT:      -8.4      0.000      0.000
REMARK  Name = 
REMARK  6 active torsions:
REMARK  status: ('A' for Active; 'I' for Inactive)
REMARK    1  A    between atoms: C_2  and  C_4
REMARK    2  A    between atoms: C_7  and  C_8
REMARK    3  A    between atoms: C_8  and  C_10
REMARK    4  A    between atoms: C_10  and  C_11
REMARK    5  A    between atoms: C_11  and  C_12
REMARK    6  A    between atoms: C_15  and  C_16
REMARK                            x       y       z     vdW  Elec       q    Type
REMARK                         _______ _______ _______ _____ _____    ______ ____
ROOT
ATOM      1  C   UNL     1       4.731   5.957  18.004  0.00  0.00    +0.000 C 
ENDROOT
BRANCH   1   2
ATOM      2  C   UNL     1       4.707   4.464  17.762  0.00  0.00    +0.000 C 
ATOM      3  O   UNL     1       5.049   3.977  16.683  0.00  0.00    +0.000 OA
BRANCH   2   7
ATOM      4  C   UNL     1       2.855   2.951  20.376  0.00  0.00    +0.000 A 
ATOM      5  C   UNL     1       4.096   2.388  20.568  0.00  0.00    +0.000 A 
ATOM      6  N   UNL     1       4.978   2.855  19.623  0.00  0.00    +0.000 NA
ATOM      7  C   UNL     1       4.250   3.682  18.893  0.00  0.00    +0.000 A 
ATOM      8  O   UNL     1       2.943   3.784  19.288  0.00  0.00    +0.000 OA
BRANCH   4  10
ATOM      9  N   UNL     1       0.506   3.190  20.363  0.00  0.00    +0.000 N 
ATOM     10  C   UNL     1       1.609   2.813  21.078  0.00  0.00    +0.000 C 
ATOM     11  O   UNL     1       1.498   2.393  22.223  0.00  0.00    +0.000 OA
ATOM     12  H   UNL     1      -0.404   3.097  20.789  0.00  0.00    +0.000 HD
ATOM     13  H   UNL     1       0.583   3.499  19.403  0.00  0.00    +0.000 HD
ENDBRANCH   4  10
ENDBRANCH   2   7
ENDBRANCH   1   2
BRANCH   1  14
ATOM     14  C   UNL     1       3.580   6.702  17.330  0.00  0.00    +0.000 C 
BRANCH  14  15
ATOM     15  C   UNL     1       2.698   7.478  18.285  0.00  0.00    +0.000 A 
ATOM     16  C   UNL     1       2.455   7.060  19.596  0.00  0.00    +0.000 A 
ATOM     17  C   UNL     1       1.662   7.818  20.457  0.00  0.00    +0.000 A 
ATOM     18  C   UNL     1       1.095   9.036  20.057  0.00  0.00    +0.000 A 
ATOM     19  C   UNL     1       1.318   9.438  18.728  0.00  0.00    +0.000 A 
ATOM     20  C   UNL     1       2.102   8.670  17.854  0.00  0.00    +0.000 A 
BRANCH  18  21
ATOM     21  C   UNL     1       0.320   9.853  21.017  0.00  0.00    +0.000 A 
ATOM     22  C   UNL     1       0.038   9.369  22.311  0.00  0.00    +0.000 A 
ATOM     23  C   UNL     1      -0.712  10.109  23.227  0.00  0.00    +0.000 A 
ATOM     24  C   UNL     1      -1.184  11.367  22.875  0.00  0.00    +0.000 A 
ATOM     25  C   UNL     1      -0.909  11.879  21.610  0.00  0.00    +0.000 A 
ATOM     26  C   UNL     1      -0.170  11.128  20.690  0.00  0.00    +0.000 A 
ENDBRANCH  18  21
ENDBRANCH  14  15
ENDBRANCH   1  14
TORSDOF 6
ENDMDL
MODEL 2
REMARK VINA RESULT:      -8.1      0.991      1.396
REMARK  Name = 
REMARK  6 active torsions:
REMARK  status: ('A' for Active; 'I' for Inactive)
REMARK    1  A    between atoms: C_2  and  C_4
REMARK    2  A    between atoms: C_7  and  C_8
REMARK    3  A    between atoms: C_8  and  C_10
REMARK    4  A    between atoms: C_10  and  C_11
REMARK    5  A    between atoms: C_11  and  C_12
REMARK    6  A    between atoms: C_15  and  C_16
REMARK                            x       y       z     vdW  Elec       q    Type
REMARK                         _______ _______ _______ _____ _____    ______ ____
ROOT
ATOM      1  C   UNL     1       5.041   6.184  17.854  0.00  0.00    +0.000 C 
ENDROOT
BRANCH   1   2
ATOM      2  C   UNL     1       5.249   4.700  17.643  0.00  0.00    +0.000 C 
ATOM      3  O   UNL     1       6.044   4.270  16.807  0.00  0.00    +0.000 OA
BRANCH   2   7
ATOM      4  C   UNL     1       2.627   2.937  19.247  0.00  0.00    +0.000 A 
ATOM      5  C   UNL     1       3.712   2.539  19.993  0.00  0.00    +0.000 A 
ATOM      6  N   UNL     1       4.858   3.125  19.511  0.00  0.00    +0.000 NA
ATOM      7  C   UNL     1       4.435   3.856  18.495  0.00  0.00    +0.000 A 
ATOM      8  O   UNL     1       3.087   3.783  18.269  0.00  0.00    +0.000 OA
BRANCH   4  10
ATOM      9  N   UNL     1       0.630   3.022  20.503  0.00  0.00    +0.000 N 
ATOM     10  C   UNL     1       1.226   2.633  19.335  0.00  0.00    +0.000 C 
ATOM     11  O   UNL     1       0.578   2.075  18.459  0.00  0.00    +0.000 OA
ATOM     12  H   UNL     1      -0.359   2.858  20.621  0.00  0.00    +0.000 HD
ATOM     13  H   UNL     1       1.146   3.520  21.216  0.00  0.00    +0.000 HD
ENDBRANCH   4  10
ENDBRANCH   2   7
ENDBRANCH   1   2
BRANCH   1  14
ATOM     14  C   UNL     1       3.755   6.715  17.225  0.00  0.00    +0.000 C 
BRANCH  14  15
ATOM     15  C   UNL     1       2.840   7.433  18.194  0.00  0.00    +0.000 A 
ATOM     16  C   UNL     1       2.572   6.949  19.478  0.00  0.00    +0.000 A 
ATOM     17  C   UNL     1       1.749   7.655  20.354  0.00  0.00    +0.000 A 
ATOM     18  C   UNL     1       1.174   8.884  19.999  0.00  0.00    +0.000 A 
ATOM     19  C   UNL     1       1.423   9.351  18.697  0.00  0.00    +0.000 A 
ATOM     20  C   UNL     1       2.238   8.637  17.807  0.00  0.00    +0.000 A 
BRANCH  18  21
ATOM     21  C   UNL     1       0.366   9.644  20.979  0.00  0.00    +0.000 A 
ATOM     22  C   UNL     1      -0.273  10.845  20.609  0.00  0.00    +0.000 A 
ATOM     23  C   UNL     1      -1.021  11.592  21.521  0.00  0.00    +0.000 A 
ATOM     24  C   UNL     1      -1.163  11.143  22.828  0.00  0.00    +0.000 A 
ATOM     25  C   UNL     1      -0.556   9.953  23.220  0.00  0.00    +0.000 A 
ATOM     26  C   UNL     1       0.205   9.215  22.307  0.00  0.00    +0.000 A 
ENDBRANCH  18  21
ENDBRANCH  14  15
ENDBRANCH   1  14
TORSDOF 6
ENDMDL
MODEL 3
REMARK VINA RESULT:      -8.0      3.520      5.306
REMARK  Name = 
REMARK  6 active torsions:
REMARK  status: ('A' for Active; 'I' for Inactive)
REMARK    1  A    between atoms: C_2  and  C_4
REMARK    2  A    between atoms: C_7  and  C_8
REMARK    3  A    between atoms: C_8  and  C_10
REMARK    4  A    between atoms: C_10  and  C_11
REMARK    5  A    between atoms: C_11  and  C_12
REMARK    6  A    between atoms: C_15  and  C_16
REMARK                            x       y       z     vdW  Elec       q    Type
REMARK                         _______ _______ _______ _____ _____    ______ ____
ROOT
ATOM      1  C   UNL     1       5.455   4.122  17.189  0.00  0.00    +0.000 C 
ENDROOT
BRANCH   1   2
ATOM      2  C   UNL     1       6.815   4.426  16.600  0.00  0.00    +0.000 C 
ATOM      3  O   UNL     1       7.800   4.626  17.313  0.00  0.00    +0.000 OA
BRANCH   2   7
ATOM      4  C   UNL     1       6.375   3.846  13.132  0.00  0.00    +0.000 A 
ATOM      5  C   UNL     1       7.240   4.916  13.116  0.00  0.00    +0.000 A 
ATOM      6  N   UNL     1       7.534   5.305  14.401  0.00  0.00    +0.000 NA
ATOM      7  C   UNL     1       6.844   4.464  15.151  0.00  0.00    +0.000 A 
ATOM      8  O   UNL     1       6.106   3.552  14.446  0.00  0.00    +0.000 OA
BRANCH   4  10
ATOM      9  N   UNL     1       6.525   2.002  11.665  0.00  0.00    +0.000 N 
ATOM     10  C   UNL     1       5.777   3.068  12.083  0.00  0.00    +0.000 C 
ATOM     11  O   UNL     1       4.686   3.301  11.579  0.00  0.00    +0.000 OA
ATOM     12  H   UNL     1       6.154   1.400  10.946  0.00  0.00    +0.000 HD
ATOM     13  H   UNL     1       7.409   1.776  12.104  0.00  0.00    +0.000 HD
ENDBRANCH   4  10
ENDBRANCH   2   7
ENDBRANCH   1   2
BRANCH   1  14
ATOM     14  C   UNL     1       5.273   4.658  18.608  0.00  0.00    +0.000 C 
BRANCH  14  15
ATOM     15  C   UNL     1       4.189   5.707  18.739  0.00  0.00    +0.000 A 
ATOM     16  C   UNL     1       3.268   5.713  19.790  0.00  0.00    +0.000 A 
ATOM     17  C   UNL     1       2.304   6.715  19.895  0.00  0.00    +0.000 A 
ATOM     18  C   UNL     1       2.229   7.767  18.970  0.00  0.00    +0.000 A 
ATOM     19  C   UNL     1       3.138   7.740  17.899  0.00  0.00    +0.000 A 
ATOM     20  C   UNL     1       4.100   6.725  17.781  0.00  0.00    +0.000 A 
BRANCH  18  21
ATOM     21  C   UNL     1       1.242   8.854  19.152  0.00  0.00    +0.000 A 
ATOM     22  C   UNL     1       0.787   9.208  20.439  0.00  0.00    +0.000 A 
ATOM     23  C   UNL     1      -0.162  10.213  20.634  0.00  0.00    +0.000 A 
ATOM     24  C   UNL     1      -0.668  10.906  19.542  0.00  0.00    +0.000 A 
ATOM     25  C   UNL     1      -0.228  10.589  18.259  0.00  0.00    +0.000 A 
ATOM     26  C   UNL     1       0.712   9.571  18.066  0.00  0.00    +0.000 A 
ENDBRANCH  18  21
ENDBRANCH  14  15
ENDBRANCH   1  14
TORSDOF 6
ENDMDL
MODEL 4
REMARK VINA RESULT:      -8.0      0.885      1.345
REMARK  Name = 
REMARK  6 active torsions:
REMARK  status: ('A' for Active; 'I' for Inactive)
REMARK    1  A    between atoms: C_2  and  C_4
REMARK    2  A    between atoms: C_7  and  C_8
REMARK    3  A    between atoms: C_8  and  C_10
REMARK    4  A    between atoms: C_10  and  C_11
REMARK    5  A    between atoms: C_11  and  C_12
REMARK    6  A    between atoms: C_15  and  C_16
REMARK                            x       y       z     vdW  Elec       q    Type
REMARK                         _______ _______ _______ _____ _____    ______ ____
ROOT
ATOM      1  C   UNL     1       4.852   6.324  17.759  0.00  0.00    +0.000 C 
ENDROOT
BRANCH   1   2
ATOM      2  C   UNL     1       5.399   4.967  18.144  0.00  0.00    +0.000 C 
ATOM      3  O   UNL     1       6.607   4.722  18.110  0.00  0.00    +0.000 OA
BRANCH   2   7
ATOM      4  C   UNL     1       2.979   3.026  19.855  0.00  0.00    +0.000 A 
ATOM      5  C   UNL     1       3.004   2.402  18.629  0.00  0.00    +0.000 A 
ATOM      6  N   UNL     1       3.901   3.028  17.798  0.00  0.00    +0.000 NA
ATOM      7  C   UNL     1       4.390   4.006  18.540  0.00  0.00    +0.000 A 
ATOM      8  O   UNL     1       3.867   4.072  19.803  0.00  0.00    +0.000 OA
BRANCH   4  10
ATOM      9  N   UNL     1       0.895   3.004  20.964  0.00  0.00    +0.000 N 
ATOM     10  C   UNL     1       2.239   2.769  21.059  0.00  0.00    +0.000 C 
ATOM     11  O   UNL     1       2.731   2.367  22.106  0.00  0.00    +0.000 OA
ATOM     12  H   UNL     1       0.312   2.821  21.768  0.00  0.00    +0.000 HD
ATOM     13  H   UNL     1       0.473   3.296  20.093  0.00  0.00    +0.000 HD
ENDBRANCH   4  10
ENDBRANCH   2   7
ENDBRANCH   1   2
BRANCH   1  14
ATOM     14  C   UNL     1       3.341   6.331  17.537  0.00  0.00    +0.000 C 
BRANCH  14  15
ATOM     15  C   UNL     1       2.586   7.283  18.440  0.00  0.00    +0.000 A 
ATOM     16  C   UNL     1       2.049   8.490  17.984  0.00  0.00    +0.000 A 
ATOM     17  C   UNL     1       1.332   9.327  18.839  0.00  0.00    +0.000 A 
ATOM     18  C   UNL     1       1.099   8.987  20.179  0.00  0.00    +0.000 A 
ATOM     19  C   UNL     1       1.666   7.787  20.641  0.00  0.00    +0.000 A 
ATOM     20  C   UNL     1       2.402   6.950  19.788  0.00  0.00    +0.000 A 
BRANCH  18  21
ATOM     21  C   UNL     1       0.272   9.862  21.040  0.00  0.00    +0.000 A 
ATOM     22  C   UNL     1      -0.054   9.478  22.357  0.00  0.00    +0.000 A 
ATOM     23  C   UNL     1      -0.853  10.273  23.180  0.00  0.00    +0.000 A 
ATOM     24  C   UNL     1      -1.333  11.488  22.709  0.00  0.00    +0.000 A 
ATOM     25  C   UNL     1      -1.018  11.902  21.417  0.00  0.00    +0.000 A 
ATOM     26  C   UNL     1      -0.229  11.095  20.590  0.00  0.00    +0.000 A 
ENDBRANCH  18  21
ENDBRANCH  14  15
ENDBRANCH   1  14
TORSDOF 6
ENDMDL
MODEL 5
REMARK VINA RESULT:      -8.0      2.000      3.944
REMARK  Name = 
REMARK  6 active torsions:
REMARK  status: ('A' for Active; 'I' for Inactive)
REMARK    1  A    between atoms: C_2  and  C_4
REMARK    2  A    between atoms: C_7  and  C_8
REMARK    3  A    between atoms: C_8  and  C_10
REMARK    4  A    between atoms: C_10  and  C_11
REMARK    5  A    between atoms: C_11  and  C_12
REMARK    6  A    between atoms: C_15  and  C_16
REMARK                            x       y       z     vdW  Elec       q    Type
REMARK                         _______ _______ _______ _____ _____    ______ ____
ROOT
ATOM      1  C   UNL     1       3.116   4.412  18.921  0.00  0.00    +0.000 C 
ENDROOT
BRANCH   1   2
ATOM      2  C   UNL     1       4.413   3.651  19.091  0.00  0.00    +0.000 C 
ATOM      3  O   UNL     1       4.503   2.688  19.854  0.00  0.00    +0.000 OA
BRANCH   2   7
ATOM      4  C   UNL     1       6.647   4.569  16.500  0.00  0.00    +0.000 A 
ATOM      5  C   UNL     1       7.326   5.018  17.609  0.00  0.00    +0.000 A 
ATOM      6  N   UNL     1       6.600   4.754  18.746  0.00  0.00    +0.000 NA
ATOM      7  C   UNL     1       5.512   4.157  18.294  0.00  0.00    +0.000 A 
ATOM      8  O   UNL     1       5.467   4.018  16.933  0.00  0.00    +0.000 OA
BRANCH   4  10
ATOM      9  N   UNL     1       6.284   3.664  14.349  0.00  0.00    +0.000 N 
ATOM     10  C   UNL     1       6.962   4.586  15.098  0.00  0.00    +0.000 C 
ATOM     11  O   UNL     1       7.763   5.350  14.573  0.00  0.00    +0.000 OA
ATOM     12  H   UNL     1       6.442   3.637  13.353  0.00  0.00    +0.000 HD
ATOM     13  H   UNL     1       5.591   3.057  14.766  0.00  0.00    +0.000 HD
ENDBRANCH   4  10
ENDBRANCH   2   7
ENDBRANCH   1   2
BRANCH   1  14
ATOM     14  C   UNL     1       3.310   5.844  18.425  0.00  0.00    +0.000 C 
BRANCH  14  15
ATOM     15  C   UNL     1       2.478   6.872  19.161  0.00  0.00    +0.000 A 
ATOM     16  C   UNL     1       1.995   6.667  20.456  0.00  0.00    +0.000 A 
ATOM     17  C   UNL     1       1.258   7.652  21.113  0.00  0.00    +0.000 A 
ATOM     18  C   UNL     1       0.988   8.892  20.518  0.00  0.00    +0.000 A 
ATOM     19  C   UNL     1       1.450   9.083  19.204  0.00  0.00    +0.000 A 
ATOM     20  C   UNL     1       2.179   8.089  18.533  0.00  0.00    +0.000 A 
BRANCH  18  21
ATOM     21  C   UNL     1       0.268   9.943  21.270  0.00  0.00    +0.000 A 
ATOM     22  C   UNL     1       0.225  11.270  20.795  0.00  0.00    +0.000 A 
ATOM     23  C   UNL     1      -0.427  12.283  21.499  0.00  0.00    +0.000 A 
ATOM     24  C   UNL     1      -1.073  11.989  22.693  0.00  0.00    +0.000 A 
ATOM     25  C   UNL     1      -1.061  10.684  23.182  0.00  0.00    +0.000 A 
ATOM     26  C   UNL     1      -0.394   9.675  22.481  0.00  0.00    +0.000 A 
ENDBRANCH  18  21
ENDBRANCH  14  15
ENDBRANCH   1  14
TORSDOF 6
ENDMDL
MODEL 6
REMARK VINA RESULT:      -7.9      2.486      4.437
REMARK  Name = 
REMARK  6 active torsions:
REMARK  status: ('A' for Active; 'I' for Inactive)
REMARK    1  A    between atoms: C_2  and  C_4
REMARK    2  A    between atoms: C_7  and  C_8
REMARK    3  A    between atoms: C_8  and  C_10
REMARK    4  A    between atoms: C_10  and  C_11
REMARK    5  A    between atoms: C_11  and  C_12
REMARK    6  A    between atoms: C_15  and  C_16
REMARK                            x       y       z     vdW  Elec       q    Type
REMARK                         _______ _______ _______ _____ _____    ______ ____
ROOT
ATOM      1  C   UNL     1       3.154   4.817  18.607  0.00  0.00    +0.000 C 
ENDROOT
BRANCH   1   2
ATOM      2  C   UNL     1       4.270   3.803  18.729  0.00  0.00    +0.000 C 
ATOM      3  O   UNL     1       4.154   2.792  19.424  0.00  0.00    +0.000 OA
BRANCH   2   7
ATOM      4  C   UNL     1       6.668   4.501  16.216  0.00  0.00    +0.000 A 
ATOM      5  C   UNL     1       7.434   4.609  17.354  0.00  0.00    +0.000 A 
ATOM      6  N   UNL     1       6.663   4.375  18.467  0.00  0.00    +0.000 NA
ATOM      7  C   UNL     1       5.462   4.132  17.973  0.00  0.00    +0.000 A 
ATOM      8  O   UNL     1       5.387   4.201  16.608  0.00  0.00    +0.000 OA
BRANCH   4  10
ATOM      9  N   UNL     1       6.442   3.670  14.018  0.00  0.00    +0.000 N 
ATOM     10  C   UNL     1       6.980   4.637  14.821  0.00  0.00    +0.000 C 
ATOM     11  O   UNL     1       7.666   5.534  14.345  0.00  0.00    +0.000 OA
ATOM     12  H   UNL     1       6.604   3.719  13.023  0.00  0.00    +0.000 HD
ATOM     13  H   UNL     1       5.841   2.949  14.395  0.00  0.00    +0.000 HD
ENDBRANCH   4  10
ENDBRANCH   2   7
ENDBRANCH   1   2
BRANCH   1  14
ATOM     14  C   UNL     1       2.970   5.675  19.857  0.00  0.00    +0.000 C 
BRANCH  14  15
ATOM     15  C   UNL     1       2.324   7.019  19.598  0.00  0.00    +0.000 A 
ATOM     16  C   UNL     1       1.571   7.693  20.563  0.00  0.00    +0.000 A 
ATOM     17  C   UNL     1       1.017   8.945  20.297  0.00  0.00    +0.000 A 
ATOM     18  C   UNL     1       1.207   9.590  19.067  0.00  0.00    +0.000 A 
ATOM     19  C   UNL     1       1.939   8.895  18.089  0.00  0.00    +0.000 A 
ATOM     20  C   UNL     1       2.485   7.628  18.347  0.00  0.00    +0.000 A 
BRANCH  18  21
ATOM     21  C   UNL     1       0.668  10.950  18.843  0.00  0.00    +0.000 A 
ATOM     22  C   UNL     1      -0.717  11.158  18.672  0.00  0.00    +0.000 A 
ATOM     23  C   UNL     1      -1.247  12.427  18.435  0.00  0.00    +0.000 A 
ATOM     24  C   UNL     1      -0.402  13.529  18.383  0.00  0.00    +0.000 A 
ATOM     25  C   UNL     1       0.968  13.358  18.563  0.00  0.00    +0.000 A 
ATOM     26  C   UNL     1       1.497  12.082  18.785  0.00  0.00    +0.000 A 
ENDBRANCH  18  21
ENDBRANCH  14  15
ENDBRANCH   1  14
TORSDOF 6
ENDMDL
MODEL 7
REMARK VINA RESULT:      -7.9      2.138      4.245
REMARK  Name = 
REMARK  6 active torsions:
REMARK  status: ('A' for Active; 'I' for Inactive)
REMARK    1  A    between atoms: C_2  and  C_4
REMARK    2  A    between atoms: C_7  and  C_8
REMARK    3  A    between atoms: C_8  and  C_10
REMARK    4  A    between atoms: C_10  and  C_11
REMARK    5  A    between atoms: C_11  and  C_12
REMARK    6  A    between atoms: C_15  and  C_16
REMARK                            x       y       z     vdW  Elec       q    Type
REMARK                         _______ _______ _______ _____ _____    ______ ____
ROOT
ATOM      1  C   UNL     1       2.889   5.291  17.727  0.00  0.00    +0.000 C 
ENDROOT
BRANCH   1   2
ATOM      2  C   UNL     1       3.958   4.312  18.160  0.00  0.00    +0.000 C 
ATOM      3  O   UNL     1       3.766   3.502  19.068  0.00  0.00    +0.000 OA
BRANCH   2   7
ATOM      4  C   UNL     1       6.490   4.494  15.688  0.00  0.00    +0.000 A 
ATOM      5  C   UNL     1       7.236   4.586  16.841  0.00  0.00    +0.000 A 
ATOM      6  N   UNL     1       6.412   4.541  17.941  0.00  0.00    +0.000 NA
ATOM      7  C   UNL     1       5.202   4.422  17.424  0.00  0.00    +0.000 A 
ATOM      8  O   UNL     1       5.171   4.396  16.056  0.00  0.00    +0.000 OA
BRANCH   4  10
ATOM      9  N   UNL     1       7.805   5.399  13.949  0.00  0.00    +0.000 N 
ATOM     10  C   UNL     1       6.853   4.481  14.299  0.00  0.00    +0.000 C 
ATOM     11  O   UNL     1       6.377   3.725  13.461  0.00  0.00    +0.000 OA
ATOM     12  H   UNL     1       8.123   5.428  12.991  0.00  0.00    +0.000 HD
ATOM     13  H   UNL     1       8.235   5.999  14.640  0.00  0.00    +0.000 HD
ENDBRANCH   4  10
ENDBRANCH   2   7
ENDBRANCH   1   2
BRANCH   1  14
ATOM     14  C   UNL     1       3.352   6.746  17.742  0.00  0.00    +0.000 C 
BRANCH  14  15
ATOM     15  C   UNL     1       2.508   7.657  18.609  0.00  0.00    +0.000 A 
ATOM     16  C   UNL     1       1.984   8.866  18.146  0.00  0.00    +0.000 A 
ATOM     17  C   UNL     1       1.184   9.663  18.965  0.00  0.00    +0.000 A 
ATOM     18  C   UNL     1       0.854   9.280  20.273  0.00  0.00    +0.000 A 
ATOM     19  C   UNL     1       1.408   8.077  20.744  0.00  0.00    +0.000 A 
ATOM     20  C   UNL     1       2.225   7.280  19.928  0.00  0.00    +0.000 A 
BRANCH  18  21
ATOM     21  C   UNL     1      -0.058  10.112  21.089  0.00  0.00    +0.000 A 
ATOM     22  C   UNL     1      -0.758  11.192  20.513  0.00  0.00    +0.000 A 
ATOM     23  C   UNL     1      -1.604  12.007  21.267  0.00  0.00    +0.000 A 
ATOM     24  C   UNL     1      -1.786  11.748  22.620  0.00  0.00    +0.000 A 
ATOM     25  C   UNL     1      -1.119  10.679  23.215  0.00  0.00    +0.000 A 
ATOM     26  C   UNL     1      -0.261   9.874  22.459  0.00  0.00    +0.000 A 
ENDBRANCH  18  21
ENDBRANCH  14  15
ENDBRANCH   1  14
TORSDOF 6
ENDMDL
MODEL 8
REMARK VINA RESULT:      -7.9      2.359      4.356
REMARK  Name = 
REMARK  6 active torsions:
REMARK  status: ('A' for Active; 'I' for Inactive)
REMARK    1  A    between atoms: C_2  and  C_4
REMARK    2  A    between atoms: C_7  and  C_8
REMARK    3  A    between atoms: C_8  and  C_10
REMARK    4  A    between atoms: C_10  and  C_11
REMARK    5  A    between atoms: C_11  and  C_12
REMARK    6  A    between atoms: C_15  and  C_16
REMARK                            x       y       z     vdW  Elec       q    Type
REMARK                         _______ _______ _______ _____ _____    ______ ____
ROOT
ATOM      1  C   UNL     1       2.610   4.381  18.841  0.00  0.00    +0.000 C 
ENDROOT
BRANCH   1   2
ATOM      2  C   UNL     1       3.736   3.376  18.726  0.00  0.00    +0.000 C 
ATOM      3  O   UNL     1       3.611   2.215  19.119  0.00  0.00    +0.000 OA
BRANCH   2   7
ATOM      4  C   UNL     1       6.333   4.402  16.545  0.00  0.00    +0.000 A 
ATOM      5  C   UNL     1       6.859   4.749  17.768  0.00  0.00    +0.000 A 
ATOM      6  N   UNL     1       5.974   4.429  18.771  0.00  0.00    +0.000 NA
ATOM      7  C   UNL     1       4.947   3.902  18.129  0.00  0.00    +0.000 A 
ATOM      8  O   UNL     1       5.091   3.861  16.768  0.00  0.00    +0.000 OA
BRANCH   4  10
ATOM      9  N   UNL     1       6.253   3.667  14.303  0.00  0.00    +0.000 N 
ATOM     10  C   UNL     1       6.842   4.508  15.206  0.00  0.00    +0.000 C 
ATOM     11  O   UNL     1       7.728   5.279  14.857  0.00  0.00    +0.000 OA
ATOM     12  H   UNL     1       6.548   3.706  13.339  0.00  0.00    +0.000 HD
ATOM     13  H   UNL     1       5.492   3.057  14.572  0.00  0.00    +0.000 HD
ENDBRANCH   4  10
ENDBRANCH   2   7
ENDBRANCH   1   2
BRANCH   1  14
ATOM     14  C   UNL     1       2.791   5.370  19.991  0.00  0.00    +0.000 C 
BRANCH  14  15
ATOM     15  C   UNL     1       2.296   6.768  19.691  0.00  0.00    +0.000 A 
ATOM     16  C   UNL     1       2.453   7.372  18.440  0.00  0.00    +0.000 A 
ATOM     17  C   UNL     1       1.955   8.651  18.192  0.00  0.00    +0.000 A 
ATOM     18  C   UNL     1       1.261   9.375  19.171  0.00  0.00    +0.000 A 
ATOM     19  C   UNL     1       1.132   8.776  20.436  0.00  0.00    +0.000 A 
ATOM     20  C   UNL     1       1.645   7.496  20.695  0.00  0.00    +0.000 A 
BRANCH  18  21
ATOM     21  C   UNL     1       0.681  10.699  18.852  0.00  0.00    +0.000 A 
ATOM     22  C   UNL     1      -0.702  10.843  18.619  0.00  0.00    +0.000 A 
ATOM     23  C   UNL     1      -1.269  12.076  18.292  0.00  0.00    +0.000 A 
ATOM     24  C   UNL     1      -0.465  13.205  18.209  0.00  0.00    +0.000 A 
ATOM     25  C   UNL     1       0.903  13.098  18.448  0.00  0.00    +0.000 A 
ATOM     26  C   UNL     1       1.470  11.858  18.760  0.00  0.00    +0.000 A 
ENDBRANCH  18  21
ENDBRANCH  14  15
ENDBRANCH   1  14
TORSDOF 6
ENDMDL
MODEL 9
REMARK VINA RESULT:      -7.9      2.955      4.626
REMARK  Name = 
REMARK  6 active torsions:
REMARK  status: ('A' for Active; 'I' for Inactive)
REMARK    1  A    between atoms: C_2  and  C_4
REMARK    2  A    between atoms: C_7  and  C_8
REMARK    3  A    between atoms: C_8  and  C_10
REMARK    4  A    between atoms: C_10  and  C_11
REMARK    5  A    between atoms: C_11  and  C_12
REMARK    6  A    between atoms: C_15  and  C_16
REMARK                            x       y       z     vdW  Elec       q    Type
REMARK                         _______ _______ _______ _____ _____    ______ ____
ROOT
ATOM      1  C   UNL     1       5.160   6.147  17.753  0.00  0.00    +0.000 C 
ENDROOT
BRANCH   1   2
ATOM      2  C   UNL     1       5.566   4.766  17.289  0.00  0.00    +0.000 C 
ATOM      3  O   UNL     1       5.478   3.782  18.027  0.00  0.00    +0.000 OA
BRANCH   2   7
ATOM      4  C   UNL     1       6.130   4.103  13.855  0.00  0.00    +0.000 A 
ATOM      5  C   UNL     1       7.179   4.947  14.139  0.00  0.00    +0.000 A 
ATOM      6  N   UNL     1       7.131   5.332  15.458  0.00  0.00    +0.000 NA
ATOM      7  C   UNL     1       6.062   4.713  15.929  0.00  0.00    +0.000 A 
ATOM      8  O   UNL     1       5.397   3.953  15.005  0.00  0.00    +0.000 OA
BRANCH   4  10
ATOM      9  N   UNL     1       6.683   2.591  12.128  0.00  0.00    +0.000 N 
ATOM     10  C   UNL     1       5.733   3.422  12.654  0.00  0.00    +0.000 C 
ATOM     11  O   UNL     1       4.640   3.542  12.114  0.00  0.00    +0.000 OA
ATOM     12  H   UNL     1       6.462   2.064  11.296  0.00  0.00    +0.000 HD
ATOM     13  H   UNL     1       7.573   2.453  12.588  0.00  0.00    +0.000 HD
ENDBRANCH   4  10
ENDBRANCH   2   7
ENDBRANCH   1   2
BRANCH   1  14
ATOM     14  C   UNL     1       3.846   6.633  17.144  0.00  0.00    +0.000 C 
BRANCH  14  15
ATOM     15  C   UNL     1       2.934   7.342  18.122  0.00  0.00    +0.000 A 
ATOM     16  C   UNL     1       2.670   6.849  19.402  0.00  0.00    +0.000 A 
ATOM     17  C   UNL     1       1.849   7.547  20.287  0.00  0.00    +0.000 A 
ATOM     18  C   UNL     1       1.272   8.778  19.943  0.00  0.00    +0.000 A 
ATOM     19  C   UNL     1       1.516   9.255  18.644  0.00  0.00    +0.000 A 
ATOM     20  C   UNL     1       2.329   8.548  17.745  0.00  0.00    +0.000 A 
BRANCH  18  21
ATOM     21  C   UNL     1       0.466   9.529  20.931  0.00  0.00    +0.000 A 
ATOM     22  C   UNL     1      -0.190  10.723  20.568  0.00  0.00    +0.000 A 
ATOM     23  C   UNL     1      -0.935  11.463  21.488  0.00  0.00    +0.000 A 
ATOM     24  C   UNL     1      -1.060  11.012  22.796  0.00  0.00    +0.000 A 
ATOM     25  C   UNL     1      -0.435   9.829  23.182  0.00  0.00    +0.000 A 
ATOM     26  C   UNL     1       0.323   9.098  22.261  0.00  0.00    +0.000 A 
ENDBRANCH  18  21
ENDBRANCH  14  15
ENDBRANCH   1  14
TORSDOF 6
ENDMDL
