MODEL 1
REMARK VINA RESULT:      -8.0      0.000      0.000
REMARK  Name = 
REMARK  5 active torsions:
REMARK  status: ('A' for Active; 'I' for Inactive)
REMARK    1  A    between atoms: C_1  and  C_2
REMARK    2  A    between atoms: C_2  and  C_19
REMARK    3  A    between atoms: N_3  and  N_4
REMARK    4  A    between atoms: C_7  and  C_8
REMARK    5  A    between atoms: C_11  and  N_12
REMARK                            x       y       z     vdW  Elec       q    Type
REMARK                         _______ _______ _______ _____ _____    ______ ____
ROOT
ATOM      1  N   UNL     1       1.329   8.997  17.827  0.00  0.00    +0.000 N 
ATOM      2  C   UNL     1       0.998  10.129  18.512  0.00  0.00    +0.000 A 
ATOM      3  N   UNL     1      -0.004  10.189  19.366  0.00  0.00    +0.000 NA
ATOM      4  C   UNL     1      -0.057  11.442  19.969  0.00  0.00    +0.000 A 
ATOM      5  C   UNL     1       0.856  12.354  19.478  0.00  0.00    +0.000 A 
ATOM      6  S   UNL     1       1.858  11.614  18.311  0.00  0.00    +0.000 S 
ATOM      7  H   UNL     1       0.784   8.185  18.115  0.00  0.00    +0.000 HD
ENDROOT
BRANCH   4   8
ATOM      8  C   UNL     1      -1.010  11.751  21.034  0.00  0.00    +0.000 A 
ATOM      9  C   UNL     1      -2.035  12.691  20.840  0.00  0.00    +0.000 A 
ATOM     10  C   UNL     1      -2.938  12.995  21.864  0.00  0.00    +0.000 A 
ATOM     11  C   UNL     1      -2.820  12.356  23.100  0.00  0.00    +0.000 A 
ATOM     12  C   UNL     1      -1.801  11.416  23.318  0.00  0.00    +0.000 A 
ATOM     13  C   UNL     1      -0.901  11.122  22.285  0.00  0.00    +0.000 A 
BRANCH  11  14
ATOM     14  N   UNL     1      -3.761  12.682  24.183  0.00  0.00    +0.000 N 
ATOM     15  O   UNL     1      -3.693  13.819  24.677  0.00  0.00    +0.000 OA
ATOM     16  O   UNL     1      -4.559  11.807  24.534  0.00  0.00    +0.000 OA
ENDBRANCH  11  14
ENDBRANCH   4   8
BRANCH   1  19
ATOM     17  C   UNL     1       4.692   7.691  17.207  0.00  0.00    +0.000 C 
ATOM     18  C   UNL     1       3.242   7.689  17.665  0.00  0.00    +0.000 C 
ATOM     19  N   UNL     1       2.595   8.777  17.363  0.00  0.00    +0.000 NA
BRANCH  18  20
ATOM     20  C   UNL     1       2.747   6.478  18.412  0.00  0.00    +0.000 A 
ATOM     21  C   UNL     1       2.936   5.260  17.874  0.00  0.00    +0.000 A 
ATOM     22  C   UNL     1       2.360   4.077  18.494  0.00  0.00    +0.000 A 
ATOM     23  C   UNL     1       2.544   2.795  17.977  0.00  0.00    +0.000 A 
ATOM     24  C   UNL     1       1.889   1.706  18.561  0.00  0.00    +0.000 A 
ATOM     25  C   UNL     1       1.033   1.896  19.649  0.00  0.00    +0.000 A 
ATOM     26  C   UNL     1       0.849   3.173  20.173  0.00  0.00    +0.000 A 
ATOM     27  C   UNL     1       1.529   4.243  19.596  0.00  0.00    +0.000 A 
ATOM     28  O   UNL     1       1.378   5.501  20.196  0.00  0.00    +0.000 OA
ATOM     29  C   UNL     1       2.151   6.575  19.773  0.00  0.00    +0.000 A 
ATOM     30  O   UNL     1       2.298   7.554  20.495  0.00  0.00    +0.000 OA
ENDBRANCH  18  20
ENDBRANCH   1  19
TORSDOF 4
ENDMDL
MODEL 2
REMARK VINA RESULT:      -7.9      0.067      1.069
REMARK  Name = 
REMARK  5 active torsions:
REMARK  status: ('A' for Active; 'I' for Inactive)
REMARK    1  A    between atoms: C_1  and  C_2
REMARK    2  A    between atoms: C_2  and  C_19
REMARK    3  A    between atoms: N_3  and  N_4
REMARK    4  A    between atoms: C_7  and  C_8
REMARK    5  A    between atoms: C_11  and  N_12
REMARK                            x       y       z     vdW  Elec       q    Type
REMARK                         _______ _______ _______ _____ _____    ______ ____
ROOT
ATOM      1  N   UNL     1       1.345   9.007  17.816  0.00  0.00    +0.000 N 
ATOM      2  C   UNL     1       1.022  10.146  18.494  0.00  0.00    +0.000 A 
ATOM      3  N   UNL     1       0.024  10.216  19.353  0.00  0.00    +0.000 NA
ATOM      4  C   UNL     1      -0.021  11.473  19.946  0.00  0.00    +0.000 A 
ATOM      5  C   UNL     1       0.893  12.378  19.443  0.00  0.00    +0.000 A 
ATOM      6  S   UNL     1       1.886  11.626  18.277  0.00  0.00    +0.000 S 
ATOM      7  H   UNL     1       0.798   8.199  18.113  0.00  0.00    +0.000 HD
ENDROOT
BRANCH   4   8
ATOM      8  C   UNL     1      -0.968  11.794  21.014  0.00  0.00    +0.000 A 
ATOM      9  C   UNL     1      -0.904  11.146  22.259  0.00  0.00    +0.000 A 
ATOM     10  C   UNL     1      -1.816  11.445  23.275  0.00  0.00    +0.000 A 
ATOM     11  C   UNL     1      -2.811  12.400  23.050  0.00  0.00    +0.000 A 
ATOM     12  C   UNL     1      -2.896  13.057  21.813  0.00  0.00    +0.000 A 
ATOM     13  C   UNL     1      -1.976  12.747  20.802  0.00  0.00    +0.000 A 
BRANCH  11  14
ATOM     14  N   UNL     1      -3.780  12.709  24.113  0.00  0.00    +0.000 N 
ATOM     15  O   UNL     1      -4.466  11.770  24.550  0.00  0.00    +0.000 OA
ATOM     16  O   UNL     1      -3.852  13.877  24.504  0.00  0.00    +0.000 OA
ENDBRANCH  11  14
ENDBRANCH   4   8
BRANCH   1  19
ATOM     17  C   UNL     1       4.700   7.684  17.188  0.00  0.00    +0.000 C 
ATOM     18  C   UNL     1       3.252   7.691  17.653  0.00  0.00    +0.000 C 
ATOM     19  N   UNL     1       2.608   8.779  17.347  0.00  0.00    +0.000 NA
BRANCH  18  20
ATOM     20  C   UNL     1       2.757   6.487  18.411  0.00  0.00    +0.000 A 
ATOM     21  C   UNL     1       2.951   5.264  17.887  0.00  0.00    +0.000 A 
ATOM     22  C   UNL     1       2.375   4.087  18.518  0.00  0.00    +0.000 A 
ATOM     23  C   UNL     1       2.563   2.799  18.016  0.00  0.00    +0.000 A 
ATOM     24  C   UNL     1       1.908   1.715  18.609  0.00  0.00    +0.000 A 
ATOM     25  C   UNL     1       1.048   1.915  19.692  0.00  0.00    +0.000 A 
ATOM     26  C   UNL     1       0.859   3.198  20.201  0.00  0.00    +0.000 A 
ATOM     27  C   UNL     1       1.538   4.263  19.615  0.00  0.00    +0.000 A 
ATOM     28  O   UNL     1       1.383   5.527  20.200  0.00  0.00    +0.000 OA
ATOM     29  C   UNL     1       2.155   6.598  19.768  0.00  0.00    +0.000 A 
ATOM     30  O   UNL     1       2.297   7.585  20.480  0.00  0.00    +0.000 OA
ENDBRANCH  18  20
ENDBRANCH   1  19
TORSDOF 4
ENDMDL
MODEL 3
REMARK VINA RESULT:      -7.8      3.181      8.801
REMARK  Name = 
REMARK  5 active torsions:
REMARK  status: ('A' for Active; 'I' for Inactive)
REMARK    1  A    between atoms: C_1  and  C_2
REMARK    2  A    between atoms: C_2  and  C_19
REMARK    3  A    between atoms: N_3  and  N_4
REMARK    4  A    between atoms: C_7  and  C_8
REMARK    5  A    between atoms: C_11  and  N_12
REMARK                            x       y       z     vdW  Elec       q    Type
REMARK                         _______ _______ _______ _____ _____    ______ ____
ROOT
ATOM      1  N   UNL     1       1.361  10.811  18.442  0.00  0.00    +0.000 N 
ATOM      2  C   UNL     1       1.444   9.745  19.289  0.00  0.00    +0.000 A 
ATOM      3  N   UNL     1       1.816   8.542  18.900  0.00  0.00    +0.000 NA
ATOM      4  C   UNL     1       1.882   7.677  19.988  0.00  0.00    +0.000 A 
ATOM      5  C   UNL     1       1.454   8.223  21.182  0.00  0.00    +0.000 A 
ATOM      6  S   UNL     1       1.049   9.866  20.966  0.00  0.00    +0.000 S 
ATOM      7  H   UNL     1       1.706  10.602  17.505  0.00  0.00    +0.000 HD
ENDROOT
BRANCH   4   8
ATOM      8  C   UNL     1       2.367   6.303  19.858  0.00  0.00    +0.000 A 
ATOM      9  C   UNL     1       1.823   5.266  20.633  0.00  0.00    +0.000 A 
ATOM     10  C   UNL     1       2.296   3.955  20.518  0.00  0.00    +0.000 A 
ATOM     11  C   UNL     1       3.328   3.671  19.620  0.00  0.00    +0.000 A 
ATOM     12  C   UNL     1       3.889   4.692  18.838  0.00  0.00    +0.000 A 
ATOM     13  C   UNL     1       3.407   6.002  18.965  0.00  0.00    +0.000 A 
BRANCH  11  14
ATOM     14  N   UNL     1       3.836   2.295  19.504  0.00  0.00    +0.000 N 
ATOM     15  O   UNL     1       4.804   1.982  20.216  0.00  0.00    +0.000 OA
ATOM     16  O   UNL     1       3.272   1.538  18.708  0.00  0.00    +0.000 OA
ENDBRANCH  11  14
ENDBRANCH   4   8
BRANCH   1  19
ATOM     17  C   UNL     1       0.738  14.275  19.448  0.00  0.00    +0.000 C 
ATOM     18  C   UNL     1       0.423  12.822  19.129  0.00  0.00    +0.000 C 
ATOM     19  N   UNL     1       1.476  12.098  18.886  0.00  0.00    +0.000 NA
BRANCH  18  20
ATOM     20  C   UNL     1      -1.026  12.410  19.108  0.00  0.00    +0.000 A 
ATOM     21  C   UNL     1      -1.563  11.981  17.952  0.00  0.00    +0.000 A 
ATOM     22  C   UNL     1      -2.987  11.699  17.856  0.00  0.00    +0.000 A 
ATOM     23  C   UNL     1      -3.581  11.239  16.681  0.00  0.00    +0.000 A 
ATOM     24  C   UNL     1      -4.969  11.075  16.618  0.00  0.00    +0.000 A 
ATOM     25  C   UNL     1      -5.768  11.388  17.721  0.00  0.00    +0.000 A 
ATOM     26  C   UNL     1      -5.180  11.842  18.898  0.00  0.00    +0.000 A 
ATOM     27  C   UNL     1      -3.795  11.976  18.953  0.00  0.00    +0.000 A 
ATOM     28  O   UNL     1      -3.232  12.365  20.176  0.00  0.00    +0.000 OA
ATOM     29  C   UNL     1      -1.853  12.360  20.345  0.00  0.00    +0.000 A 
ATOM     30  O   UNL     1      -1.367  12.342  21.469  0.00  0.00    +0.000 OA
ENDBRANCH  18  20
ENDBRANCH   1  19
TORSDOF 4
ENDMDL
MODEL 4
REMARK VINA RESULT:      -7.7      3.444      4.970
REMARK  Name = 
REMARK  5 active torsions:
REMARK  status: ('A' for Active; 'I' for Inactive)
REMARK    1  A    between atoms: C_1  and  C_2
REMARK    2  A    between atoms: C_2  and  C_19
REMARK    3  A    between atoms: N_3  and  N_4
REMARK    4  A    between atoms: C_7  and  C_8
REMARK    5  A    between atoms: C_11  and  N_12
REMARK                            x       y       z     vdW  Elec       q    Type
REMARK                         _______ _______ _______ _____ _____    ______ ____
ROOT
ATOM      1  N   UNL     1       1.837   7.421  20.639  0.00  0.00    +0.000 N 
ATOM      2  C   UNL     1       1.158   8.570  20.920  0.00  0.00    +0.000 A 
ATOM      3  N   UNL     1       1.419   9.724  20.338  0.00  0.00    +0.000 NA
ATOM      4  C   UNL     1       0.521  10.698  20.762  0.00  0.00    +0.000 A 
ATOM      5  C   UNL     1      -0.351  10.284  21.749  0.00  0.00    +0.000 A 
ATOM      6  S   UNL     1      -0.112   8.629  22.090  0.00  0.00    +0.000 S 
ATOM      7  H   UNL     1       2.497   7.528  19.869  0.00  0.00    +0.000 HD
ENDROOT
BRANCH   4   8
ATOM      8  C   UNL     1       0.517  12.048  20.198  0.00  0.00    +0.000 A 
ATOM      9  C   UNL     1      -0.475  12.978  20.550  0.00  0.00    +0.000 A 
ATOM     10  C   UNL     1      -0.485  14.264  20.001  0.00  0.00    +0.000 A 
ATOM     11  C   UNL     1       0.504  14.631  19.086  0.00  0.00    +0.000 A 
ATOM     12  C   UNL     1       1.503  13.717  18.717  0.00  0.00    +0.000 A 
ATOM     13  C   UNL     1       1.501  12.430  19.273  0.00  0.00    +0.000 A 
BRANCH  11  14
ATOM     14  N   UNL     1       0.490  15.979  18.498  0.00  0.00    +0.000 N 
ATOM     15  O   UNL     1      -0.618  16.491  18.270  0.00  0.00    +0.000 OA
ATOM     16  O   UNL     1       1.577  16.518  18.267  0.00  0.00    +0.000 OA
ENDBRANCH  11  14
ENDBRANCH   4   8
BRANCH   1  19
ATOM     17  C   UNL     1       0.850   3.907  20.369  0.00  0.00    +0.000 C 
ATOM     18  C   UNL     1       1.693   5.154  20.154  0.00  0.00    +0.000 C 
ATOM     19  N   UNL     1       1.281   6.188  20.829  0.00  0.00    +0.000 NA
BRANCH  18  20
ATOM     20  C   UNL     1       2.854   5.057  19.199  0.00  0.00    +0.000 A 
ATOM     21  C   UNL     1       4.101   5.226  19.672  0.00  0.00    +0.000 A 
ATOM     22  C   UNL     1       5.238   5.271  18.766  0.00  0.00    +0.000 A 
ATOM     23  C   UNL     1       6.548   5.430  19.216  0.00  0.00    +0.000 A 
ATOM     24  C   UNL     1       7.593   5.561  18.294  0.00  0.00    +0.000 A 
ATOM     25  C   UNL     1       7.329   5.554  16.922  0.00  0.00    +0.000 A 
ATOM     26  C   UNL     1       6.023   5.391  16.467  0.00  0.00    +0.000 A 
ATOM     27  C   UNL     1       4.999   5.236  17.397  0.00  0.00    +0.000 A 
ATOM     28  O   UNL     1       3.709   4.999  16.902  0.00  0.00    +0.000 OA
ATOM     29  C   UNL     1       2.674   4.675  17.771  0.00  0.00    +0.000 A 
ATOM     30  O   UNL     1       1.663   4.125  17.351  0.00  0.00    +0.000 OA
ENDBRANCH  18  20
ENDBRANCH   1  19
TORSDOF 4
ENDMDL
MODEL 5
REMARK VINA RESULT:      -7.7      3.454      4.967
REMARK  Name = 
REMARK  5 active torsions:
REMARK  status: ('A' for Active; 'I' for Inactive)
REMARK    1  A    between atoms: C_1  and  C_2
REMARK    2  A    between atoms: C_2  and  C_19
REMARK    3  A    between atoms: N_3  and  N_4
REMARK    4  A    between atoms: C_7  and  C_8
REMARK    5  A    between atoms: C_11  and  N_12
REMARK                            x       y       z     vdW  Elec       q    Type
REMARK                         _______ _______ _______ _____ _____    ______ ____
ROOT
ATOM      1  N   UNL     1       1.883   7.393  20.481  0.00  0.00    +0.000 N 
ATOM      2  C   UNL     1       1.250   8.552  20.822  0.00  0.00    +0.000 A 
ATOM      3  N   UNL     1       1.457   9.697  20.203  0.00  0.00    +0.000 NA
ATOM      4  C   UNL     1       0.621  10.685  20.712  0.00  0.00    +0.000 A 
ATOM      5  C   UNL     1      -0.144  10.290  21.792  0.00  0.00    +0.000 A 
ATOM      6  S   UNL     1       0.115   8.636  22.122  0.00  0.00    +0.000 S 
ATOM      7  H   UNL     1       2.457   7.485  19.644  0.00  0.00    +0.000 HD
ENDROOT
BRANCH   4   8
ATOM      8  C   UNL     1       0.569  12.029  20.138  0.00  0.00    +0.000 A 
ATOM      9  C   UNL     1       1.501  12.442  19.171  0.00  0.00    +0.000 A 
ATOM     10  C   UNL     1       1.457  13.731  18.632  0.00  0.00    +0.000 A 
ATOM     11  C   UNL     1       0.475  14.626  19.062  0.00  0.00    +0.000 A 
ATOM     12  C   UNL     1      -0.464  14.237  20.029  0.00  0.00    +0.000 A 
ATOM     13  C   UNL     1      -0.409  12.942  20.564  0.00  0.00    +0.000 A 
BRANCH  11  14
ATOM     14  N   UNL     1       0.433  15.987  18.505  0.00  0.00    +0.000 N 
ATOM     15  O   UNL     1       1.519  16.548  18.286  0.00  0.00    +0.000 OA
ATOM     16  O   UNL     1      -0.675  16.487  18.290  0.00  0.00    +0.000 OA
ENDBRANCH  11  14
ENDBRANCH   4   8
BRANCH   1  19
ATOM     17  C   UNL     1       0.922   3.862  20.413  0.00  0.00    +0.000 C 
ATOM     18  C   UNL     1       1.753   5.101  20.123  0.00  0.00    +0.000 C 
ATOM     19  N   UNL     1       1.339   6.167  20.743  0.00  0.00    +0.000 NA
BRANCH  18  20
ATOM     20  C   UNL     1       2.906   4.961  19.164  0.00  0.00    +0.000 A 
ATOM     21  C   UNL     1       4.155   5.171  19.614  0.00  0.00    +0.000 A 
ATOM     22  C   UNL     1       5.284   5.176  18.697  0.00  0.00    +0.000 A 
ATOM     23  C   UNL     1       6.596   5.376  19.124  0.00  0.00    +0.000 A 
ATOM     24  C   UNL     1       7.631   5.464  18.186  0.00  0.00    +0.000 A 
ATOM     25  C   UNL     1       7.355   5.373  16.820  0.00  0.00    +0.000 A 
ATOM     26  C   UNL     1       6.048   5.168  16.387  0.00  0.00    +0.000 A 
ATOM     27  C   UNL     1       5.033   5.057  17.334  0.00  0.00    +0.000 A 
ATOM     28  O   UNL     1       3.742   4.777  16.867  0.00  0.00    +0.000 OA
ATOM     29  C   UNL     1       2.719   4.493  17.763  0.00  0.00    +0.000 A 
ATOM     30  O   UNL     1       1.711   3.908  17.386  0.00  0.00    +0.000 OA
ENDBRANCH  18  20
ENDBRANCH   1  19
TORSDOF 4
ENDMDL
MODEL 6
REMARK VINA RESULT:      -7.7      3.449      9.149
REMARK  Name = 
REMARK  5 active torsions:
REMARK  status: ('A' for Active; 'I' for Inactive)
REMARK    1  A    between atoms: C_1  and  C_2
REMARK    2  A    between atoms: C_2  and  C_19
REMARK    3  A    between atoms: N_3  and  N_4
REMARK    4  A    between atoms: C_7  and  C_8
REMARK    5  A    between atoms: C_11  and  N_12
REMARK                            x       y       z     vdW  Elec       q    Type
REMARK                         _______ _______ _______ _____ _____    ______ ____
ROOT
ATOM      1  N   UNL     1       0.165  10.792  18.889  0.00  0.00    +0.000 N 
ATOM      2  C   UNL     1       0.633   9.792  19.689  0.00  0.00    +0.000 A 
ATOM      3  N   UNL     1       1.078   8.642  19.222  0.00  0.00    +0.000 NA
ATOM      4  C   UNL     1       1.561   7.849  20.257  0.00  0.00    +0.000 A 
ATOM      5  C   UNL     1       1.377   8.378  21.519  0.00  0.00    +0.000 A 
ATOM      6  S   UNL     1       0.674   9.929  21.411  0.00  0.00    +0.000 S 
ATOM      7  H   UNL     1       0.283  10.595  17.896  0.00  0.00    +0.000 HD
ENDROOT
BRANCH   4   8
ATOM      8  C   UNL     1       2.208   6.561  20.011  0.00  0.00    +0.000 A 
ATOM      9  C   UNL     1       3.220   6.430  19.047  0.00  0.00    +0.000 A 
ATOM     10  C   UNL     1       3.830   5.195  18.804  0.00  0.00    +0.000 A 
ATOM     11  C   UNL     1       3.424   4.072  19.529  0.00  0.00    +0.000 A 
ATOM     12  C   UNL     1       2.412   4.177  20.494  0.00  0.00    +0.000 A 
ATOM     13  C   UNL     1       1.808   5.421  20.727  0.00  0.00    +0.000 A 
BRANCH  11  14
ATOM     14  N   UNL     1       4.055   2.768  19.268  0.00  0.00    +0.000 N 
ATOM     15  O   UNL     1       4.901   2.369  20.085  0.00  0.00    +0.000 OA
ATOM     16  O   UNL     1       3.707   2.152  18.256  0.00  0.00    +0.000 OA
ENDBRANCH  11  14
ENDBRANCH   4   8
BRANCH   1  19
ATOM     17  C   UNL     1      -0.667  14.285  19.599  0.00  0.00    +0.000 C 
ATOM     18  C   UNL     1      -0.904  12.813  19.306  0.00  0.00    +0.000 C 
ATOM     19  N   UNL     1       0.185  12.101  19.281  0.00  0.00    +0.000 NA
BRANCH  18  20
ATOM     20  C   UNL     1      -2.322  12.368  19.061  0.00  0.00    +0.000 A 
ATOM     21  C   UNL     1      -3.277  12.733  19.935  0.00  0.00    +0.000 A 
ATOM     22  C   UNL     1      -4.632  12.218  19.811  0.00  0.00    +0.000 A 
ATOM     23  C   UNL     1      -5.655  12.582  20.686  0.00  0.00    +0.000 A 
ATOM     24  C   UNL     1      -6.915  11.984  20.576  0.00  0.00    +0.000 A 
ATOM     25  C   UNL     1      -7.150  11.006  19.606  0.00  0.00    +0.000 A 
ATOM     26  C   UNL     1      -6.134  10.642  18.725  0.00  0.00    +0.000 A 
ATOM     27  C   UNL     1      -4.894  11.266  18.832  0.00  0.00    +0.000 A 
ATOM     28  O   UNL     1      -3.919  10.929  17.883  0.00  0.00    +0.000 OA
ATOM     29  C   UNL     1      -2.720  11.629  17.832  0.00  0.00    +0.000 A 
ATOM     30  O   UNL     1      -2.030  11.602  16.820  0.00  0.00    +0.000 OA
ENDBRANCH  18  20
ENDBRANCH   1  19
TORSDOF 4
ENDMDL
MODEL 7
REMARK VINA RESULT:      -7.6      3.777     10.222
REMARK  Name = 
REMARK  5 active torsions:
REMARK  status: ('A' for Active; 'I' for Inactive)
REMARK    1  A    between atoms: C_1  and  C_2
REMARK    2  A    between atoms: C_2  and  C_19
REMARK    3  A    between atoms: N_3  and  N_4
REMARK    4  A    between atoms: C_7  and  C_8
REMARK    5  A    between atoms: C_11  and  N_12
REMARK                            x       y       z     vdW  Elec       q    Type
REMARK                         _______ _______ _______ _____ _____    ______ ____
ROOT
ATOM      1  N   UNL     1       1.230   8.135  19.925  0.00  0.00    +0.000 N 
ATOM      2  C   UNL     1       1.931   7.038  19.519  0.00  0.00    +0.000 A 
ATOM      3  N   UNL     1       2.644   7.007  18.411  0.00  0.00    +0.000 NA
ATOM      4  C   UNL     1       3.309   5.791  18.292  0.00  0.00    +0.000 A 
ATOM      5  C   UNL     1       3.002   4.871  19.275  0.00  0.00    +0.000 A 
ATOM      6  S   UNL     1       1.938   5.562  20.417  0.00  0.00    +0.000 S 
ATOM      7  H   UNL     1       1.392   8.951  19.336  0.00  0.00    +0.000 HD
ENDROOT
BRANCH   4   8
ATOM      8  C   UNL     1       4.253   5.525  17.207  0.00  0.00    +0.000 A 
ATOM      9  C   UNL     1       4.770   6.569  16.422  0.00  0.00    +0.000 A 
ATOM     10  C   UNL     1       5.663   6.313  15.378  0.00  0.00    +0.000 A 
ATOM     11  C   UNL     1       6.047   4.997  15.106  0.00  0.00    +0.000 A 
ATOM     12  C   UNL     1       5.541   3.938  15.874  0.00  0.00    +0.000 A 
ATOM     13  C   UNL     1       4.644   4.208  16.917  0.00  0.00    +0.000 A 
BRANCH  11  14
ATOM     14  N   UNL     1       6.977   4.722  14.000  0.00  0.00    +0.000 N 
ATOM     15  O   UNL     1       6.658   3.835  13.192  0.00  0.00    +0.000 OA
ATOM     16  O   UNL     1       8.016   5.388  13.942  0.00  0.00    +0.000 OA
ENDBRANCH  11  14
ENDBRANCH   4   8
BRANCH   1  19
ATOM     17  C   UNL     1       0.477   9.631  23.180  0.00  0.00    +0.000 C 
ATOM     18  C   UNL     1       0.613   9.541  21.669  0.00  0.00    +0.000 C 
ATOM     19  N   UNL     1       0.928   8.353  21.240  0.00  0.00    +0.000 NA
BRANCH  18  20
ATOM     20  C   UNL     1       0.397  10.801  20.872  0.00  0.00    +0.000 A 
ATOM     21  C   UNL     1       1.275  11.811  21.003  0.00  0.00    +0.000 A 
ATOM     22  C   UNL     1       1.035  13.091  20.356  0.00  0.00    +0.000 A 
ATOM     23  C   UNL     1       1.926  14.159  20.454  0.00  0.00    +0.000 A 
ATOM     24  C   UNL     1       1.599  15.397  19.889  0.00  0.00    +0.000 A 
ATOM     25  C   UNL     1       0.373  15.577  19.243  0.00  0.00    +0.000 A 
ATOM     26  C   UNL     1      -0.519  14.512  19.137  0.00  0.00    +0.000 A 
ATOM     27  C   UNL     1      -0.167  13.280  19.682  0.00  0.00    +0.000 A 
ATOM     28  O   UNL     1      -1.056  12.213  19.492  0.00  0.00    +0.000 OA
ATOM     29  C   UNL     1      -0.693  10.925  19.866  0.00  0.00    +0.000 A 
ATOM     30  O   UNL     1      -1.278   9.957  19.395  0.00  0.00    +0.000 OA
ENDBRANCH  18  20
ENDBRANCH   1  19
TORSDOF 4
ENDMDL
MODEL 8
REMARK VINA RESULT:      -7.6      3.430      9.205
REMARK  Name = 
REMARK  5 active torsions:
REMARK  status: ('A' for Active; 'I' for Inactive)
REMARK    1  A    between atoms: C_1  and  C_2
REMARK    2  A    between atoms: C_2  and  C_19
REMARK    3  A    between atoms: N_3  and  N_4
REMARK    4  A    between atoms: C_7  and  C_8
REMARK    5  A    between atoms: C_11  and  N_12
REMARK                            x       y       z     vdW  Elec       q    Type
REMARK                         _______ _______ _______ _____ _____    ______ ____
ROOT
ATOM      1  N   UNL     1       0.077  10.838  19.066  0.00  0.00    +0.000 N 
ATOM      2  C   UNL     1       0.557   9.834  19.856  0.00  0.00    +0.000 A 
ATOM      3  N   UNL     1       0.987   8.683  19.379  0.00  0.00    +0.000 NA
ATOM      4  C   UNL     1       1.487   7.886  20.404  0.00  0.00    +0.000 A 
ATOM      5  C   UNL     1       1.329   8.414  21.670  0.00  0.00    +0.000 A 
ATOM      6  S   UNL     1       0.631   9.969  21.577  0.00  0.00    +0.000 S 
ATOM      7  H   UNL     1       0.176  10.641  18.071  0.00  0.00    +0.000 HD
ENDROOT
BRANCH   4   8
ATOM      8  C   UNL     1       2.123   6.595  20.143  0.00  0.00    +0.000 A 
ATOM      9  C   UNL     1       1.673   5.424  20.775  0.00  0.00    +0.000 A 
ATOM     10  C   UNL     1       2.290   4.193  20.535  0.00  0.00    +0.000 A 
ATOM     11  C   UNL     1       3.373   4.124  19.655  0.00  0.00    +0.000 A 
ATOM     12  C   UNL     1       3.842   5.281  19.015  0.00  0.00    +0.000 A 
ATOM     13  C   UNL     1       3.216   6.510  19.266  0.00  0.00    +0.000 A 
BRANCH  11  14
ATOM     14  N   UNL     1       4.032   2.832  19.408  0.00  0.00    +0.000 N 
ATOM     15  O   UNL     1       3.448   2.025  18.667  0.00  0.00    +0.000 OA
ATOM     16  O   UNL     1       5.123   2.629  19.951  0.00  0.00    +0.000 OA
ENDBRANCH  11  14
ENDBRANCH   4   8
BRANCH   1  19
ATOM     17  C   UNL     1      -0.717  14.340  19.774  0.00  0.00    +0.000 C 
ATOM     18  C   UNL     1      -0.969  12.870  19.477  0.00  0.00    +0.000 C 
ATOM     19  N   UNL     1       0.111  12.146  19.459  0.00  0.00    +0.000 NA
BRANCH  18  20
ATOM     20  C   UNL     1      -2.391  12.443  19.222  0.00  0.00    +0.000 A 
ATOM     21  C   UNL     1      -3.350  12.833  20.080  0.00  0.00    +0.000 A 
ATOM     22  C   UNL     1      -4.711  12.336  19.947  0.00  0.00    +0.000 A 
ATOM     23  C   UNL     1      -5.738  12.725  20.806  0.00  0.00    +0.000 A 
ATOM     24  C   UNL     1      -7.005  12.144  20.689  0.00  0.00    +0.000 A 
ATOM     25  C   UNL     1      -7.244  11.159  19.728  0.00  0.00    +0.000 A 
ATOM     26  C   UNL     1      -6.224  10.769  18.863  0.00  0.00    +0.000 A 
ATOM     27  C   UNL     1      -4.976  11.376  18.976  0.00  0.00    +0.000 A 
ATOM     28  O   UNL     1      -3.996  11.014  18.042  0.00  0.00    +0.000 OA
ATOM     29  C   UNL     1      -2.786  11.696  17.997  0.00  0.00    +0.000 A 
ATOM     30  O   UNL     1      -2.086  11.647  16.993  0.00  0.00    +0.000 OA
ENDBRANCH  18  20
ENDBRANCH   1  19
TORSDOF 4
ENDMDL
MODEL 9
REMARK VINA RESULT:      -7.6      3.615      9.683
REMARK  Name = 
REMARK  5 active torsions:
REMARK  status: ('A' for Active; 'I' for Inactive)
REMARK    1  A    between atoms: C_1  and  C_2
REMARK    2  A    between atoms: C_2  and  C_19
REMARK    3  A    between atoms: N_3  and  N_4
REMARK    4  A    between atoms: C_7  and  C_8
REMARK    5  A    between atoms: C_11  and  N_12
REMARK                            x       y       z     vdW  Elec       q    Type
REMARK                         _______ _______ _______ _____ _____    ______ ____
ROOT
ATOM      1  N   UNL     1       0.414  10.595  19.542  0.00  0.00    +0.000 N 
ATOM      2  C   UNL     1       1.027   9.381  19.659  0.00  0.00    +0.000 A 
ATOM      3  N   UNL     1       1.671   8.800  18.667  0.00  0.00    +0.000 NA
ATOM      4  C   UNL     1       2.258   7.614  19.095  0.00  0.00    +0.000 A 
ATOM      5  C   UNL     1       1.957   7.262  20.396  0.00  0.00    +0.000 A 
ATOM      6  S   UNL     1       1.003   8.473  21.128  0.00  0.00    +0.000 S 
ATOM      7  H   UNL     1       0.587  11.042  18.643  0.00  0.00    +0.000 HD
ENDROOT
BRANCH   4   8
ATOM      8  C   UNL     1       3.120   6.816  18.225  0.00  0.00    +0.000 A 
ATOM      9  C   UNL     1       4.058   7.426  17.375  0.00  0.00    +0.000 A 
ATOM     10  C   UNL     1       4.873   6.662  16.534  0.00  0.00    +0.000 A 
ATOM     11  C   UNL     1       4.753   5.271  16.535  0.00  0.00    +0.000 A 
ATOM     12  C   UNL     1       3.821   4.639  17.372  0.00  0.00    +0.000 A 
ATOM     13  C   UNL     1       3.008   5.416  18.209  0.00  0.00    +0.000 A 
BRANCH  11  14
ATOM     14  N   UNL     1       5.602   4.464  15.643  0.00  0.00    +0.000 N 
ATOM     15  O   UNL     1       5.226   4.328  14.467  0.00  0.00    +0.000 OA
ATOM     16  O   UNL     1       6.631   3.974  16.116  0.00  0.00    +0.000 OA
ENDBRANCH  11  14
ENDBRANCH   4   8
BRANCH   1  19
ATOM     17  C   UNL     1      -0.862  13.093  21.894  0.00  0.00    +0.000 C 
ATOM     18  C   UNL     1      -0.874  12.129  20.718  0.00  0.00    +0.000 C 
ATOM     19  N   UNL     1       0.202  11.405  20.622  0.00  0.00    +0.000 NA
BRANCH  18  20
ATOM     20  C   UNL     1      -2.082  12.142  19.817  0.00  0.00    +0.000 A 
ATOM     21  C   UNL     1      -3.301  12.281  20.366  0.00  0.00    +0.000 A 
ATOM     22  C   UNL     1      -4.500  12.167  19.550  0.00  0.00    +0.000 A 
ATOM     23  C   UNL     1      -5.782  12.317  20.077  0.00  0.00    +0.000 A 
ATOM     24  C   UNL     1      -6.901  12.104  19.265  0.00  0.00    +0.000 A 
ATOM     25  C   UNL     1      -6.743  11.720  17.931  0.00  0.00    +0.000 A 
ATOM     26  C   UNL     1      -5.465  11.573  17.397  0.00  0.00    +0.000 A 
ATOM     27  C   UNL     1      -4.362  11.813  18.212  0.00  0.00    +0.000 A 
ATOM     28  O   UNL     1      -3.093  11.728  17.623  0.00  0.00    +0.000 OA
ATOM     29  C   UNL     1      -1.963  12.114  18.333  0.00  0.00    +0.000 A 
ATOM     30  O   UNL     1      -0.925  12.387  17.744  0.00  0.00    +0.000 OA
ENDBRANCH  18  20
ENDBRANCH   1  19
TORSDOF 4
ENDMDL
