MODEL 1
REMARK VINA RESULT:      -6.2      0.000      0.000
REMARK  Name = 
REMARK  13 active torsions:
REMARK  status: ('A' for Active; 'I' for Inactive)
REMARK    1  A    between atoms: C_1  and  N_2
REMARK    2  A    between atoms: N_2  and  C_3
REMARK    3  A    between atoms: C_11  and  N_12
REMARK    4  A    between atoms: C_13  and  C_15
REMARK    5  A    between atoms: C_15  and  C_16
REMARK    6  A    between atoms: C_16  and  C_17
REMARK    7  A    between atoms: C_17  and  O_19
REMARK    8  A    between atoms: C_24  and  O_25
REMARK    9  A    between atoms: O_25  and  C_26
REMARK   10  A    between atoms: C_27  and  O_28
REMARK   11  A    between atoms: O_28  and  C_29
REMARK   12  A    between atoms: C_30  and  O_31
REMARK   13  A    between atoms: O_31  and  C_32
REMARK                            x       y       z     vdW  Elec       q    Type
REMARK                         _______ _______ _______ _____ _____    ______ ____
ROOT
ATOM      1  C   UNL     1      -3.177  10.511  16.992  0.00  0.00    +0.000 A 
ATOM      2  C   UNL     1      -4.083  11.373  17.454  0.00  0.00    +0.000 A 
ATOM      3  C   UNL     1      -4.096  12.236  18.607  0.00  0.00    +0.000 A 
ATOM      4  C   UNL     1      -3.324  12.233  19.704  0.00  0.00    +0.000 A 
ATOM      5  C   UNL     1      -1.998  11.580  19.827  0.00  0.00    +0.000 A 
ATOM      6  C   UNL     1      -1.407  10.815  18.903  0.00  0.00    +0.000 A 
ATOM      7  C   UNL     1      -1.802  10.328  17.569  0.00  0.00    +0.000 A 
ATOM      8  O   UNL     1      -0.950   9.721  16.909  0.00  0.00    +0.000 OA
ATOM      9  C   UNL     1      -1.232  11.985  21.108  0.00  0.00    +0.000 C 
ATOM     10  C   UNL     1      -0.691  13.431  21.003  0.00  0.00    +0.000 C 
ATOM     11  C   UNL     1      -1.706  14.452  20.481  0.00  0.00    +0.000 C 
ATOM     12  C   UNL     1      -3.053  14.231  21.129  0.00  0.00    +0.000 A 
ATOM     13  C   UNL     1      -3.432  15.102  22.144  0.00  0.00    +0.000 A 
ATOM     14  C   UNL     1      -4.617  14.916  22.848  0.00  0.00    +0.000 A 
ATOM     15  C   UNL     1      -5.446  13.802  22.554  0.00  0.00    +0.000 A 
ATOM     16  C   UNL     1      -5.068  12.891  21.523  0.00  0.00    +0.000 A 
ATOM     17  C   UNL     1      -3.859  13.115  20.802  0.00  0.00    +0.000 A 
ENDROOT
BRANCH   9  18
ATOM     18  N   UNL     1      -0.130  11.075  21.404  0.00  0.00    +0.000 N 
ATOM     19  C   UNL     1      -0.179  10.194  22.460  0.00  0.00    +0.000 C 
ATOM     20  O   UNL     1      -1.108  10.139  23.259  0.00  0.00    +0.000 OA
ATOM     21  H   UNL     1       0.588  10.947  20.701  0.00  0.00    +0.000 HD
BRANCH  19  22
ATOM     22  C   UNL     1       1.047   9.315  22.575  0.00  0.00    +0.000 C 
BRANCH  22  23
ATOM     23  C   UNL     1       0.859   8.051  21.748  0.00  0.00    +0.000 C 
BRANCH  23  24
ATOM     24  C   UNL     1       1.597   8.125  20.439  0.00  0.00    +0.000 C 
ATOM     25  O   UNL     1       1.477   9.015  19.612  0.00  0.00    +0.000 OA
BRANCH  24  26
ATOM     26  O   UNL     1       2.428   7.072  20.260  0.00  0.00    +0.000 OA
ATOM     27  H   UNL     1       3.276   7.311  19.836  0.00  0.00    +0.000 HD
ENDBRANCH  24  26
ENDBRANCH  23  24
ENDBRANCH  22  23
ENDBRANCH  19  22
ENDBRANCH   9  18
BRANCH   1  29
ATOM     28  C   UNL     1      -3.443  10.112  14.513  0.00  0.00    +0.000 C 
ATOM     29  N   UNL     1      -3.433   9.680  15.894  0.00  0.00    +0.000 N 
ATOM     30  H   UNL     1      -3.007   8.759  16.039  0.00  0.00    +0.000 HD
ENDBRANCH   1  29
BRANCH  14  31
ATOM     31  O   UNL     1      -4.980  15.770  23.868  0.00  0.00    +0.000 OA
ATOM     32  C   UNL     1      -3.959  16.093  24.816  0.00  0.00    +0.000 C 
ENDBRANCH  14  31
BRANCH  15  33
ATOM     33  O   UNL     1      -6.577  13.736  23.342  0.00  0.00    +0.000 OA
ATOM     34  C   UNL     1      -6.747  12.674  24.271  0.00  0.00    +0.000 C 
ENDBRANCH  15  33
BRANCH  16  35
ATOM     35  O   UNL     1      -5.981  11.914  21.205  0.00  0.00    +0.000 OA
ATOM     36  C   UNL     1      -7.144  12.212  20.444  0.00  0.00    +0.000 C 
ENDBRANCH  16  35
TORSDOF 9
ENDMDL
MODEL 2
REMARK VINA RESULT:      -5.7      2.307      7.679
REMARK  Name = 
REMARK  13 active torsions:
REMARK  status: ('A' for Active; 'I' for Inactive)
REMARK    1  A    between atoms: C_1  and  N_2
REMARK    2  A    between atoms: N_2  and  C_3
REMARK    3  A    between atoms: C_11  and  N_12
REMARK    4  A    between atoms: C_13  and  C_15
REMARK    5  A    between atoms: C_15  and  C_16
REMARK    6  A    between atoms: C_16  and  C_17
REMARK    7  A    between atoms: C_17  and  O_19
REMARK    8  A    between atoms: C_24  and  O_25
REMARK    9  A    between atoms: O_25  and  C_26
REMARK   10  A    between atoms: C_27  and  O_28
REMARK   11  A    between atoms: O_28  and  C_29
REMARK   12  A    between atoms: C_30  and  O_31
REMARK   13  A    between atoms: O_31  and  C_32
REMARK                            x       y       z     vdW  Elec       q    Type
REMARK                         _______ _______ _______ _____ _____    ______ ____
ROOT
ATOM      1  C   UNL     1      -1.680  15.085  22.783  0.00  0.00    +0.000 A 
ATOM      2  C   UNL     1      -0.550  14.380  22.747  0.00  0.00    +0.000 A 
ATOM      3  C   UNL     1      -0.095  13.329  21.873  0.00  0.00    +0.000 A 
ATOM      4  C   UNL     1      -0.774  12.561  21.008  0.00  0.00    +0.000 A 
ATOM      5  C   UNL     1      -2.111  12.870  20.444  0.00  0.00    +0.000 A 
ATOM      6  C   UNL     1      -2.887  13.906  20.776  0.00  0.00    +0.000 A 
ATOM      7  C   UNL     1      -2.771  15.004  21.752  0.00  0.00    +0.000 A 
ATOM      8  O   UNL     1      -3.634  15.888  21.722  0.00  0.00    +0.000 OA
ATOM      9  C   UNL     1      -2.508  11.944  19.270  0.00  0.00    +0.000 C 
ATOM     10  C   UNL     1      -1.708  12.289  17.991  0.00  0.00    +0.000 C 
ATOM     11  C   UNL     1      -0.204  12.477  18.214  0.00  0.00    +0.000 C 
ATOM     12  C   UNL     1       0.329  11.400  19.130  0.00  0.00    +0.000 A 
ATOM     13  C   UNL     1       1.041  10.355  18.552  0.00  0.00    +0.000 A 
ATOM     14  C   UNL     1       1.491   9.282  19.314  0.00  0.00    +0.000 A 
ATOM     15  C   UNL     1       1.197   9.228  20.702  0.00  0.00    +0.000 A 
ATOM     16  C   UNL     1       0.458  10.287  21.310  0.00  0.00    +0.000 A 
ATOM     17  C   UNL     1       0.026  11.385  20.512  0.00  0.00    +0.000 A 
ENDROOT
BRANCH   9  18
ATOM     18  N   UNL     1      -3.937  12.003  18.979  0.00  0.00    +0.000 N 
ATOM     19  C   UNL     1      -4.572  11.019  18.257  0.00  0.00    +0.000 C 
ATOM     20  O   UNL     1      -3.994  10.058  17.758  0.00  0.00    +0.000 OA
ATOM     21  H   UNL     1      -4.503  12.668  19.490  0.00  0.00    +0.000 HD
BRANCH  19  22
ATOM     22  C   UNL     1      -6.058  11.248  18.094  0.00  0.00    +0.000 C 
BRANCH  22  23
ATOM     23  C   UNL     1      -6.703  11.465  19.456  0.00  0.00    +0.000 C 
BRANCH  23  24
ATOM     24  C   UNL     1      -7.235  10.181  20.033  0.00  0.00    +0.000 C 
ATOM     25  O   UNL     1      -7.436   9.973  21.219  0.00  0.00    +0.000 OA
BRANCH  24  26
ATOM     26  O   UNL     1      -7.468   9.250  19.080  0.00  0.00    +0.000 OA
ATOM     27  H   UNL     1      -6.948   8.431  19.198  0.00  0.00    +0.000 HD
ENDBRANCH  24  26
ENDBRANCH  23  24
ENDBRANCH  22  23
ENDBRANCH  19  22
ENDBRANCH   9  18
BRANCH   1  29
ATOM     28  C   UNL     1      -2.186  15.634  25.195  0.00  0.00    +0.000 C 
ATOM     29  N   UNL     1      -1.957  15.994  23.813  0.00  0.00    +0.000 N 
ATOM     30  H   UNL     1      -1.402  16.848  23.692  0.00  0.00    +0.000 HD
ENDBRANCH   1  29
BRANCH  14  31
ATOM     31  O   UNL     1       2.179   8.237  18.735  0.00  0.00    +0.000 OA
ATOM     32  C   UNL     1       2.798   8.510  17.474  0.00  0.00    +0.000 C 
ENDBRANCH  14  31
BRANCH  15  33
ATOM     33  O   UNL     1       1.691   8.100  21.325  0.00  0.00    +0.000 OA
ATOM     34  C   UNL     1       1.036   6.849  21.174  0.00  0.00    +0.000 C 
ENDBRANCH  15  33
BRANCH  16  35
ATOM     35  O   UNL     1       0.325  10.233  22.677  0.00  0.00    +0.000 OA
ATOM     36  C   UNL     1      -0.826   9.659  23.283  0.00  0.00    +0.000 C 
ENDBRANCH  16  35
TORSDOF 9
ENDMDL
MODEL 3
REMARK VINA RESULT:      -5.7      2.534      3.829
REMARK  Name = 
REMARK  13 active torsions:
REMARK  status: ('A' for Active; 'I' for Inactive)
REMARK    1  A    between atoms: C_1  and  N_2
REMARK    2  A    between atoms: N_2  and  C_3
REMARK    3  A    between atoms: C_11  and  N_12
REMARK    4  A    between atoms: C_13  and  C_15
REMARK    5  A    between atoms: C_15  and  C_16
REMARK    6  A    between atoms: C_16  and  C_17
REMARK    7  A    between atoms: C_17  and  O_19
REMARK    8  A    between atoms: C_24  and  O_25
REMARK    9  A    between atoms: O_25  and  C_26
REMARK   10  A    between atoms: C_27  and  O_28
REMARK   11  A    between atoms: O_28  and  C_29
REMARK   12  A    between atoms: C_30  and  O_31
REMARK   13  A    between atoms: O_31  and  C_32
REMARK                            x       y       z     vdW  Elec       q    Type
REMARK                         _______ _______ _______ _____ _____    ______ ____
ROOT
ATOM      1  C   UNL     1      -4.044  11.079  18.306  0.00  0.00    +0.000 A 
ATOM      2  C   UNL     1      -3.933  12.239  18.952  0.00  0.00    +0.000 A 
ATOM      3  C   UNL     1      -2.814  12.887  19.588  0.00  0.00    +0.000 A 
ATOM      4  C   UNL     1      -1.620  12.399  19.956  0.00  0.00    +0.000 A 
ATOM      5  C   UNL     1      -0.999  11.154  19.441  0.00  0.00    +0.000 A 
ATOM      6  C   UNL     1      -1.566  10.276  18.607  0.00  0.00    +0.000 A 
ATOM      7  C   UNL     1      -2.892  10.173  17.973  0.00  0.00    +0.000 A 
ATOM      8  O   UNL     1      -3.057   9.276  17.138  0.00  0.00    +0.000 OA
ATOM      9  C   UNL     1       0.488  11.002  19.838  0.00  0.00    +0.000 C 
ATOM     10  C   UNL     1       1.383  11.975  19.032  0.00  0.00    +0.000 C 
ATOM     11  C   UNL     1       0.854  13.410  18.958  0.00  0.00    +0.000 C 
ATOM     12  C   UNL     1       0.344  13.852  20.310  0.00  0.00    +0.000 A 
ATOM     13  C   UNL     1       1.148  14.705  21.057  0.00  0.00    +0.000 A 
ATOM     14  C   UNL     1       0.790  15.089  22.344  0.00  0.00    +0.000 A 
ATOM     15  C   UNL     1      -0.401  14.582  22.928  0.00  0.00    +0.000 A 
ATOM     16  C   UNL     1      -1.233  13.696  22.180  0.00  0.00    +0.000 A 
ATOM     17  C   UNL     1      -0.855  13.334  20.855  0.00  0.00    +0.000 A 
ENDROOT
BRANCH   9  18
ATOM     18  N   UNL     1       0.971   9.637  19.659  0.00  0.00    +0.000 N 
ATOM     19  C   UNL     1       1.193   8.799  20.727  0.00  0.00    +0.000 C 
ATOM     20  O   UNL     1       1.062   9.139  21.899  0.00  0.00    +0.000 OA
ATOM     21  H   UNL     1       0.944   9.237  18.729  0.00  0.00    +0.000 HD
BRANCH  19  22
ATOM     22  C   UNL     1       1.659   7.416  20.329  0.00  0.00    +0.000 C 
BRANCH  22  23
ATOM     23  C   UNL     1       2.418   7.484  19.011  0.00  0.00    +0.000 C 
BRANCH  23  24
ATOM     24  C   UNL     1       3.201   6.225  18.752  0.00  0.00    +0.000 C 
ATOM     25  O   UNL     1       3.299   5.667  17.671  0.00  0.00    +0.000 OA
BRANCH  24  26
ATOM     26  O   UNL     1       3.798   5.755  19.871  0.00  0.00    +0.000 OA
ATOM     27  H   UNL     1       3.751   6.373  20.627  0.00  0.00    +0.000 HD
ENDBRANCH  24  26
ENDBRANCH  23  24
ENDBRANCH  22  23
ENDBRANCH  19  22
ENDBRANCH   9  18
BRANCH   1  29
ATOM     28  C   UNL     1      -6.558  11.221  18.115  0.00  0.00    +0.000 C 
ATOM     29  N   UNL     1      -5.281  10.590  17.863  0.00  0.00    +0.000 N 
ATOM     30  H   UNL     1      -5.190  10.195  16.921  0.00  0.00    +0.000 HD
ENDBRANCH   1  29
BRANCH  14  31
ATOM     31  O   UNL     1       1.600  15.920  23.090  0.00  0.00    +0.000 OA
ATOM     32  C   UNL     1       2.935  16.099  22.610  0.00  0.00    +0.000 C 
ENDBRANCH  14  31
BRANCH  15  33
ATOM     33  O   UNL     1      -0.619  15.034  24.213  0.00  0.00    +0.000 OA
ATOM     34  C   UNL     1      -1.502  16.121  24.454  0.00  0.00    +0.000 C 
ENDBRANCH  15  33
BRANCH  16  35
ATOM     35  O   UNL     1      -2.432  13.351  22.757  0.00  0.00    +0.000 OA
ATOM     36  C   UNL     1      -2.612  12.085  23.380  0.00  0.00    +0.000 C 
ENDBRANCH  16  35
TORSDOF 9
ENDMDL
MODEL 4
REMARK VINA RESULT:      -5.6      3.644      7.007
REMARK  Name = 
REMARK  13 active torsions:
REMARK  status: ('A' for Active; 'I' for Inactive)
REMARK    1  A    between atoms: C_1  and  N_2
REMARK    2  A    between atoms: N_2  and  C_3
REMARK    3  A    between atoms: C_11  and  N_12
REMARK    4  A    between atoms: C_13  and  C_15
REMARK    5  A    between atoms: C_15  and  C_16
REMARK    6  A    between atoms: C_16  and  C_17
REMARK    7  A    between atoms: C_17  and  O_19
REMARK    8  A    between atoms: C_24  and  O_25
REMARK    9  A    between atoms: O_25  and  C_26
REMARK   10  A    between atoms: C_27  and  O_28
REMARK   11  A    between atoms: O_28  and  C_29
REMARK   12  A    between atoms: C_30  and  O_31
REMARK   13  A    between atoms: O_31  and  C_32
REMARK                            x       y       z     vdW  Elec       q    Type
REMARK                         _______ _______ _______ _____ _____    ______ ____
ROOT
ATOM      1  C   UNL     1      -1.523  14.500  23.915  0.00  0.00    +0.000 A 
ATOM      2  C   UNL     1      -2.307  13.523  23.459  0.00  0.00    +0.000 A 
ATOM      3  C   UNL     1      -2.337  12.813  22.205  0.00  0.00    +0.000 A 
ATOM      4  C   UNL     1      -1.766  13.104  21.027  0.00  0.00    +0.000 A 
ATOM      5  C   UNL     1      -0.629  14.035  20.824  0.00  0.00    +0.000 A 
ATOM      6  C   UNL     1      -0.057  14.798  21.761  0.00  0.00    +0.000 A 
ATOM      7  C   UNL     1      -0.320  15.036  23.191  0.00  0.00    +0.000 A 
ATOM      8  O   UNL     1       0.492  15.731  23.813  0.00  0.00    +0.000 OA
ATOM      9  C   UNL     1      -0.014  13.950  19.407  0.00  0.00    +0.000 C 
ATOM     10  C   UNL     1       0.807  12.650  19.231  0.00  0.00    +0.000 C 
ATOM     11  C   UNL     1       0.105  11.384  19.732  0.00  0.00    +0.000 C 
ATOM     12  C   UNL     1      -1.345  11.384  19.307  0.00  0.00    +0.000 A 
ATOM     13  C   UNL     1      -1.705  10.573  18.238  0.00  0.00    +0.000 A 
ATOM     14  C   UNL     1      -3.000  10.580  17.732  0.00  0.00    +0.000 A 
ATOM     15  C   UNL     1      -3.972  11.452  18.291  0.00  0.00    +0.000 A 
ATOM     16  C   UNL     1      -3.618  12.300  19.382  0.00  0.00    +0.000 A 
ATOM     17  C   UNL     1      -2.289  12.258  19.896  0.00  0.00    +0.000 A 
ENDROOT
BRANCH   9  18
ATOM     18  N   UNL     1       0.829  15.101  19.101  0.00  0.00    +0.000 N 
ATOM     19  C   UNL     1       0.301  16.288  18.646  0.00  0.00    +0.000 C 
ATOM     20  O   UNL     1      -0.891  16.457  18.410  0.00  0.00    +0.000 OA
ATOM     21  H   UNL     1       1.789  15.092  19.424  0.00  0.00    +0.000 HD
BRANCH  19  22
ATOM     22  C   UNL     1       1.336  17.367  18.421  0.00  0.00    +0.000 C 
BRANCH  22  23
ATOM     23  C   UNL     1       2.613  17.028  19.177  0.00  0.00    +0.000 C 
BRANCH  23  24
ATOM     24  C   UNL     1       3.705  16.567  18.250  0.00  0.00    +0.000 C 
ATOM     25  O   UNL     1       3.568  15.757  17.348  0.00  0.00    +0.000 OA
BRANCH  24  26
ATOM     26  O   UNL     1       4.893  17.152  18.530  0.00  0.00    +0.000 OA
ATOM     27  H   UNL     1       5.393  16.701  19.238  0.00  0.00    +0.000 HD
ENDBRANCH  24  26
ENDBRANCH  23  24
ENDBRANCH  22  23
ENDBRANCH  19  22
ENDBRANCH   9  18
BRANCH   1  29
ATOM     28  C   UNL     1      -2.672  16.230  25.351  0.00  0.00    +0.000 C 
ATOM     29  N   UNL     1      -1.757  15.128  25.145  0.00  0.00    +0.000 N 
ATOM     30  H   UNL     1      -1.762  14.436  25.902  0.00  0.00    +0.000 HD
ENDBRANCH   1  29
BRANCH  14  31
ATOM     31  O   UNL     1      -3.350   9.789  16.658  0.00  0.00    +0.000 OA
ATOM     32  C   UNL     1      -2.860  10.207  15.380  0.00  0.00    +0.000 C 
ENDBRANCH  14  31
BRANCH  15  33
ATOM     33  O   UNL     1      -5.206  11.364  17.678  0.00  0.00    +0.000 OA
ATOM     34  C   UNL     1      -5.726  12.464  16.945  0.00  0.00    +0.000 C 
ENDBRANCH  15  33
BRANCH  16  35
ATOM     35  O   UNL     1      -4.640  13.017  19.955  0.00  0.00    +0.000 OA
ATOM     36  C   UNL     1      -5.558  12.405  20.853  0.00  0.00    +0.000 C 
ENDBRANCH  16  35
TORSDOF 9
ENDMDL
MODEL 5
REMARK VINA RESULT:      -5.6      8.787     12.889
REMARK  Name = 
REMARK  13 active torsions:
REMARK  status: ('A' for Active; 'I' for Inactive)
REMARK    1  A    between atoms: C_1  and  N_2
REMARK    2  A    between atoms: N_2  and  C_3
REMARK    3  A    between atoms: C_11  and  N_12
REMARK    4  A    between atoms: C_13  and  C_15
REMARK    5  A    between atoms: C_15  and  C_16
REMARK    6  A    between atoms: C_16  and  C_17
REMARK    7  A    between atoms: C_17  and  O_19
REMARK    8  A    between atoms: C_24  and  O_25
REMARK    9  A    between atoms: O_25  and  C_26
REMARK   10  A    between atoms: C_27  and  O_28
REMARK   11  A    between atoms: O_28  and  C_29
REMARK   12  A    between atoms: C_30  and  O_31
REMARK   13  A    between atoms: O_31  and  C_32
REMARK                            x       y       z     vdW  Elec       q    Type
REMARK                         _______ _______ _______ _____ _____    ______ ____
ROOT
ATOM      1  C   UNL     1       6.791  13.720  24.731  0.00  0.00    +0.000 A 
ATOM      2  C   UNL     1       8.083  13.706  24.405  0.00  0.00    +0.000 A 
ATOM      3  C   UNL     1       8.782  14.100  23.208  0.00  0.00    +0.000 A 
ATOM      4  C   UNL     1       8.322  14.342  21.971  0.00  0.00    +0.000 A 
ATOM      5  C   UNL     1       6.915  14.648  21.618  0.00  0.00    +0.000 A 
ATOM      6  C   UNL     1       5.871  14.639  22.454  0.00  0.00    +0.000 A 
ATOM      7  C   UNL     1       5.703  14.314  23.881  0.00  0.00    +0.000 A 
ATOM      8  O   UNL     1       4.596  14.529  24.388  0.00  0.00    +0.000 OA
ATOM      9  C   UNL     1       6.745  15.154  20.165  0.00  0.00    +0.000 C 
ATOM     10  C   UNL     1       7.269  16.601  20.013  0.00  0.00    +0.000 C 
ATOM     11  C   UNL     1       8.639  16.851  20.651  0.00  0.00    +0.000 C 
ATOM     12  C   UNL     1       9.578  15.707  20.343  0.00  0.00    +0.000 A 
ATOM     13  C   UNL     1      10.542  15.909  19.362  0.00  0.00    +0.000 A 
ATOM     14  C   UNL     1      11.387  14.880  18.960  0.00  0.00    +0.000 A 
ATOM     15  C   UNL     1      11.251  13.589  19.534  0.00  0.00    +0.000 A 
ATOM     16  C   UNL     1      10.260  13.360  20.535  0.00  0.00    +0.000 A 
ATOM     17  C   UNL     1       9.420  14.436  20.944  0.00  0.00    +0.000 A 
ENDROOT
BRANCH   9  18
ATOM     18  N   UNL     1       5.357  15.091  19.717  0.00  0.00    +0.000 N 
ATOM     19  C   UNL     1       5.028  14.805  18.412  0.00  0.00    +0.000 C 
ATOM     20  O   UNL     1       5.855  14.638  17.521  0.00  0.00    +0.000 OA
ATOM     21  H   UNL     1       4.628  15.053  20.419  0.00  0.00    +0.000 HD
BRANCH  19  22
ATOM     22  C   UNL     1       3.538  14.753  18.159  0.00  0.00    +0.000 C 
BRANCH  22  23
ATOM     23  C   UNL     1       2.864  13.868  19.200  0.00  0.00    +0.000 C 
BRANCH  23  24
ATOM     24  C   UNL     1       2.238  12.650  18.576  0.00  0.00    +0.000 C 
ATOM     25  O   UNL     1       1.572  11.819  19.171  0.00  0.00    +0.000 OA
BRANCH  24  26
ATOM     26  O   UNL     1       2.502  12.561  17.252  0.00  0.00    +0.000 OA
ATOM     27  H   UNL     1       3.443  12.387  17.052  0.00  0.00    +0.000 HD
ENDBRANCH  24  26
ENDBRANCH  23  24
ENDBRANCH  22  23
ENDBRANCH  19  22
ENDBRANCH   9  18
BRANCH   1  29
ATOM     28  C   UNL     1       6.447  11.780  26.310  0.00  0.00    +0.000 C 
ATOM     29  N   UNL     1       6.321  13.171  25.931  0.00  0.00    +0.000 N 
ATOM     30  H   UNL     1       6.469  13.828  26.704  0.00  0.00    +0.000 HD
ENDBRANCH   1  29
BRANCH  14  31
ATOM     31  O   UNL     1      12.329  15.078  17.972  0.00  0.00    +0.000 OA
ATOM     32  C   UNL     1      12.333  16.367  17.352  0.00  0.00    +0.000 C 
ENDBRANCH  14  31
BRANCH  15  33
ATOM     33  O   UNL     1      12.143  12.666  19.028  0.00  0.00    +0.000 OA
ATOM     34  C   UNL     1      11.739  11.751  18.019  0.00  0.00    +0.000 C 
ENDBRANCH  15  33
BRANCH  16  35
ATOM     35  O   UNL     1      10.273  12.125  21.137  0.00  0.00    +0.000 OA
ATOM     36  C   UNL     1       9.348  11.112  20.762  0.00  0.00    +0.000 C 
ENDBRANCH  16  35
TORSDOF 9
ENDMDL
MODEL 6
REMARK VINA RESULT:      -5.6      2.834      5.700
REMARK  Name = 
REMARK  13 active torsions:
REMARK  status: ('A' for Active; 'I' for Inactive)
REMARK    1  A    between atoms: C_1  and  N_2
REMARK    2  A    between atoms: N_2  and  C_3
REMARK    3  A    between atoms: C_11  and  N_12
REMARK    4  A    between atoms: C_13  and  C_15
REMARK    5  A    between atoms: C_15  and  C_16
REMARK    6  A    between atoms: C_16  and  C_17
REMARK    7  A    between atoms: C_17  and  O_19
REMARK    8  A    between atoms: C_24  and  O_25
REMARK    9  A    between atoms: O_25  and  C_26
REMARK   10  A    between atoms: C_27  and  O_28
REMARK   11  A    between atoms: O_28  and  C_29
REMARK   12  A    between atoms: C_30  and  O_31
REMARK   13  A    between atoms: O_31  and  C_32
REMARK                            x       y       z     vdW  Elec       q    Type
REMARK                         _______ _______ _______ _____ _____    ______ ____
ROOT
ATOM      1  C   UNL     1       2.806  14.273  19.635  0.00  0.00    +0.000 A 
ATOM      2  C   UNL     1       2.222  14.630  20.779  0.00  0.00    +0.000 A 
ATOM      3  C   UNL     1       1.060  14.129  21.467  0.00  0.00    +0.000 A 
ATOM      4  C   UNL     1       0.065  13.340  21.034  0.00  0.00    +0.000 A 
ATOM      5  C   UNL     1       0.117  12.459  19.842  0.00  0.00    +0.000 A 
ATOM      6  C   UNL     1       1.120  12.382  18.961  0.00  0.00    +0.000 A 
ATOM      7  C   UNL     1       2.404  13.087  18.805  0.00  0.00    +0.000 A 
ATOM      8  O   UNL     1       3.174  12.680  17.927  0.00  0.00    +0.000 OA
ATOM      9  C   UNL     1      -1.070  11.470  19.760  0.00  0.00    +0.000 C 
ATOM     10  C   UNL     1      -0.926  10.337  20.805  0.00  0.00    +0.000 C 
ATOM     11  C   UNL     1      -0.550  10.815  22.211  0.00  0.00    +0.000 C 
ATOM     12  C   UNL     1      -1.353  12.040  22.581  0.00  0.00    +0.000 A 
ATOM     13  C   UNL     1      -2.422  11.872  23.454  0.00  0.00    +0.000 A 
ATOM     14  C   UNL     1      -3.262  12.933  23.777  0.00  0.00    +0.000 A 
ATOM     15  C   UNL     1      -3.050  14.207  23.186  0.00  0.00    +0.000 A 
ATOM     16  C   UNL     1      -1.964  14.395  22.280  0.00  0.00    +0.000 A 
ATOM     17  C   UNL     1      -1.105  13.297  21.981  0.00  0.00    +0.000 A 
ENDROOT
BRANCH   9  18
ATOM     18  N   UNL     1      -1.212  10.887  18.430  0.00  0.00    +0.000 N 
ATOM     19  C   UNL     1      -2.427  10.837  17.785  0.00  0.00    +0.000 C 
ATOM     20  O   UNL     1      -3.480  11.218  18.286  0.00  0.00    +0.000 OA
ATOM     21  H   UNL     1      -0.373  10.706  17.893  0.00  0.00    +0.000 HD
BRANCH  19  22
ATOM     22  C   UNL     1      -2.357  10.227  16.403  0.00  0.00    +0.000 C 
BRANCH  22  23
ATOM     23  C   UNL     1      -3.413  10.855  15.504  0.00  0.00    +0.000 C 
BRANCH  23  24
ATOM     24  C   UNL     1      -3.545  10.118  14.198  0.00  0.00    +0.000 C 
ATOM     25  O   UNL     1      -4.596   9.744  13.704  0.00  0.00    +0.000 OA
BRANCH  24  26
ATOM     26  O   UNL     1      -2.345   9.898  13.612  0.00  0.00    +0.000 OA
ATOM     27  H   UNL     1      -2.040   8.972  13.682  0.00  0.00    +0.000 HD
ENDBRANCH  24  26
ENDBRANCH  23  24
ENDBRANCH  22  23
ENDBRANCH  19  22
ENDBRANCH   9  18
BRANCH   1  29
ATOM     28  C   UNL     1       5.195  15.089  19.689  0.00  0.00    +0.000 C 
ATOM     29  N   UNL     1       3.881  14.991  19.093  0.00  0.00    +0.000 N 
ATOM     30  H   UNL     1       3.892  14.896  18.072  0.00  0.00    +0.000 HD
ENDBRANCH   1  29
BRANCH  14  31
ATOM     31  O   UNL     1      -4.333  12.759  24.626  0.00  0.00    +0.000 OA
ATOM     32  C   UNL     1      -5.607  12.563  24.005  0.00  0.00    +0.000 C 
ENDBRANCH  14  31
BRANCH  15  33
ATOM     33  O   UNL     1      -3.968  15.157  23.585  0.00  0.00    +0.000 OA
ATOM     34  C   UNL     1      -3.677  16.030  24.667  0.00  0.00    +0.000 C 
ENDBRANCH  15  33
BRANCH  16  35
ATOM     35  O   UNL     1      -1.742  15.682  21.851  0.00  0.00    +0.000 OA
ATOM     36  C   UNL     1      -2.319  16.167  20.645  0.00  0.00    +0.000 C 
ENDBRANCH  16  35
TORSDOF 9
ENDMDL
MODEL 7
REMARK VINA RESULT:      -5.5      2.920      5.985
REMARK  Name = 
REMARK  13 active torsions:
REMARK  status: ('A' for Active; 'I' for Inactive)
REMARK    1  A    between atoms: C_1  and  N_2
REMARK    2  A    between atoms: N_2  and  C_3
REMARK    3  A    between atoms: C_11  and  N_12
REMARK    4  A    between atoms: C_13  and  C_15
REMARK    5  A    between atoms: C_15  and  C_16
REMARK    6  A    between atoms: C_16  and  C_17
REMARK    7  A    between atoms: C_17  and  O_19
REMARK    8  A    between atoms: C_24  and  O_25
REMARK    9  A    between atoms: O_25  and  C_26
REMARK   10  A    between atoms: C_27  and  O_28
REMARK   11  A    between atoms: O_28  and  C_29
REMARK   12  A    between atoms: C_30  and  O_31
REMARK   13  A    between atoms: O_31  and  C_32
REMARK                            x       y       z     vdW  Elec       q    Type
REMARK                         _______ _______ _______ _____ _____    ______ ____
ROOT
ATOM      1  C   UNL     1      -0.010  10.519  18.717  0.00  0.00    +0.000 A 
ATOM      2  C   UNL     1       0.633  11.109  19.724  0.00  0.00    +0.000 A 
ATOM      3  C   UNL     1       0.188  11.997  20.768  0.00  0.00    +0.000 A 
ATOM      4  C   UNL     1      -0.943  12.708  20.880  0.00  0.00    +0.000 A 
ATOM      5  C   UNL     1      -2.202  12.454  20.138  0.00  0.00    +0.000 A 
ATOM      6  C   UNL     1      -2.380  11.543  19.176  0.00  0.00    +0.000 A 
ATOM      7  C   UNL     1      -1.498  10.570  18.508  0.00  0.00    +0.000 A 
ATOM      8  O   UNL     1      -2.020   9.771  17.723  0.00  0.00    +0.000 OA
ATOM      9  C   UNL     1      -3.407  13.259  20.682  0.00  0.00    +0.000 C 
ATOM     10  C   UNL     1      -3.897  12.685  22.033  0.00  0.00    +0.000 C 
ATOM     11  C   UNL     1      -2.781  12.390  23.039  0.00  0.00    +0.000 C 
ATOM     12  C   UNL     1      -1.778  13.520  23.057  0.00  0.00    +0.000 A 
ATOM     13  C   UNL     1      -1.832  14.415  24.119  0.00  0.00    +0.000 A 
ATOM     14  C   UNL     1      -1.002  15.530  24.165  0.00  0.00    +0.000 A 
ATOM     15  C   UNL     1      -0.100  15.783  23.098  0.00  0.00    +0.000 A 
ATOM     16  C   UNL     1      -0.037  14.881  21.995  0.00  0.00    +0.000 A 
ATOM     17  C   UNL     1      -0.885  13.735  21.981  0.00  0.00    +0.000 A 
ENDROOT
BRANCH   9  18
ATOM     18  N   UNL     1      -4.519  13.294  19.737  0.00  0.00    +0.000 N 
ATOM     19  C   UNL     1      -5.556  14.189  19.870  0.00  0.00    +0.000 C 
ATOM     20  O   UNL     1      -5.661  14.977  20.804  0.00  0.00    +0.000 OA
ATOM     21  H   UNL     1      -4.420  12.795  18.862  0.00  0.00    +0.000 HD
BRANCH  19  22
ATOM     22  C   UNL     1      -6.590  14.087  18.771  0.00  0.00    +0.000 C 
BRANCH  22  23
ATOM     23  C   UNL     1      -7.623  13.026  19.127  0.00  0.00    +0.000 C 
BRANCH  23  24
ATOM     24  C   UNL     1      -7.151  11.644  18.766  0.00  0.00    +0.000 C 
ATOM     25  O   UNL     1      -6.380  11.378  17.859  0.00  0.00    +0.000 OA
BRANCH  24  26
ATOM     26  O   UNL     1      -7.689  10.695  19.567  0.00  0.00    +0.000 OA
ATOM     27  H   UNL     1      -7.112   9.915  19.690  0.00  0.00    +0.000 HD
ENDBRANCH  24  26
ENDBRANCH  23  24
ENDBRANCH  22  23
ENDBRANCH  19  22
ENDBRANCH   9  18
BRANCH   1  29
ATOM     28  C   UNL     1       2.033   9.323  17.840  0.00  0.00    +0.000 C 
ATOM     29  N   UNL     1       0.663   9.775  17.738  0.00  0.00    +0.000 N 
ATOM     30  H   UNL     1       0.028   9.090  17.315  0.00  0.00    +0.000 HD
ENDBRANCH   1  29
BRANCH  14  31
ATOM     31  O   UNL     1      -1.072  16.427  25.210  0.00  0.00    +0.000 OA
ATOM     32  C   UNL     1      -0.796  15.903  26.512  0.00  0.00    +0.000 C 
ENDBRANCH  14  31
BRANCH  15  33
ATOM     33  O   UNL     1       0.648  16.931  23.271  0.00  0.00    +0.000 OA
ATOM     34  C   UNL     1       0.260  18.144  22.643  0.00  0.00    +0.000 C 
ENDBRANCH  15  33
BRANCH  16  35
ATOM     35  O   UNL     1       0.948  15.117  21.067  0.00  0.00    +0.000 OA
ATOM     36  C   UNL     1       0.660  15.771  19.836  0.00  0.00    +0.000 C 
ENDBRANCH  16  35
TORSDOF 9
ENDMDL
MODEL 8
REMARK VINA RESULT:      -5.4      9.020     13.200
REMARK  Name = 
REMARK  13 active torsions:
REMARK  status: ('A' for Active; 'I' for Inactive)
REMARK    1  A    between atoms: C_1  and  N_2
REMARK    2  A    between atoms: N_2  and  C_3
REMARK    3  A    between atoms: C_11  and  N_12
REMARK    4  A    between atoms: C_13  and  C_15
REMARK    5  A    between atoms: C_15  and  C_16
REMARK    6  A    between atoms: C_16  and  C_17
REMARK    7  A    between atoms: C_17  and  O_19
REMARK    8  A    between atoms: C_24  and  O_25
REMARK    9  A    between atoms: O_25  and  C_26
REMARK   10  A    between atoms: C_27  and  O_28
REMARK   11  A    between atoms: O_28  and  C_29
REMARK   12  A    between atoms: C_30  and  O_31
REMARK   13  A    between atoms: O_31  and  C_32
REMARK                            x       y       z     vdW  Elec       q    Type
REMARK                         _______ _______ _______ _____ _____    ______ ____
ROOT
ATOM      1  C   UNL     1       7.015  13.222  24.912  0.00  0.00    +0.000 A 
ATOM      2  C   UNL     1       8.294  13.215  24.535  0.00  0.00    +0.000 A 
ATOM      3  C   UNL     1       8.958  13.721  23.361  0.00  0.00    +0.000 A 
ATOM      4  C   UNL     1       8.459  14.106  22.177  0.00  0.00    +0.000 A 
ATOM      5  C   UNL     1       7.048  14.480  21.914  0.00  0.00    +0.000 A 
ATOM      6  C   UNL     1       6.036  14.403  22.785  0.00  0.00    +0.000 A 
ATOM      7  C   UNL     1       5.912  13.929  24.174  0.00  0.00    +0.000 A 
ATOM      8  O   UNL     1       4.831  14.111  24.745  0.00  0.00    +0.000 OA
ATOM      9  C   UNL     1       6.838  15.144  20.533  0.00  0.00    +0.000 C 
ATOM     10  C   UNL     1       7.394  16.588  20.517  0.00  0.00    +0.000 C 
ATOM     11  C   UNL     1       8.793  16.736  21.123  0.00  0.00    +0.000 C 
ATOM     12  C   UNL     1       9.689  15.613  20.657  0.00  0.00    +0.000 A 
ATOM     13  C   UNL     1      10.621  15.899  19.666  0.00  0.00    +0.000 A 
ATOM     14  C   UNL     1      11.424  14.902  19.122  0.00  0.00    +0.000 A 
ATOM     15  C   UNL     1      11.275  13.559  19.559  0.00  0.00    +0.000 A 
ATOM     16  C   UNL     1      10.316  13.245  20.568  0.00  0.00    +0.000 A 
ATOM     17  C   UNL     1       9.520  14.288  21.123  0.00  0.00    +0.000 A 
ENDROOT
BRANCH   9  18
ATOM     18  N   UNL     1       5.434  15.161  20.136  0.00  0.00    +0.000 N 
ATOM     19  C   UNL     1       5.041  14.889  18.845  0.00  0.00    +0.000 C 
ATOM     20  O   UNL     1       5.823  14.670  17.926  0.00  0.00    +0.000 OA
ATOM     21  H   UNL     1       4.730  15.169  20.863  0.00  0.00    +0.000 HD
BRANCH  19  22
ATOM     22  C   UNL     1       3.542  14.923  18.646  0.00  0.00    +0.000 C 
BRANCH  22  23
ATOM     23  C   UNL     1       3.199  15.765  17.425  0.00  0.00    +0.000 C 
BRANCH  23  24
ATOM     24  C   UNL     1       2.389  16.979  17.792  0.00  0.00    +0.000 C 
ATOM     25  O   UNL     1       1.868  17.175  18.878  0.00  0.00    +0.000 OA
BRANCH  24  26
ATOM     26  O   UNL     1       2.288  17.855  16.766  0.00  0.00    +0.000 OA
ATOM     27  H   UNL     1       2.316  17.430  15.885  0.00  0.00    +0.000 HD
ENDBRANCH  24  26
ENDBRANCH  23  24
ENDBRANCH  22  23
ENDBRANCH  19  22
ENDBRANCH   9  18
BRANCH   1  29
ATOM     28  C   UNL     1       6.270  11.144  26.136  0.00  0.00    +0.000 C 
ATOM     29  N   UNL     1       6.575  12.556  26.063  0.00  0.00    +0.000 N 
ATOM     30  H   UNL     1       7.058  12.921  26.891  0.00  0.00    +0.000 HD
ENDBRANCH   1  29
BRANCH  14  31
ATOM     31  O   UNL     1      12.333  15.185  18.126  0.00  0.00    +0.000 OA
ATOM     32  C   UNL     1      11.876  16.048  17.080  0.00  0.00    +0.000 C 
ENDBRANCH  14  31
BRANCH  15  33
ATOM     33  O   UNL     1      12.124  12.677  18.922  0.00  0.00    +0.000 OA
ATOM     34  C   UNL     1      11.663  11.896  17.828  0.00  0.00    +0.000 C 
ENDBRANCH  15  33
BRANCH  16  35
ATOM     35  O   UNL     1      10.320  11.952  21.033  0.00  0.00    +0.000 OA
ATOM     36  C   UNL     1       9.350  11.008  20.594  0.00  0.00    +0.000 C 
ENDBRANCH  16  35
TORSDOF 9
ENDMDL
MODEL 9
REMARK VINA RESULT:      -5.4      2.680      3.736
REMARK  Name = 
REMARK  13 active torsions:
REMARK  status: ('A' for Active; 'I' for Inactive)
REMARK    1  A    between atoms: C_1  and  N_2
REMARK    2  A    between atoms: N_2  and  C_3
REMARK    3  A    between atoms: C_11  and  N_12
REMARK    4  A    between atoms: C_13  and  C_15
REMARK    5  A    between atoms: C_15  and  C_16
REMARK    6  A    between atoms: C_16  and  C_17
REMARK    7  A    between atoms: C_17  and  O_19
REMARK    8  A    between atoms: C_24  and  O_25
REMARK    9  A    between atoms: O_25  and  C_26
REMARK   10  A    between atoms: C_27  and  O_28
REMARK   11  A    between atoms: O_28  and  C_29
REMARK   12  A    between atoms: C_30  and  O_31
REMARK   13  A    between atoms: O_31  and  C_32
REMARK                            x       y       z     vdW  Elec       q    Type
REMARK                         _______ _______ _______ _____ _____    ______ ____
ROOT
ATOM      1  C   UNL     1      -4.516  11.719  18.781  0.00  0.00    +0.000 A 
ATOM      2  C   UNL     1      -4.552  12.605  19.776  0.00  0.00    +0.000 A 
ATOM      3  C   UNL     1      -3.538  13.445  20.360  0.00  0.00    +0.000 A 
ATOM      4  C   UNL     1      -2.201  13.391  20.262  0.00  0.00    +0.000 A 
ATOM      5  C   UNL     1      -1.440  12.684  19.203  0.00  0.00    +0.000 A 
ATOM      6  C   UNL     1      -1.958  11.915  18.239  0.00  0.00    +0.000 A 
ATOM      7  C   UNL     1      -3.322  11.471  17.903  0.00  0.00    +0.000 A 
ATOM      8  O   UNL     1      -3.474  10.845  16.847  0.00  0.00    +0.000 OA
ATOM      9  C   UNL     1       0.067  13.033  19.195  0.00  0.00    +0.000 C 
ATOM     10  C   UNL     1       0.307  14.459  18.644  0.00  0.00    +0.000 C 
ATOM     11  C   UNL     1      -0.623  15.528  19.223  0.00  0.00    +0.000 C 
ATOM     12  C   UNL     1      -0.767  15.347  20.716  0.00  0.00    +0.000 A 
ATOM     13  C   UNL     1      -0.058  16.212  21.543  0.00  0.00    +0.000 A 
ATOM     14  C   UNL     1      -0.069  16.058  22.925  0.00  0.00    +0.000 A 
ATOM     15  C   UNL     1      -0.788  14.983  23.510  0.00  0.00    +0.000 A 
ATOM     16  C   UNL     1      -1.512  14.079  22.677  0.00  0.00    +0.000 A 
ATOM     17  C   UNL     1      -1.502  14.270  21.265  0.00  0.00    +0.000 A 
ENDROOT
BRANCH   9  18
ATOM     18  N   UNL     1       0.852  12.075  18.423  0.00  0.00    +0.000 N 
ATOM     19  C   UNL     1       1.246  10.866  18.950  0.00  0.00    +0.000 C 
ATOM     20  O   UNL     1       1.025  10.523  20.107  0.00  0.00    +0.000 OA
ATOM     21  H   UNL     1       0.929  12.215  17.423  0.00  0.00    +0.000 HD
BRANCH  19  22
ATOM     22  C   UNL     1       2.021  10.004  17.979  0.00  0.00    +0.000 C 
BRANCH  22  23
ATOM     23  C   UNL     1       1.519   8.568  18.044  0.00  0.00    +0.000 C 
BRANCH  23  24
ATOM     24  C   UNL     1       2.638   7.596  18.301  0.00  0.00    +0.000 C 
ATOM     25  O   UNL     1       3.719   7.602  17.736  0.00  0.00    +0.000 OA
BRANCH  24  26
ATOM     26  O   UNL     1       2.314   6.682  19.245  0.00  0.00    +0.000 OA
ATOM     27  H   UNL     1       2.189   5.780  18.889  0.00  0.00    +0.000 HD
ENDBRANCH  24  26
ENDBRANCH  23  24
ENDBRANCH  22  23
ENDBRANCH  19  22
ENDBRANCH   9  18
BRANCH   1  29
ATOM     28  C   UNL     1      -6.912  11.423  18.043  0.00  0.00    +0.000 C 
ATOM     29  N   UNL     1      -5.620  10.920  18.456  0.00  0.00    +0.000 N 
ATOM     30  H   UNL     1      -5.316  10.085  17.945  0.00  0.00    +0.000 HD
ENDBRANCH   1  29
BRANCH  14  31
ATOM     31  O   UNL     1       0.651  16.905  23.741  0.00  0.00    +0.000 OA
ATOM     32  C   UNL     1       0.192  18.258  23.808  0.00  0.00    +0.000 C 
ENDBRANCH  14  31
BRANCH  15  33
ATOM     33  O   UNL     1      -0.695  14.944  24.887  0.00  0.00    +0.000 OA
ATOM     34  C   UNL     1      -1.750  15.447  25.694  0.00  0.00    +0.000 C 
ENDBRANCH  15  33
BRANCH  16  35
ATOM     35  O   UNL     1      -2.289  13.144  23.319  0.00  0.00    +0.000 OA
ATOM     36  C   UNL     1      -1.959  11.761  23.282  0.00  0.00    +0.000 C 
ENDBRANCH  16  35
TORSDOF 9
ENDMDL
