MODEL 1
REMARK VINA RESULT:      -8.3      0.000      0.000
REMARK  Name = 
REMARK  6 active torsions:
REMARK  status: ('A' for Active; 'I' for Inactive)
REMARK    1  A    between atoms: C_1  and  C_2
REMARK    2  A    between atoms: C_2  and  O_4
REMARK    3  A    between atoms: O_4  and  C_5
REMARK    4  A    between atoms: C_8  and  C_9
REMARK    5  A    between atoms: C_12  and  C_13
REMARK    6  A    between atoms: C_16  and  C_17
REMARK                            x       y       z     vdW  Elec       q    Type
REMARK                         _______ _______ _______ _____ _____    ______ ____
ROOT
ATOM      1  C   UNL     1       4.025   3.849  19.039  0.00  0.00    +0.000 C 
ATOM      2  C   UNL     1       3.136   4.769  19.438  0.00  0.00    +0.000 C 
ATOM      3  C   UNL     1       2.830   6.011  18.828  0.00  0.00    +0.000 C 
ATOM      4  C   UNL     1       2.127   6.689  19.734  0.00  0.00    +0.000 C 
ATOM      5  O   UNL     1       1.820   5.977  20.910  0.00  0.00    +0.000 OA
ATOM      6  C   UNL     1       2.402   4.733  20.735  0.00  0.00    +0.000 C 
ATOM      7  O   UNL     1       2.363   3.803  21.521  0.00  0.00    +0.000 OA
ENDROOT
BRANCH   4   8
ATOM      8  C   UNL     1       1.700   8.088  19.607  0.00  0.00    +0.000 A 
ATOM      9  C   UNL     1       1.084   8.779  20.656  0.00  0.00    +0.000 A 
ATOM     10  C   UNL     1       0.663  10.107  20.486  0.00  0.00    +0.000 A 
ATOM     11  C   UNL     1       0.860  10.767  19.271  0.00  0.00    +0.000 A 
ATOM     12  C   UNL     1       0.392  12.176  19.051  0.00  0.00    +0.000 C 
ATOM     13  C   UNL     1       1.510  10.098  18.231  0.00  0.00    +0.000 A 
ATOM     14  C   UNL     1       1.928   8.781  18.404  0.00  0.00    +0.000 A 
ENDBRANCH   4   8
BRANCH   1  18
ATOM     15  C   UNL     1       6.784   4.718  15.908  0.00  0.00    +0.000 A 
ATOM     16  C   UNL     1       7.154   4.866  17.244  0.00  0.00    +0.000 A 
ATOM     17  C   UNL     1       6.245   4.545  18.249  0.00  0.00    +0.000 A 
ATOM     18  C   UNL     1       4.956   4.096  17.929  0.00  0.00    +0.000 A 
ATOM     19  C   UNL     1       4.584   3.975  16.585  0.00  0.00    +0.000 A 
ATOM     20  C   UNL     1       5.501   4.286  15.570  0.00  0.00    +0.000 A 
BRANCH  15  21
ATOM     21  O   UNL     1       7.632   5.153  14.872  0.00  0.00    +0.000 OA
BRANCH  21  23
ATOM     22  C   UNL     1       8.074   5.623  12.606  0.00  0.00    +0.000 C 
ATOM     23  C   UNL     1       7.315   4.764  13.571  0.00  0.00    +0.000 C 
ATOM     24  O   UNL     1       6.568   3.852  13.240  0.00  0.00    +0.000 OA
ENDBRANCH  21  23
ENDBRANCH  15  21
ENDBRANCH   1  18
TORSDOF 4
ENDMDL
MODEL 2
REMARK VINA RESULT:      -8.3      0.573      1.127
REMARK  Name = 
REMARK  6 active torsions:
REMARK  status: ('A' for Active; 'I' for Inactive)
REMARK    1  A    between atoms: C_1  and  C_2
REMARK    2  A    between atoms: C_2  and  O_4
REMARK    3  A    between atoms: O_4  and  C_5
REMARK    4  A    between atoms: C_8  and  C_9
REMARK    5  A    between atoms: C_12  and  C_13
REMARK    6  A    between atoms: C_16  and  C_17
REMARK                            x       y       z     vdW  Elec       q    Type
REMARK                         _______ _______ _______ _____ _____    ______ ____
ROOT
ATOM      1  C   UNL     1       4.030   4.044  19.034  0.00  0.00    +0.000 C 
ATOM      2  C   UNL     1       3.108   4.868  19.551  0.00  0.00    +0.000 C 
ATOM      3  C   UNL     1       2.780   6.183  19.138  0.00  0.00    +0.000 C 
ATOM      4  C   UNL     1       2.040   6.692  20.122  0.00  0.00    +0.000 C 
ATOM      5  O   UNL     1       1.728   5.796  21.162  0.00  0.00    +0.000 OA
ATOM      6  C   UNL     1       2.347   4.610  20.807  0.00  0.00    +0.000 C 
ATOM      7  O   UNL     1       2.318   3.566  21.436  0.00  0.00    +0.000 OA
ENDROOT
BRANCH   4   8
ATOM      8  C   UNL     1       1.576   8.083  20.206  0.00  0.00    +0.000 A 
ATOM      9  C   UNL     1       1.187   8.667  21.415  0.00  0.00    +0.000 A 
ATOM     10  C   UNL     1       0.722   9.991  21.452  0.00  0.00    +0.000 A 
ATOM     11  C   UNL     1       0.649  10.753  20.283  0.00  0.00    +0.000 A 
ATOM     12  C   UNL     1       0.127  12.160  20.286  0.00  0.00    +0.000 C 
ATOM     13  C   UNL     1       1.074  10.191  19.077  0.00  0.00    +0.000 A 
ATOM     14  C   UNL     1       1.537   8.877  19.046  0.00  0.00    +0.000 A 
ENDBRANCH   4   8
BRANCH   1  18
ATOM     15  C   UNL     1       6.676   5.231  15.910  0.00  0.00    +0.000 A 
ATOM     16  C   UNL     1       5.298   5.207  15.705  0.00  0.00    +0.000 A 
ATOM     17  C   UNL     1       4.452   4.847  16.751  0.00  0.00    +0.000 A 
ATOM     18  C   UNL     1       4.976   4.487  18.001  0.00  0.00    +0.000 A 
ATOM     19  C   UNL     1       6.363   4.489  18.191  0.00  0.00    +0.000 A 
ATOM     20  C   UNL     1       7.216   4.863  17.143  0.00  0.00    +0.000 A 
BRANCH  15  21
ATOM     21  O   UNL     1       7.561   5.468  14.842  0.00  0.00    +0.000 OA
BRANCH  21  23
ATOM     22  C   UNL     1       8.033   5.532  12.535  0.00  0.00    +0.000 C 
ATOM     23  C   UNL     1       7.305   4.821  13.635  0.00  0.00    +0.000 C 
ATOM     24  O   UNL     1       6.628   3.813  13.472  0.00  0.00    +0.000 OA
ENDBRANCH  21  23
ENDBRANCH  15  21
ENDBRANCH   1  18
TORSDOF 4
ENDMDL
MODEL 3
REMARK VINA RESULT:      -8.2      0.350      1.034
REMARK  Name = 
REMARK  6 active torsions:
REMARK  status: ('A' for Active; 'I' for Inactive)
REMARK    1  A    between atoms: C_1  and  C_2
REMARK    2  A    between atoms: C_2  and  O_4
REMARK    3  A    between atoms: O_4  and  C_5
REMARK    4  A    between atoms: C_8  and  C_9
REMARK    5  A    between atoms: C_12  and  C_13
REMARK    6  A    between atoms: C_16  and  C_17
REMARK                            x       y       z     vdW  Elec       q    Type
REMARK                         _______ _______ _______ _____ _____    ______ ____
ROOT
ATOM      1  C   UNL     1       4.016   3.794  18.988  0.00  0.00    +0.000 C 
ATOM      2  C   UNL     1       3.131   4.680  19.464  0.00  0.00    +0.000 C 
ATOM      3  C   UNL     1       2.807   5.958  18.943  0.00  0.00    +0.000 C 
ATOM      4  C   UNL     1       2.118   6.570  19.905  0.00  0.00    +0.000 C 
ATOM      5  O   UNL     1       1.838   5.781  21.037  0.00  0.00    +0.000 OA
ATOM      6  C   UNL     1       2.422   4.555  20.769  0.00  0.00    +0.000 C 
ATOM      7  O   UNL     1       2.403   3.574  21.493  0.00  0.00    +0.000 OA
ENDROOT
BRANCH   4   8
ATOM      8  C   UNL     1       1.682   7.972  19.878  0.00  0.00    +0.000 A 
ATOM      9  C   UNL     1       1.660   8.724  18.699  0.00  0.00    +0.000 A 
ATOM     10  C   UNL     1       1.264  10.070  18.718  0.00  0.00    +0.000 A 
ATOM     11  C   UNL     1       0.876  10.682  19.913  0.00  0.00    +0.000 A 
ATOM     12  C   UNL     1       0.478  12.127  19.969  0.00  0.00    +0.000 C 
ATOM     13  C   UNL     1       0.856   9.927  21.088  0.00  0.00    +0.000 A 
ATOM     14  C   UNL     1       1.247   8.591  21.064  0.00  0.00    +0.000 A 
ENDBRANCH   4   8
BRANCH   1  18
ATOM     15  C   UNL     1       6.713   4.880  15.871  0.00  0.00    +0.000 A 
ATOM     16  C   UNL     1       7.119   4.906  17.204  0.00  0.00    +0.000 A 
ATOM     17  C   UNL     1       6.229   4.515  18.202  0.00  0.00    +0.000 A 
ATOM     18  C   UNL     1       4.924   4.119  17.879  0.00  0.00    +0.000 A 
ATOM     19  C   UNL     1       4.516   4.121  16.540  0.00  0.00    +0.000 A 
ATOM     20  C   UNL     1       5.413   4.502  15.531  0.00  0.00    +0.000 A 
BRANCH  15  21
ATOM     21  O   UNL     1       7.543   5.387  14.854  0.00  0.00    +0.000 OA
BRANCH  21  23
ATOM     22  C   UNL     1       8.190   5.685  12.608  0.00  0.00    +0.000 C 
ATOM     23  C   UNL     1       7.385   4.866  13.570  0.00  0.00    +0.000 C 
ATOM     24  O   UNL     1       6.729   3.881  13.255  0.00  0.00    +0.000 OA
ENDBRANCH  21  23
ENDBRANCH  15  21
ENDBRANCH   1  18
TORSDOF 4
ENDMDL
MODEL 4
REMARK VINA RESULT:      -8.0      2.166      7.726
REMARK  Name = 
REMARK  6 active torsions:
REMARK  status: ('A' for Active; 'I' for Inactive)
REMARK    1  A    between atoms: C_1  and  C_2
REMARK    2  A    between atoms: C_2  and  O_4
REMARK    3  A    between atoms: O_4  and  C_5
REMARK    4  A    between atoms: C_8  and  C_9
REMARK    5  A    between atoms: C_12  and  C_13
REMARK    6  A    between atoms: C_16  and  C_17
REMARK                            x       y       z     vdW  Elec       q    Type
REMARK                         _______ _______ _______ _____ _____    ______ ____
ROOT
ATOM      1  C   UNL     1       2.666   5.925  20.080  0.00  0.00    +0.000 C 
ATOM      2  C   UNL     1       3.582   5.284  19.341  0.00  0.00    +0.000 C 
ATOM      3  C   UNL     1       4.292   5.770  18.215  0.00  0.00    +0.000 C 
ATOM      4  C   UNL     1       4.846   4.696  17.653  0.00  0.00    +0.000 C 
ATOM      5  O   UNL     1       4.668   3.491  18.359  0.00  0.00    +0.000 OA
ATOM      6  C   UNL     1       3.912   3.836  19.467  0.00  0.00    +0.000 C 
ATOM      7  O   UNL     1       3.543   3.082  20.350  0.00  0.00    +0.000 OA
ENDROOT
BRANCH   4   8
ATOM      8  C   UNL     1       5.570   4.682  16.375  0.00  0.00    +0.000 A 
ATOM      9  C   UNL     1       6.865   5.196  16.246  0.00  0.00    +0.000 A 
ATOM     10  C   UNL     1       7.514   5.191  15.002  0.00  0.00    +0.000 A 
ATOM     11  C   UNL     1       6.884   4.665  13.872  0.00  0.00    +0.000 A 
ATOM     12  C   UNL     1       7.541   4.675  12.523  0.00  0.00    +0.000 C 
ATOM     13  C   UNL     1       5.607   4.114  14.000  0.00  0.00    +0.000 A 
ATOM     14  C   UNL     1       4.968   4.118  15.237  0.00  0.00    +0.000 A 
ENDBRANCH   4   8
BRANCH   1  18
ATOM     15  C   UNL     1       1.002   9.720  19.078  0.00  0.00    +0.000 A 
ATOM     16  C   UNL     1       0.905   9.220  20.375  0.00  0.00    +0.000 A 
ATOM     17  C   UNL     1       1.486   7.993  20.686  0.00  0.00    +0.000 A 
ATOM     18  C   UNL     1       2.145   7.245  19.699  0.00  0.00    +0.000 A 
ATOM     19  C   UNL     1       2.214   7.742  18.392  0.00  0.00    +0.000 A 
ATOM     20  C   UNL     1       1.642   8.983  18.079  0.00  0.00    +0.000 A 
BRANCH  15  21
ATOM     21  O   UNL     1       0.321  10.892  18.702  0.00  0.00    +0.000 OA
BRANCH  21  23
ATOM     22  C   UNL     1      -1.644  11.894  19.533  0.00  0.00    +0.000 C 
ATOM     23  C   UNL     1      -1.071  10.839  18.636  0.00  0.00    +0.000 C 
ATOM     24  O   UNL     1      -1.743  10.087  17.941  0.00  0.00    +0.000 OA
ENDBRANCH  21  23
ENDBRANCH  15  21
ENDBRANCH   1  18
TORSDOF 4
ENDMDL
MODEL 5
REMARK VINA RESULT:      -7.9      2.303      7.771
REMARK  Name = 
REMARK  6 active torsions:
REMARK  status: ('A' for Active; 'I' for Inactive)
REMARK    1  A    between atoms: C_1  and  C_2
REMARK    2  A    between atoms: C_2  and  O_4
REMARK    3  A    between atoms: O_4  and  C_5
REMARK    4  A    between atoms: C_8  and  C_9
REMARK    5  A    between atoms: C_12  and  C_13
REMARK    6  A    between atoms: C_16  and  C_17
REMARK                            x       y       z     vdW  Elec       q    Type
REMARK                         _______ _______ _______ _____ _____    ______ ____
ROOT
ATOM      1  C   UNL     1       2.855   5.957  19.870  0.00  0.00    +0.000 C 
ATOM      2  C   UNL     1       3.721   5.300  19.087  0.00  0.00    +0.000 C 
ATOM      3  C   UNL     1       4.344   5.756  17.898  0.00  0.00    +0.000 C 
ATOM      4  C   UNL     1       4.864   4.669  17.329  0.00  0.00    +0.000 C 
ATOM      5  O   UNL     1       4.747   3.484  18.082  0.00  0.00    +0.000 OA
ATOM      6  C   UNL     1       4.071   3.858  19.231  0.00  0.00    +0.000 C 
ATOM      7  O   UNL     1       3.772   3.128  20.160  0.00  0.00    +0.000 OA
ENDROOT
BRANCH   4   8
ATOM      8  C   UNL     1       5.495   4.621  16.004  0.00  0.00    +0.000 A 
ATOM      9  C   UNL     1       4.882   4.005  14.908  0.00  0.00    +0.000 A 
ATOM     10  C   UNL     1       5.529   3.955  13.664  0.00  0.00    +0.000 A 
ATOM     11  C   UNL     1       6.792   4.526  13.494  0.00  0.00    +0.000 A 
ATOM     12  C   UNL     1       7.521   4.460  12.184  0.00  0.00    +0.000 C 
ATOM     13  C   UNL     1       7.394   5.178  14.572  0.00  0.00    +0.000 A 
ATOM     14  C   UNL     1       6.747   5.228  15.804  0.00  0.00    +0.000 A 
ENDBRANCH   4   8
BRANCH   1  18
ATOM     15  C   UNL     1       1.086   9.704  18.870  0.00  0.00    +0.000 A 
ATOM     16  C   UNL     1       1.016   9.208  20.171  0.00  0.00    +0.000 A 
ATOM     17  C   UNL     1       1.630   7.997  20.481  0.00  0.00    +0.000 A 
ATOM     18  C   UNL     1       2.297   7.262  19.490  0.00  0.00    +0.000 A 
ATOM     19  C   UNL     1       2.341   7.754  18.181  0.00  0.00    +0.000 A 
ATOM     20  C   UNL     1       1.734   8.980  17.869  0.00  0.00    +0.000 A 
BRANCH  15  21
ATOM     21  O   UNL     1       0.372  10.858  18.498  0.00  0.00    +0.000 OA
BRANCH  21  23
ATOM     22  C   UNL     1      -1.718  10.134  17.684  0.00  0.00    +0.000 C 
ATOM     23  C   UNL     1      -0.996  10.885  18.762  0.00  0.00    +0.000 C 
ATOM     24  O   UNL     1      -1.546  11.401  19.727  0.00  0.00    +0.000 OA
ENDBRANCH  21  23
ENDBRANCH  15  21
ENDBRANCH   1  18
TORSDOF 4
ENDMDL
MODEL 6
REMARK VINA RESULT:      -7.9      2.446      7.833
REMARK  Name = 
REMARK  6 active torsions:
REMARK  status: ('A' for Active; 'I' for Inactive)
REMARK    1  A    between atoms: C_1  and  C_2
REMARK    2  A    between atoms: C_2  and  O_4
REMARK    3  A    between atoms: O_4  and  C_5
REMARK    4  A    between atoms: C_8  and  C_9
REMARK    5  A    between atoms: C_12  and  C_13
REMARK    6  A    between atoms: C_16  and  C_17
REMARK                            x       y       z     vdW  Elec       q    Type
REMARK                         _______ _______ _______ _____ _____    ______ ____
ROOT
ATOM      1  C   UNL     1       1.304   6.923  20.935  0.00  0.00    +0.000 C 
ATOM      2  C   UNL     1       2.103   6.089  20.256  0.00  0.00    +0.000 C 
ATOM      3  C   UNL     1       3.051   6.411  19.253  0.00  0.00    +0.000 C 
ATOM      4  C   UNL     1       3.367   5.252  18.676  0.00  0.00    +0.000 C 
ATOM      5  O   UNL     1       2.790   4.112  19.268  0.00  0.00    +0.000 OA
ATOM      6  C   UNL     1       2.020   4.602  20.309  0.00  0.00    +0.000 C 
ATOM      7  O   UNL     1       1.358   3.940  21.088  0.00  0.00    +0.000 OA
ENDROOT
BRANCH   4   8
ATOM      8  C   UNL     1       4.216   5.096  17.488  0.00  0.00    +0.000 A 
ATOM      9  C   UNL     1       4.659   3.845  17.047  0.00  0.00    +0.000 A 
ATOM     10  C   UNL     1       5.494   3.739  15.924  0.00  0.00    +0.000 A 
ATOM     11  C   UNL     1       5.890   4.879  15.220  0.00  0.00    +0.000 A 
ATOM     12  C   UNL     1       6.806   4.798  14.035  0.00  0.00    +0.000 C 
ATOM     13  C   UNL     1       5.420   6.128  15.630  0.00  0.00    +0.000 A 
ATOM     14  C   UNL     1       4.590   6.229  16.743  0.00  0.00    +0.000 A 
ENDBRANCH   4   8
BRANCH   1  18
ATOM     15  C   UNL     1       0.866  11.076  20.082  0.00  0.00    +0.000 A 
ATOM     16  C   UNL     1       0.781  10.606  21.391  0.00  0.00    +0.000 A 
ATOM     17  C   UNL     1       0.960   9.249  21.648  0.00  0.00    +0.000 A 
ATOM     18  C   UNL     1       1.201   8.350  20.599  0.00  0.00    +0.000 A 
ATOM     19  C   UNL     1       1.259   8.826  19.285  0.00  0.00    +0.000 A 
ATOM     20  C   UNL     1       1.092  10.194  19.024  0.00  0.00    +0.000 A 
BRANCH  15  21
ATOM     21  O   UNL     1       0.566  12.416  19.775  0.00  0.00    +0.000 OA
BRANCH  21  23
ATOM     22  C   UNL     1      -1.786  12.482  19.908  0.00  0.00    +0.000 C 
ATOM     23  C   UNL     1      -0.585  12.668  19.030  0.00  0.00    +0.000 C 
ATOM     24  O   UNL     1      -0.637  13.018  17.858  0.00  0.00    +0.000 OA
ENDBRANCH  21  23
ENDBRANCH  15  21
ENDBRANCH   1  18
TORSDOF 4
ENDMDL
MODEL 7
REMARK VINA RESULT:      -7.9      2.343      7.667
REMARK  Name = 
REMARK  6 active torsions:
REMARK  status: ('A' for Active; 'I' for Inactive)
REMARK    1  A    between atoms: C_1  and  C_2
REMARK    2  A    between atoms: C_2  and  O_4
REMARK    3  A    between atoms: O_4  and  C_5
REMARK    4  A    between atoms: C_8  and  C_9
REMARK    5  A    between atoms: C_12  and  C_13
REMARK    6  A    between atoms: C_16  and  C_17
REMARK                            x       y       z     vdW  Elec       q    Type
REMARK                         _______ _______ _______ _____ _____    ______ ____
ROOT
ATOM      1  C   UNL     1       1.385   6.557  20.901  0.00  0.00    +0.000 C 
ATOM      2  C   UNL     1       2.184   5.762  20.177  0.00  0.00    +0.000 C 
ATOM      3  C   UNL     1       3.145   6.139  19.205  0.00  0.00    +0.000 C 
ATOM      4  C   UNL     1       3.457   5.016  18.559  0.00  0.00    +0.000 C 
ATOM      5  O   UNL     1       2.864   3.846  19.070  0.00  0.00    +0.000 OA
ATOM      6  C   UNL     1       2.087   4.275  20.133  0.00  0.00    +0.000 C 
ATOM      7  O   UNL     1       1.411   3.570  20.861  0.00  0.00    +0.000 OA
ENDROOT
BRANCH   4   8
ATOM      8  C   UNL     1       4.316   4.929  17.371  0.00  0.00    +0.000 A 
ATOM      9  C   UNL     1       4.804   3.709  16.891  0.00  0.00    +0.000 A 
ATOM     10  C   UNL     1       5.647   3.669  15.770  0.00  0.00    +0.000 A 
ATOM     11  C   UNL     1       6.007   4.845  15.107  0.00  0.00    +0.000 A 
ATOM     12  C   UNL     1       6.932   4.835  13.925  0.00  0.00    +0.000 C 
ATOM     13  C   UNL     1       5.493   6.063  15.556  0.00  0.00    +0.000 A 
ATOM     14  C   UNL     1       4.655   6.098  16.667  0.00  0.00    +0.000 A 
ENDBRANCH   4   8
BRANCH   1  18
ATOM     15  C   UNL     1       0.991  10.761  20.310  0.00  0.00    +0.000 A 
ATOM     16  C   UNL     1       0.864  10.206  21.582  0.00  0.00    +0.000 A 
ATOM     17  C   UNL     1       1.029   8.834  21.755  0.00  0.00    +0.000 A 
ATOM     18  C   UNL     1       1.299   8.004  20.657  0.00  0.00    +0.000 A 
ATOM     19  C   UNL     1       1.399   8.566  19.379  0.00  0.00    +0.000 A 
ATOM     20  C   UNL     1       1.245   9.949  19.204  0.00  0.00    +0.000 A 
BRANCH  15  21
ATOM     21  O   UNL     1       0.706  12.120  20.084  0.00  0.00    +0.000 OA
BRANCH  21  23
ATOM     22  C   UNL     1       2.091  13.571  18.847  0.00  0.00    +0.000 C 
ATOM     23  C   UNL     1       1.756  13.029  20.203  0.00  0.00    +0.000 C 
ATOM     24  O   UNL     1       2.310  13.376  21.239  0.00  0.00    +0.000 OA
ENDBRANCH  21  23
ENDBRANCH  15  21
ENDBRANCH   1  18
TORSDOF 4
ENDMDL
MODEL 8
REMARK VINA RESULT:      -7.9      0.775      1.622
REMARK  Name = 
REMARK  6 active torsions:
REMARK  status: ('A' for Active; 'I' for Inactive)
REMARK    1  A    between atoms: C_1  and  C_2
REMARK    2  A    between atoms: C_2  and  O_4
REMARK    3  A    between atoms: O_4  and  C_5
REMARK    4  A    between atoms: C_8  and  C_9
REMARK    5  A    between atoms: C_12  and  C_13
REMARK    6  A    between atoms: C_16  and  C_17
REMARK                            x       y       z     vdW  Elec       q    Type
REMARK                         _______ _______ _______ _____ _____    ______ ____
ROOT
ATOM      1  C   UNL     1       3.981   4.256  19.013  0.00  0.00    +0.000 C 
ATOM      2  C   UNL     1       3.047   5.117  19.442  0.00  0.00    +0.000 C 
ATOM      3  C   UNL     1       2.774   6.422  18.962  0.00  0.00    +0.000 C 
ATOM      4  C   UNL     1       1.987   6.982  19.879  0.00  0.00    +0.000 C 
ATOM      5  O   UNL     1       1.593   6.132  20.931  0.00  0.00    +0.000 OA
ATOM      6  C   UNL     1       2.207   4.921  20.658  0.00  0.00    +0.000 C 
ATOM      7  O   UNL     1       2.117   3.902  21.321  0.00  0.00    +0.000 OA
ENDROOT
BRANCH   4   8
ATOM      8  C   UNL     1       1.550   8.384  19.884  0.00  0.00    +0.000 A 
ATOM      9  C   UNL     1       1.577   9.177  18.732  0.00  0.00    +0.000 A 
ATOM     10  C   UNL     1       1.179  10.522  18.783  0.00  0.00    +0.000 A 
ATOM     11  C   UNL     1       0.739  11.090  19.981  0.00  0.00    +0.000 A 
ATOM     12  C   UNL     1       0.337  12.533  20.072  0.00  0.00    +0.000 C 
ATOM     13  C   UNL     1       0.671  10.294  21.126  0.00  0.00    +0.000 A 
ATOM     14  C   UNL     1       1.065   8.960  21.071  0.00  0.00    +0.000 A 
ENDBRANCH   4   8
BRANCH   1  18
ATOM     15  C   UNL     1       6.827   5.289  16.013  0.00  0.00    +0.000 A 
ATOM     16  C   UNL     1       5.460   5.398  15.765  0.00  0.00    +0.000 A 
ATOM     17  C   UNL     1       4.551   5.086  16.772  0.00  0.00    +0.000 A 
ATOM     18  C   UNL     1       4.998   4.641  18.024  0.00  0.00    +0.000 A 
ATOM     19  C   UNL     1       6.371   4.508  18.257  0.00  0.00    +0.000 A 
ATOM     20  C   UNL     1       7.291   4.834  17.248  0.00  0.00    +0.000 A 
BRANCH  15  21
ATOM     21  O   UNL     1       7.766   5.475  14.981  0.00  0.00    +0.000 OA
BRANCH  21  23
ATOM     22  C   UNL     1       6.516   3.857  13.808  0.00  0.00    +0.000 C 
ATOM     23  C   UNL     1       7.410   5.055  13.700  0.00  0.00    +0.000 C 
ATOM     24  O   UNL     1       7.733   5.580  12.641  0.00  0.00    +0.000 OA
ENDBRANCH  21  23
ENDBRANCH  15  21
ENDBRANCH   1  18
TORSDOF 4
ENDMDL
MODEL 9
REMARK VINA RESULT:      -7.8      2.460      7.935
REMARK  Name = 
REMARK  6 active torsions:
REMARK  status: ('A' for Active; 'I' for Inactive)
REMARK    1  A    between atoms: C_1  and  C_2
REMARK    2  A    between atoms: C_2  and  O_4
REMARK    3  A    between atoms: O_4  and  C_5
REMARK    4  A    between atoms: C_8  and  C_9
REMARK    5  A    between atoms: C_12  and  C_13
REMARK    6  A    between atoms: C_16  and  C_17
REMARK                            x       y       z     vdW  Elec       q    Type
REMARK                         _______ _______ _______ _____ _____    ______ ____
ROOT
ATOM      1  C   UNL     1       1.464   7.063  20.791  0.00  0.00    +0.000 C 
ATOM      2  C   UNL     1       2.275   6.218  20.140  0.00  0.00    +0.000 C 
ATOM      3  C   UNL     1       3.161   6.505  19.071  0.00  0.00    +0.000 C 
ATOM      4  C   UNL     1       3.512   5.321  18.571  0.00  0.00    +0.000 C 
ATOM      5  O   UNL     1       3.022   4.204  19.275  0.00  0.00    +0.000 OA
ATOM      6  C   UNL     1       2.274   4.737  20.311  0.00  0.00    +0.000 C 
ATOM      7  O   UNL     1       1.682   4.107  21.170  0.00  0.00    +0.000 OA
ENDROOT
BRANCH   4   8
ATOM      8  C   UNL     1       4.315   5.114  17.360  0.00  0.00    +0.000 A 
ATOM      9  C   UNL     1       4.752   6.177  16.563  0.00  0.00    +0.000 A 
ATOM     10  C   UNL     1       5.494   5.937  15.396  0.00  0.00    +0.000 A 
ATOM     11  C   UNL     1       5.818   4.633  15.014  0.00  0.00    +0.000 A 
ATOM     12  C   UNL     1       6.583   4.345  13.755  0.00  0.00    +0.000 C 
ATOM     13  C   UNL     1       5.421   3.568  15.824  0.00  0.00    +0.000 A 
ATOM     14  C   UNL     1       4.687   3.811  16.983  0.00  0.00    +0.000 A 
ENDBRANCH   4   8
BRANCH   1  18
ATOM     15  C   UNL     1       0.747  11.095  19.610  0.00  0.00    +0.000 A 
ATOM     16  C   UNL     1       0.487  10.679  20.915  0.00  0.00    +0.000 A 
ATOM     17  C   UNL     1       0.760   9.364  21.285  0.00  0.00    +0.000 A 
ATOM     18  C   UNL     1       1.272   8.452  20.351  0.00  0.00    +0.000 A 
ATOM     19  C   UNL     1       1.505   8.871  19.036  0.00  0.00    +0.000 A 
ATOM     20  C   UNL     1       1.243  10.198  18.664  0.00  0.00    +0.000 A 
BRANCH  15  21
ATOM     21  O   UNL     1       0.365  12.377  19.172  0.00  0.00    +0.000 OA
BRANCH  21  23
ATOM     22  C   UNL     1      -1.713  12.002  18.128  0.00  0.00    +0.000 C 
ATOM     23  C   UNL     1      -0.988  12.706  19.234  0.00  0.00    +0.000 C 
ATOM     24  O   UNL     1      -1.530  13.423  20.066  0.00  0.00    +0.000 OA
ENDBRANCH  21  23
ENDBRANCH  15  21
ENDBRANCH   1  18
TORSDOF 4
ENDMDL
