MODEL 1
REMARK VINA RESULT:      -8.3      0.000      0.000
REMARK  Name = 
REMARK  9 active torsions:
REMARK  status: ('A' for Active; 'I' for Inactive)
REMARK    1  A    between atoms: C_1  and  C_2
REMARK    2  A    between atoms: C_2  and  C_3
REMARK    3  A    between atoms: C_3  and  C_4
REMARK    4  A    between atoms: C_4  and  C_5
REMARK    5  A    between atoms: C_5  and  C_6
REMARK    6  A    between atoms: C_6  and  C_7
REMARK    7  A    between atoms: C_7  and  C_8
REMARK    8  A    between atoms: C_10  and  C_11
REMARK    9  A    between atoms: N_17  and  C_18
REMARK                            x       y       z     vdW  Elec       q    Type
REMARK                         _______ _______ _______ _____ _____    ______ ____
ROOT
ATOM      1  C   UNL     1       5.141   5.721  16.778  0.00  0.00    +0.000 A 
ATOM      2  N   UNL     1       4.401   6.869  16.931  0.00  0.00    +0.000 NA
ATOM      3  C   UNL     1       3.463   6.530  17.811  0.00  0.00    +0.000 A 
ATOM      4  N   UNL     1       3.561   5.151  18.025  0.00  0.00    +0.000 N 
ATOM      5  N   UNL     1       4.708   4.680  17.493  0.00  0.00    +0.000 NA
ENDROOT
BRANCH   3   6
ATOM      6  C   UNL     1       2.536   7.455  18.499  0.00  0.00    +0.000 A 
ATOM      7  C   UNL     1       2.253   7.317  19.858  0.00  0.00    +0.000 A 
ATOM      8  C   UNL     1       1.468   8.272  20.524  0.00  0.00    +0.000 A 
ATOM      9  C   UNL     1       0.976   9.385  19.846  0.00  0.00    +0.000 A 
ATOM     10  C   UNL     1       1.209   9.516  18.482  0.00  0.00    +0.000 A 
ATOM     11  C   UNL     1       1.927   8.528  17.813  0.00  0.00    +0.000 A 
ENDBRANCH   3   6
BRANCH   4  12
ATOM     12  C   UNL     1       2.697   4.280  18.737  0.00  0.00    +0.000 A 
ATOM     13  C   UNL     1       3.043   3.802  20.013  0.00  0.00    +0.000 A 
ATOM     14  C   UNL     1       2.308   2.771  20.595  0.00  0.00    +0.000 A 
ATOM     15  C   UNL     1       1.191   2.262  19.937  0.00  0.00    +0.000 A 
ATOM     16  C   UNL     1       0.800   2.788  18.704  0.00  0.00    +0.000 A 
ATOM     17  C   UNL     1       1.544   3.810  18.106  0.00  0.00    +0.000 A 
ENDBRANCH   4  12
BRANCH   1  18
ATOM     18  C   UNL     1       6.357   5.612  15.924  0.00  0.00    +0.000 C 
BRANCH  18  19
ATOM     19  C   UNL     1       6.511   4.261  15.221  0.00  0.00    +0.000 C 
BRANCH  19  20
ATOM     20  C   UNL     1       5.641   4.114  13.963  0.00  0.00    +0.000 C 
BRANCH  20  21
ATOM     21  C   UNL     1       6.451   3.536  12.798  0.00  0.00    +0.000 C 
BRANCH  21  22
ATOM     22  C   UNL     1       5.562   2.884  11.734  0.00  0.00    +0.000 C 
BRANCH  22  24
ATOM     23  C   UNL     1       3.379   3.108  10.468  0.00  0.00    +0.000 C 
ATOM     24  C   UNL     1       4.192   3.565  11.668  0.00  0.00    +0.000 C 
ENDBRANCH  22  24
ENDBRANCH  21  22
ENDBRANCH  20  21
ENDBRANCH  19  20
ENDBRANCH  18  19
ENDBRANCH   1  18
TORSDOF 8
ENDMDL
MODEL 2
REMARK VINA RESULT:      -8.2      0.551      1.119
REMARK  Name = 
REMARK  9 active torsions:
REMARK  status: ('A' for Active; 'I' for Inactive)
REMARK    1  A    between atoms: C_1  and  C_2
REMARK    2  A    between atoms: C_2  and  C_3
REMARK    3  A    between atoms: C_3  and  C_4
REMARK    4  A    between atoms: C_4  and  C_5
REMARK    5  A    between atoms: C_5  and  C_6
REMARK    6  A    between atoms: C_6  and  C_7
REMARK    7  A    between atoms: C_7  and  C_8
REMARK    8  A    between atoms: C_10  and  C_11
REMARK    9  A    between atoms: N_17  and  C_18
REMARK                            x       y       z     vdW  Elec       q    Type
REMARK                         _______ _______ _______ _____ _____    ______ ____
ROOT
ATOM      1  C   UNL     1       5.200   5.465  17.087  0.00  0.00    +0.000 A 
ATOM      2  N   UNL     1       4.533   6.665  17.035  0.00  0.00    +0.000 NA
ATOM      3  C   UNL     1       3.565   6.531  17.937  0.00  0.00    +0.000 A 
ATOM      4  N   UNL     1       3.571   5.202  18.373  0.00  0.00    +0.000 N 
ATOM      5  N   UNL     1       4.694   4.582  17.951  0.00  0.00    +0.000 NA
ENDROOT
BRANCH   3   6
ATOM      6  C   UNL     1       2.689   7.610  18.445  0.00  0.00    +0.000 A 
ATOM      7  C   UNL     1       2.248   8.637  17.611  0.00  0.00    +0.000 A 
ATOM      8  C   UNL     1       1.322   9.584  18.074  0.00  0.00    +0.000 A 
ATOM      9  C   UNL     1       0.809   9.505  19.367  0.00  0.00    +0.000 A 
ATOM     10  C   UNL     1       1.271   8.516  20.227  0.00  0.00    +0.000 A 
ATOM     11  C   UNL     1       2.243   7.623  19.785  0.00  0.00    +0.000 A 
ENDBRANCH   3   6
BRANCH   4  12
ATOM     12  C   UNL     1       2.645   4.512  19.196  0.00  0.00    +0.000 A 
ATOM     13  C   UNL     1       2.829   4.439  20.588  0.00  0.00    +0.000 A 
ATOM     14  C   UNL     1       2.052   3.569  21.350  0.00  0.00    +0.000 A 
ATOM     15  C   UNL     1       1.050   2.820  20.737  0.00  0.00    +0.000 A 
ATOM     16  C   UNL     1       0.815   2.949  19.366  0.00  0.00    +0.000 A 
ATOM     17  C   UNL     1       1.602   3.808  18.593  0.00  0.00    +0.000 A 
ENDBRANCH   4  12
BRANCH   1  18
ATOM     18  C   UNL     1       6.419   5.145  16.290  0.00  0.00    +0.000 C 
BRANCH  18  19
ATOM     19  C   UNL     1       6.206   5.189  14.774  0.00  0.00    +0.000 C 
BRANCH  19  20
ATOM     20  C   UNL     1       5.825   3.832  14.163  0.00  0.00    +0.000 C 
BRANCH  20  21
ATOM     21  C   UNL     1       6.379   3.695  12.741  0.00  0.00    +0.000 C 
BRANCH  21  22
ATOM     22  C   UNL     1       5.449   2.891  11.826  0.00  0.00    +0.000 C 
BRANCH  22  24
ATOM     23  C   UNL     1       3.365   3.077  10.398  0.00  0.00    +0.000 C 
ATOM     24  C   UNL     1       4.135   3.637  11.583  0.00  0.00    +0.000 C 
ENDBRANCH  22  24
ENDBRANCH  21  22
ENDBRANCH  20  21
ENDBRANCH  19  20
ENDBRANCH  18  19
ENDBRANCH   1  18
TORSDOF 8
ENDMDL
MODEL 3
REMARK VINA RESULT:      -8.1      0.649      1.233
REMARK  Name = 
REMARK  9 active torsions:
REMARK  status: ('A' for Active; 'I' for Inactive)
REMARK    1  A    between atoms: C_1  and  C_2
REMARK    2  A    between atoms: C_2  and  C_3
REMARK    3  A    between atoms: C_3  and  C_4
REMARK    4  A    between atoms: C_4  and  C_5
REMARK    5  A    between atoms: C_5  and  C_6
REMARK    6  A    between atoms: C_6  and  C_7
REMARK    7  A    between atoms: C_7  and  C_8
REMARK    8  A    between atoms: C_10  and  C_11
REMARK    9  A    between atoms: N_17  and  C_18
REMARK                            x       y       z     vdW  Elec       q    Type
REMARK                         _______ _______ _______ _____ _____    ______ ____
ROOT
ATOM      1  C   UNL     1       4.943   5.207  16.496  0.00  0.00    +0.000 A 
ATOM      2  N   UNL     1       4.240   6.376  16.667  0.00  0.00    +0.000 NA
ATOM      3  C   UNL     1       3.431   6.114  17.690  0.00  0.00    +0.000 A 
ATOM      4  N   UNL     1       3.546   4.752  17.986  0.00  0.00    +0.000 N 
ATOM      5  N   UNL     1       4.605   4.226  17.336  0.00  0.00    +0.000 NA
ENDROOT
BRANCH   3   6
ATOM      6  C   UNL     1       2.614   7.101  18.432  0.00  0.00    +0.000 A 
ATOM      7  C   UNL     1       2.338   6.937  19.789  0.00  0.00    +0.000 A 
ATOM      8  C   UNL     1       1.667   7.939  20.507  0.00  0.00    +0.000 A 
ATOM      9  C   UNL     1       1.283   9.124  19.884  0.00  0.00    +0.000 A 
ATOM     10  C   UNL     1       1.509   9.287  18.522  0.00  0.00    +0.000 A 
ATOM     11  C   UNL     1       2.111   8.259  17.801  0.00  0.00    +0.000 A 
ENDBRANCH   3   6
BRANCH   4  12
ATOM     12  C   UNL     1       2.782   3.947  18.869  0.00  0.00    +0.000 A 
ATOM     13  C   UNL     1       1.455   3.598  18.564  0.00  0.00    +0.000 A 
ATOM     14  C   UNL     1       0.646   3.013  19.537  0.00  0.00    +0.000 A 
ATOM     15  C   UNL     1       1.177   2.718  20.790  0.00  0.00    +0.000 A 
ATOM     16  C   UNL     1       2.517   2.994  21.070  0.00  0.00    +0.000 A 
ATOM     17  C   UNL     1       3.329   3.597  20.104  0.00  0.00    +0.000 A 
ENDBRANCH   4  12
BRANCH   1  18
ATOM     18  C   UNL     1       6.028   5.018  15.493  0.00  0.00    +0.000 C 
BRANCH  18  19
ATOM     19  C   UNL     1       5.929   3.713  14.699  0.00  0.00    +0.000 C 
BRANCH  19  20
ATOM     20  C   UNL     1       6.300   3.859  13.216  0.00  0.00    +0.000 C 
BRANCH  20  21
ATOM     21  C   UNL     1       5.049   4.045  12.352  0.00  0.00    +0.000 C 
BRANCH  21  22
ATOM     22  C   UNL     1       4.746   2.815  11.488  0.00  0.00    +0.000 C 
BRANCH  22  24
ATOM     23  C   UNL     1       3.235   4.089   9.902  0.00  0.00    +0.000 C 
ATOM     24  C   UNL     1       3.354   2.913  10.859  0.00  0.00    +0.000 C 
ENDBRANCH  22  24
ENDBRANCH  21  22
ENDBRANCH  20  21
ENDBRANCH  19  20
ENDBRANCH  18  19
ENDBRANCH   1  18
TORSDOF 8
ENDMDL
MODEL 4
REMARK VINA RESULT:      -8.0      0.793      1.502
REMARK  Name = 
REMARK  9 active torsions:
REMARK  status: ('A' for Active; 'I' for Inactive)
REMARK    1  A    between atoms: C_1  and  C_2
REMARK    2  A    between atoms: C_2  and  C_3
REMARK    3  A    between atoms: C_3  and  C_4
REMARK    4  A    between atoms: C_4  and  C_5
REMARK    5  A    between atoms: C_5  and  C_6
REMARK    6  A    between atoms: C_6  and  C_7
REMARK    7  A    between atoms: C_7  and  C_8
REMARK    8  A    between atoms: C_10  and  C_11
REMARK    9  A    between atoms: N_17  and  C_18
REMARK                            x       y       z     vdW  Elec       q    Type
REMARK                         _______ _______ _______ _____ _____    ______ ____
ROOT
ATOM      1  C   UNL     1       4.468   6.267  16.987  0.00  0.00    +0.000 A 
ATOM      2  N   UNL     1       3.727   7.399  17.230  0.00  0.00    +0.000 NA
ATOM      3  C   UNL     1       2.930   7.049  18.235  0.00  0.00    +0.000 A 
ATOM      4  N   UNL     1       3.092   5.676  18.448  0.00  0.00    +0.000 N 
ATOM      5  N   UNL     1       4.167   5.226  17.767  0.00  0.00    +0.000 NA
ENDROOT
BRANCH   3   6
ATOM      6  C   UNL     1       2.083   7.960  19.036  0.00  0.00    +0.000 A 
ATOM      7  C   UNL     1       1.441   9.052  18.451  0.00  0.00    +0.000 A 
ATOM      8  C   UNL     1       0.545   9.835  19.195  0.00  0.00    +0.000 A 
ATOM      9  C   UNL     1       0.264   9.526  20.524  0.00  0.00    +0.000 A 
ATOM     10  C   UNL     1       0.929   8.470  21.137  0.00  0.00    +0.000 A 
ATOM     11  C   UNL     1       1.869   7.741  20.414  0.00  0.00    +0.000 A 
ENDBRANCH   3   6
BRANCH   4  12
ATOM     12  C   UNL     1       2.359   4.794  19.282  0.00  0.00    +0.000 A 
ATOM     13  C   UNL     1       2.661   4.674  20.650  0.00  0.00    +0.000 A 
ATOM     14  C   UNL     1       2.099   3.643  21.401  0.00  0.00    +0.000 A 
ATOM     15  C   UNL     1       1.189   2.772  20.806  0.00  0.00    +0.000 A 
ATOM     16  C   UNL     1       0.829   2.937  19.467  0.00  0.00    +0.000 A 
ATOM     17  C   UNL     1       1.402   3.959  18.703  0.00  0.00    +0.000 A 
ENDBRANCH   4  12
BRANCH   1  18
ATOM     18  C   UNL     1       5.557   6.176  15.973  0.00  0.00    +0.000 C 
BRANCH  18  19
ATOM     19  C   UNL     1       6.644   5.151  16.311  0.00  0.00    +0.000 C 
BRANCH  19  20
ATOM     20  C   UNL     1       6.635   3.917  15.398  0.00  0.00    +0.000 C 
BRANCH  20  21
ATOM     21  C   UNL     1       5.685   4.115  14.212  0.00  0.00    +0.000 C 
BRANCH  21  22
ATOM     22  C   UNL     1       6.391   3.947  12.862  0.00  0.00    +0.000 C 
BRANCH  22  24
ATOM     23  C   UNL     1       4.336   3.361  11.500  0.00  0.00    +0.000 C 
ATOM     24  C   UNL     1       5.692   2.890  12.003  0.00  0.00    +0.000 C 
ENDBRANCH  22  24
ENDBRANCH  21  22
ENDBRANCH  20  21
ENDBRANCH  19  20
ENDBRANCH  18  19
ENDBRANCH   1  18
TORSDOF 8
ENDMDL
MODEL 5
REMARK VINA RESULT:      -8.0      0.767      1.415
REMARK  Name = 
REMARK  9 active torsions:
REMARK  status: ('A' for Active; 'I' for Inactive)
REMARK    1  A    between atoms: C_1  and  C_2
REMARK    2  A    between atoms: C_2  and  C_3
REMARK    3  A    between atoms: C_3  and  C_4
REMARK    4  A    between atoms: C_4  and  C_5
REMARK    5  A    between atoms: C_5  and  C_6
REMARK    6  A    between atoms: C_6  and  C_7
REMARK    7  A    between atoms: C_7  and  C_8
REMARK    8  A    between atoms: C_10  and  C_11
REMARK    9  A    between atoms: N_17  and  C_18
REMARK                            x       y       z     vdW  Elec       q    Type
REMARK                         _______ _______ _______ _____ _____    ______ ____
ROOT
ATOM      1  C   UNL     1       5.227   5.674  16.971  0.00  0.00    +0.000 A 
ATOM      2  N   UNL     1       4.445   6.803  17.032  0.00  0.00    +0.000 NA
ATOM      3  C   UNL     1       3.518   6.500  17.937  0.00  0.00    +0.000 A 
ATOM      4  N   UNL     1       3.665   5.148  18.260  0.00  0.00    +0.000 N 
ATOM      5  N   UNL     1       4.831   4.678  17.768  0.00  0.00    +0.000 NA
ENDROOT
BRANCH   3   6
ATOM      6  C   UNL     1       2.555   7.443  18.549  0.00  0.00    +0.000 A 
ATOM      7  C   UNL     1       2.244   7.379  19.907  0.00  0.00    +0.000 A 
ATOM      8  C   UNL     1       1.424   8.353  20.498  0.00  0.00    +0.000 A 
ATOM      9  C   UNL     1       0.923   9.413  19.745  0.00  0.00    +0.000 A 
ATOM     10  C   UNL     1       1.185   9.468  18.381  0.00  0.00    +0.000 A 
ATOM     11  C   UNL     1       1.939   8.459  17.787  0.00  0.00    +0.000 A 
ENDBRANCH   3   6
BRANCH   4  12
ATOM     12  C   UNL     1       2.832   4.305  19.039  0.00  0.00    +0.000 A 
ATOM     13  C   UNL     1       1.584   3.876  18.556  0.00  0.00    +0.000 A 
ATOM     14  C   UNL     1       0.680   3.250  19.414  0.00  0.00    +0.000 A 
ATOM     15  C   UNL     1       1.045   2.996  20.733  0.00  0.00    +0.000 A 
ATOM     16  C   UNL     1       2.314   3.352  21.195  0.00  0.00    +0.000 A 
ATOM     17  C   UNL     1       3.218   3.995  20.344  0.00  0.00    +0.000 A 
ENDBRANCH   4  12
BRANCH   1  18
ATOM     18  C   UNL     1       6.449   5.542  16.128  0.00  0.00    +0.000 C 
BRANCH  18  19
ATOM     19  C   UNL     1       6.634   4.156  15.505  0.00  0.00    +0.000 C 
BRANCH  19  20
ATOM     20  C   UNL     1       5.738   3.900  14.285  0.00  0.00    +0.000 C 
BRANCH  20  21
ATOM     21  C   UNL     1       6.552   3.940  12.987  0.00  0.00    +0.000 C 
BRANCH  21  22
ATOM     22  C   UNL     1       5.730   3.508  11.768  0.00  0.00    +0.000 C 
BRANCH  22  24
ATOM     23  C   UNL     1       6.895   1.378  11.044  0.00  0.00    +0.000 C 
ATOM     24  C   UNL     1       5.649   1.982  11.671  0.00  0.00    +0.000 C 
ENDBRANCH  22  24
ENDBRANCH  21  22
ENDBRANCH  20  21
ENDBRANCH  19  20
ENDBRANCH  18  19
ENDBRANCH   1  18
TORSDOF 8
ENDMDL
MODEL 6
REMARK VINA RESULT:      -8.0      1.138      1.952
REMARK  Name = 
REMARK  9 active torsions:
REMARK  status: ('A' for Active; 'I' for Inactive)
REMARK    1  A    between atoms: C_1  and  C_2
REMARK    2  A    between atoms: C_2  and  C_3
REMARK    3  A    between atoms: C_3  and  C_4
REMARK    4  A    between atoms: C_4  and  C_5
REMARK    5  A    between atoms: C_5  and  C_6
REMARK    6  A    between atoms: C_6  and  C_7
REMARK    7  A    between atoms: C_7  and  C_8
REMARK    8  A    between atoms: C_10  and  C_11
REMARK    9  A    between atoms: N_17  and  C_18
REMARK                            x       y       z     vdW  Elec       q    Type
REMARK                         _______ _______ _______ _____ _____    ______ ____
ROOT
ATOM      1  C   UNL     1       5.219   4.294  16.729  0.00  0.00    +0.000 A 
ATOM      2  N   UNL     1       4.665   5.552  16.722  0.00  0.00    +0.000 NA
ATOM      3  C   UNL     1       3.800   5.526  17.732  0.00  0.00    +0.000 A 
ATOM      4  N   UNL     1       3.733   4.210  18.200  0.00  0.00    +0.000 N 
ATOM      5  N   UNL     1       4.735   3.478  17.669  0.00  0.00    +0.000 NA
ENDROOT
BRANCH   3   6
ATOM      6  C   UNL     1       3.095   6.693  18.307  0.00  0.00    +0.000 A 
ATOM      7  C   UNL     1       2.786   7.808  17.528  0.00  0.00    +0.000 A 
ATOM      8  C   UNL     1       2.012   8.853  18.055  0.00  0.00    +0.000 A 
ATOM      9  C   UNL     1       1.519   8.788  19.356  0.00  0.00    +0.000 A 
ATOM     10  C   UNL     1       1.854   7.706  20.162  0.00  0.00    +0.000 A 
ATOM     11  C   UNL     1       2.682   6.708  19.657  0.00  0.00    +0.000 A 
ENDBRANCH   3   6
BRANCH   4  12
ATOM     12  C   UNL     1       2.848   3.626  19.142  0.00  0.00    +0.000 A 
ATOM     13  C   UNL     1       1.475   3.504  18.865  0.00  0.00    +0.000 A 
ATOM     14  C   UNL     1       0.587   3.150  19.879  0.00  0.00    +0.000 A 
ATOM     15  C   UNL     1       1.073   2.857  21.151  0.00  0.00    +0.000 A 
ATOM     16  C   UNL     1       2.444   2.903  21.409  0.00  0.00    +0.000 A 
ATOM     17  C   UNL     1       3.339   3.274  20.400  0.00  0.00    +0.000 A 
ENDBRANCH   4  12
BRANCH   1  18
ATOM     18  C   UNL     1       6.300   3.845  15.807  0.00  0.00    +0.000 C 
BRANCH  18  19
ATOM     19  C   UNL     1       7.074   4.988  15.146  0.00  0.00    +0.000 C 
BRANCH  19  20
ATOM     20  C   UNL     1       7.091   4.920  13.612  0.00  0.00    +0.000 C 
BRANCH  20  21
ATOM     21  C   UNL     1       6.058   3.913  13.095  0.00  0.00    +0.000 C 
BRANCH  21  22
ATOM     22  C   UNL     1       6.573   3.109  11.896  0.00  0.00    +0.000 C 
BRANCH  22  24
ATOM     23  C   UNL     1       6.258   0.735  11.069  0.00  0.00    +0.000 C 
ATOM     24  C   UNL     1       5.571   2.026  11.488  0.00  0.00    +0.000 C 
ENDBRANCH  22  24
ENDBRANCH  21  22
ENDBRANCH  20  21
ENDBRANCH  19  20
ENDBRANCH  18  19
ENDBRANCH   1  18
TORSDOF 8
ENDMDL
MODEL 7
REMARK VINA RESULT:      -7.9      0.948      4.017
REMARK  Name = 
REMARK  9 active torsions:
REMARK  status: ('A' for Active; 'I' for Inactive)
REMARK    1  A    between atoms: C_1  and  C_2
REMARK    2  A    between atoms: C_2  and  C_3
REMARK    3  A    between atoms: C_3  and  C_4
REMARK    4  A    between atoms: C_4  and  C_5
REMARK    5  A    between atoms: C_5  and  C_6
REMARK    6  A    between atoms: C_6  and  C_7
REMARK    7  A    between atoms: C_7  and  C_8
REMARK    8  A    between atoms: C_10  and  C_11
REMARK    9  A    between atoms: N_17  and  C_18
REMARK                            x       y       z     vdW  Elec       q    Type
REMARK                         _______ _______ _______ _____ _____    ______ ____
ROOT
ATOM      1  C   UNL     1       5.219   6.051  17.203  0.00  0.00    +0.000 A 
ATOM      2  N   UNL     1       4.855   4.981  17.985  0.00  0.00    +0.000 NA
ATOM      3  C   UNL     1       3.682   5.345  18.497  0.00  0.00    +0.000 A 
ATOM      4  N   UNL     1       3.462   6.681  18.149  0.00  0.00    +0.000 N 
ATOM      5  N   UNL     1       4.354   7.068  17.213  0.00  0.00    +0.000 NA
ENDROOT
BRANCH   3   6
ATOM      6  C   UNL     1       2.742   4.471  19.234  0.00  0.00    +0.000 A 
ATOM      7  C   UNL     1       2.794   4.363  20.624  0.00  0.00    +0.000 A 
ATOM      8  C   UNL     1       1.822   3.627  21.319  0.00  0.00    +0.000 A 
ATOM      9  C   UNL     1       0.775   3.009  20.637  0.00  0.00    +0.000 A 
ATOM     10  C   UNL     1       0.733   3.068  19.249  0.00  0.00    +0.000 A 
ATOM     11  C   UNL     1       1.740   3.739  18.561  0.00  0.00    +0.000 A 
ENDBRANCH   3   6
BRANCH   4  12
ATOM     12  C   UNL     1       2.452   7.578  18.582  0.00  0.00    +0.000 A 
ATOM     13  C   UNL     1       1.912   8.535  17.706  0.00  0.00    +0.000 A 
ATOM     14  C   UNL     1       1.100   9.555  18.201  0.00  0.00    +0.000 A 
ATOM     15  C   UNL     1       0.776   9.583  19.555  0.00  0.00    +0.000 A 
ATOM     16  C   UNL     1       1.249   8.589  20.413  0.00  0.00    +0.000 A 
ATOM     17  C   UNL     1       2.078   7.573  19.926  0.00  0.00    +0.000 A 
ENDBRANCH   4  12
BRANCH   1  18
ATOM     18  C   UNL     1       6.450   6.099  16.364  0.00  0.00    +0.000 C 
BRANCH  18  19
ATOM     19  C   UNL     1       6.785   4.778  15.666  0.00  0.00    +0.000 C 
BRANCH  19  20
ATOM     20  C   UNL     1       6.925   4.902  14.142  0.00  0.00    +0.000 C 
BRANCH  20  21
ATOM     21  C   UNL     1       5.880   4.043  13.421  0.00  0.00    +0.000 C 
BRANCH  21  22
ATOM     22  C   UNL     1       6.440   3.373  12.162  0.00  0.00    +0.000 C 
BRANCH  22  24
ATOM     23  C   UNL     1       6.266   1.089  11.081  0.00  0.00    +0.000 C 
ATOM     24  C   UNL     1       5.504   2.269  11.664  0.00  0.00    +0.000 C 
ENDBRANCH  22  24
ENDBRANCH  21  22
ENDBRANCH  20  21
ENDBRANCH  19  20
ENDBRANCH  18  19
ENDBRANCH   1  18
TORSDOF 8
ENDMDL
MODEL 8
REMARK VINA RESULT:      -7.9      2.335      4.340
REMARK  Name = 
REMARK  9 active torsions:
REMARK  status: ('A' for Active; 'I' for Inactive)
REMARK    1  A    between atoms: C_1  and  C_2
REMARK    2  A    between atoms: C_2  and  C_3
REMARK    3  A    between atoms: C_3  and  C_4
REMARK    4  A    between atoms: C_4  and  C_5
REMARK    5  A    between atoms: C_5  and  C_6
REMARK    6  A    between atoms: C_6  and  C_7
REMARK    7  A    between atoms: C_7  and  C_8
REMARK    8  A    between atoms: C_10  and  C_11
REMARK    9  A    between atoms: N_17  and  C_18
REMARK                            x       y       z     vdW  Elec       q    Type
REMARK                         _______ _______ _______ _____ _____    ______ ____
ROOT
ATOM      1  C   UNL     1       4.862   5.735  17.046  0.00  0.00    +0.000 A 
ATOM      2  N   UNL     1       4.160   6.916  17.072  0.00  0.00    +0.000 NA
ATOM      3  C   UNL     1       3.260   6.731  18.034  0.00  0.00    +0.000 A 
ATOM      4  N   UNL     1       3.334   5.393  18.434  0.00  0.00    +0.000 N 
ATOM      5  N   UNL     1       4.441   4.817  17.919  0.00  0.00    +0.000 NA
ENDROOT
BRANCH   3   6
ATOM      6  C   UNL     1       2.393   7.771  18.630  0.00  0.00    +0.000 A 
ATOM      7  C   UNL     1       1.831   8.780  17.847  0.00  0.00    +0.000 A 
ATOM      8  C   UNL     1       0.914   9.686  18.402  0.00  0.00    +0.000 A 
ATOM      9  C   UNL     1       0.532   9.584  19.738  0.00  0.00    +0.000 A 
ATOM     10  C   UNL     1       1.115   8.614  20.545  0.00  0.00    +0.000 A 
ATOM     11  C   UNL     1       2.077   7.764  20.006  0.00  0.00    +0.000 A 
ENDBRANCH   3   6
BRANCH   4  12
ATOM     12  C   UNL     1       2.487   4.656  19.300  0.00  0.00    +0.000 A 
ATOM     13  C   UNL     1       2.759   4.570  20.677  0.00  0.00    +0.000 A 
ATOM     14  C   UNL     1       2.062   3.660  21.470  0.00  0.00    +0.000 A 
ATOM     15  C   UNL     1       1.054   2.882  20.906  0.00  0.00    +0.000 A 
ATOM     16  C   UNL     1       0.730   3.022  19.555  0.00  0.00    +0.000 A 
ATOM     17  C   UNL     1       1.436   3.921  18.749  0.00  0.00    +0.000 A 
ENDBRANCH   4  12
BRANCH   1  18
ATOM     18  C   UNL     1       6.030   5.470  16.159  0.00  0.00    +0.000 C 
BRANCH  18  19
ATOM     19  C   UNL     1       7.322   6.162  16.601  0.00  0.00    +0.000 C 
BRANCH  19  20
ATOM     20  C   UNL     1       7.477   6.270  18.125  0.00  0.00    +0.000 C 
BRANCH  20  21
ATOM     21  C   UNL     1       8.245   7.538  18.512  0.00  0.00    +0.000 C 
BRANCH  21  22
ATOM     22  C   UNL     1       7.795   8.763  17.708  0.00  0.00    +0.000 C 
BRANCH  22  24
ATOM     23  C   UNL     1       9.191  10.015  19.412  0.00  0.00    +0.000 C 
ATOM     24  C   UNL     1       8.712   9.961  17.970  0.00  0.00    +0.000 C 
ENDBRANCH  22  24
ENDBRANCH  21  22
ENDBRANCH  20  21
ENDBRANCH  19  20
ENDBRANCH  18  19
ENDBRANCH   1  18
TORSDOF 8
ENDMDL
MODEL 9
REMARK VINA RESULT:      -7.9      3.115      6.319
REMARK  Name = 
REMARK  9 active torsions:
REMARK  status: ('A' for Active; 'I' for Inactive)
REMARK    1  A    between atoms: C_1  and  C_2
REMARK    2  A    between atoms: C_2  and  C_3
REMARK    3  A    between atoms: C_3  and  C_4
REMARK    4  A    between atoms: C_4  and  C_5
REMARK    5  A    between atoms: C_5  and  C_6
REMARK    6  A    between atoms: C_6  and  C_7
REMARK    7  A    between atoms: C_7  and  C_8
REMARK    8  A    between atoms: C_10  and  C_11
REMARK    9  A    between atoms: N_17  and  C_18
REMARK                            x       y       z     vdW  Elec       q    Type
REMARK                         _______ _______ _______ _____ _____    ______ ____
ROOT
ATOM      1  C   UNL     1       5.512   6.335  17.699  0.00  0.00    +0.000 A 
ATOM      2  N   UNL     1       5.053   5.195  18.314  0.00  0.00    +0.000 NA
ATOM      3  C   UNL     1       3.795   5.487  18.630  0.00  0.00    +0.000 A 
ATOM      4  N   UNL     1       3.592   6.843  18.355  0.00  0.00    +0.000 N 
ATOM      5  N   UNL     1       4.623   7.328  17.631  0.00  0.00    +0.000 NA
ENDROOT
BRANCH   3   6
ATOM      6  C   UNL     1       2.771   4.533  19.111  0.00  0.00    +0.000 A 
ATOM      7  C   UNL     1       2.546   4.341  20.474  0.00  0.00    +0.000 A 
ATOM      8  C   UNL     1       1.491   3.526  20.915  0.00  0.00    +0.000 A 
ATOM      9  C   UNL     1       0.638   2.911  20.001  0.00  0.00    +0.000 A 
ATOM     10  C   UNL     1       0.874   3.054  18.639  0.00  0.00    +0.000 A 
ATOM     11  C   UNL     1       1.965   3.805  18.209  0.00  0.00    +0.000 A 
ENDBRANCH   3   6
BRANCH   4  12
ATOM     12  C   UNL     1       2.487   7.677  18.666  0.00  0.00    +0.000 A 
ATOM     13  C   UNL     1       1.926   8.524  17.695  0.00  0.00    +0.000 A 
ATOM     14  C   UNL     1       1.005   9.501  18.069  0.00  0.00    +0.000 A 
ATOM     15  C   UNL     1       0.597   9.592  19.398  0.00  0.00    +0.000 A 
ATOM     16  C   UNL     1       1.095   8.701  20.350  0.00  0.00    +0.000 A 
ATOM     17  C   UNL     1       2.033   7.729  19.984  0.00  0.00    +0.000 A 
ENDBRANCH   4  12
BRANCH   1  18
ATOM     18  C   UNL     1       6.872   6.481  17.106  0.00  0.00    +0.000 C 
BRANCH  18  19
ATOM     19  C   UNL     1       7.856   7.264  17.980  0.00  0.00    +0.000 C 
BRANCH  19  20
ATOM     20  C   UNL     1       7.935   8.759  17.637  0.00  0.00    +0.000 C 
BRANCH  20  21
ATOM     21  C   UNL     1       8.804   9.511  18.651  0.00  0.00    +0.000 C 
BRANCH  21  22
ATOM     22  C   UNL     1       8.976  10.990  18.291  0.00  0.00    +0.000 C 
BRANCH  22  24
ATOM     23  C   UNL     1      10.600  12.732  17.426  0.00  0.00    +0.000 C 
ATOM     24  C   UNL     1      10.421  11.294  17.884  0.00  0.00    +0.000 C 
ENDBRANCH  22  24
ENDBRANCH  21  22
ENDBRANCH  20  21
ENDBRANCH  19  20
ENDBRANCH  18  19
ENDBRANCH   1  18
TORSDOF 8
ENDMDL
