MODEL 1
REMARK VINA RESULT:      -7.3      0.000      0.000
REMARK  Name = 
REMARK  11 active torsions:
REMARK  status: ('A' for Active; 'I' for Inactive)
REMARK    1  A    between atoms: C_1  and  C_2
REMARK    2  A    between atoms: C_2  and  C_3
REMARK    3  A    between atoms: C_3  and  C_4
REMARK    4  A    between atoms: C_4  and  C_5
REMARK    5  A    between atoms: C_5  and  C_6
REMARK    6  A    between atoms: C_6  and  C_7
REMARK    7  A    between atoms: C_6  and  N_8
REMARK    8  A    between atoms: N_8  and  C_9
REMARK    9  A    between atoms: C_9  and  C_10
REMARK   10  A    between atoms: C_13  and  C_14
REMARK   11  A    between atoms: C_19  and  O_20
REMARK                            x       y       z     vdW  Elec       q    Type
REMARK                         _______ _______ _______ _____ _____    ______ ____
ROOT
ATOM      1  C   UNL     1       5.760   4.800  17.009  0.00  0.00    +0.000 A 
ATOM      2  C   UNL     1       4.927   5.890  16.933  0.00  0.00    +0.000 A 
ATOM      3  O   UNL     1       3.881   5.682  17.770  0.00  0.00    +0.000 OA
ATOM      4  C   UNL     1       4.140   4.465  18.344  0.00  0.00    +0.000 A 
ATOM      5  N   UNL     1       5.230   3.874  17.882  0.00  0.00    +0.000 NA
ENDROOT
BRANCH   4   6
ATOM      6  C   UNL     1       3.196   3.992  19.349  0.00  0.00    +0.000 A 
ATOM      7  C   UNL     1       1.897   4.526  19.366  0.00  0.00    +0.000 A 
ATOM      8  C   UNL     1       0.947   4.081  20.288  0.00  0.00    +0.000 A 
ATOM      9  C   UNL     1       1.282   3.086  21.204  0.00  0.00    +0.000 A 
ATOM     10  C   UNL     1       2.563   2.539  21.201  0.00  0.00    +0.000 A 
ATOM     11  C   UNL     1       3.508   2.988  20.278  0.00  0.00    +0.000 A 
BRANCH  11  12
ATOM     12  O   UNL     1       4.748   2.402  20.267  0.00  0.00    +0.000 OA
ATOM     13  H   UNL     1       4.750   1.638  20.868  0.00  0.00    +0.000 HD
ENDBRANCH  11  12
ENDBRANCH   4   6
BRANCH   1  14
ATOM     14  C   UNL     1       7.057   4.580  16.323  0.00  0.00    +0.000 C 
BRANCH  14  15
ATOM     15  N   UNL     1       7.078   5.381  15.097  0.00  0.00    +0.000 NA
ATOM     16  H   UNL     1       6.136   5.760  14.968  0.00  0.00    +0.000 HD
BRANCH  15  17
ATOM     17  C   UNL     1       7.461   4.608  13.906  0.00  0.00    +0.000 C 
ATOM     18  C   UNL     1       7.986   5.523  12.791  0.00  0.00    +0.000 C 
BRANCH  17  19
ATOM     19  C   UNL     1       6.217   3.813  13.444  0.00  0.00    +0.000 C 
BRANCH  19  20
ATOM     20  C   UNL     1       6.217   3.529  11.938  0.00  0.00    +0.000 C 
BRANCH  20  21
ATOM     21  C   UNL     1       5.122   2.546  11.526  0.00  0.00    +0.000 C 
BRANCH  21  23
ATOM     22  C   UNL     1       3.549   3.852  10.045  0.00  0.00    +0.000 C 
ATOM     23  C   UNL     1       3.777   3.267  11.425  0.00  0.00    +0.000 C 
ENDBRANCH  21  23
ENDBRANCH  20  21
ENDBRANCH  19  20
ENDBRANCH  17  19
ENDBRANCH  15  17
ENDBRANCH  14  15
ENDBRANCH   1  14
TORSDOF 9
ENDMDL
MODEL 2
REMARK VINA RESULT:      -7.3      1.277      1.317
REMARK  Name = 
REMARK  11 active torsions:
REMARK  status: ('A' for Active; 'I' for Inactive)
REMARK    1  A    between atoms: C_1  and  C_2
REMARK    2  A    between atoms: C_2  and  C_3
REMARK    3  A    between atoms: C_3  and  C_4
REMARK    4  A    between atoms: C_4  and  C_5
REMARK    5  A    between atoms: C_5  and  C_6
REMARK    6  A    between atoms: C_6  and  C_7
REMARK    7  A    between atoms: C_6  and  N_8
REMARK    8  A    between atoms: N_8  and  C_9
REMARK    9  A    between atoms: C_9  and  C_10
REMARK   10  A    between atoms: C_13  and  C_14
REMARK   11  A    between atoms: C_19  and  O_20
REMARK                            x       y       z     vdW  Elec       q    Type
REMARK                         _______ _______ _______ _____ _____    ______ ____
ROOT
ATOM      1  C   UNL     1       5.753   4.917  16.443  0.00  0.00    +0.000 A 
ATOM      2  C   UNL     1       5.187   6.169  16.447  0.00  0.00    +0.000 A 
ATOM      3  O   UNL     1       4.078   6.130  17.227  0.00  0.00    +0.000 OA
ATOM      4  C   UNL     1       4.031   4.841  17.687  0.00  0.00    +0.000 A 
ATOM      5  N   UNL     1       4.986   4.062  17.205  0.00  0.00    +0.000 NA
ENDROOT
BRANCH   4   6
ATOM      6  C   UNL     1       2.955   4.506  18.612  0.00  0.00    +0.000 A 
ATOM      7  C   UNL     1       2.714   5.351  19.708  0.00  0.00    +0.000 A 
ATOM      8  C   UNL     1       1.673   5.092  20.603  0.00  0.00    +0.000 A 
ATOM      9  C   UNL     1       0.853   3.983  20.410  0.00  0.00    +0.000 A 
ATOM     10  C   UNL     1       1.071   3.134  19.327  0.00  0.00    +0.000 A 
ATOM     11  C   UNL     1       2.112   3.398  18.436  0.00  0.00    +0.000 A 
BRANCH  11  12
ATOM     12  O   UNL     1       2.278   2.573  17.354  0.00  0.00    +0.000 OA
ATOM     13  H   UNL     1       1.820   1.731  17.516  0.00  0.00    +0.000 HD
ENDBRANCH  11  12
ENDBRANCH   4   6
BRANCH   1  14
ATOM     14  C   UNL     1       7.003   4.472  15.779  0.00  0.00    +0.000 C 
BRANCH  14  15
ATOM     15  N   UNL     1       7.335   5.427  14.721  0.00  0.00    +0.000 NA
ATOM     16  H   UNL     1       6.532   6.052  14.615  0.00  0.00    +0.000 HD
BRANCH  15  17
ATOM     17  C   UNL     1       7.629   4.785  13.431  0.00  0.00    +0.000 C 
ATOM     18  C   UNL     1       8.158   5.799  12.409  0.00  0.00    +0.000 C 
BRANCH  17  19
ATOM     19  C   UNL     1       6.326   4.113  12.936  0.00  0.00    +0.000 C 
BRANCH  19  20
ATOM     20  C   UNL     1       6.581   2.996  11.919  0.00  0.00    +0.000 C 
BRANCH  20  21
ATOM     21  C   UNL     1       5.288   2.372  11.396  0.00  0.00    +0.000 C 
BRANCH  21  23
ATOM     22  C   UNL     1       3.379   3.562  10.249  0.00  0.00    +0.000 C 
ATOM     23  C   UNL     1       4.127   3.356  11.552  0.00  0.00    +0.000 C 
ENDBRANCH  21  23
ENDBRANCH  20  21
ENDBRANCH  19  20
ENDBRANCH  17  19
ENDBRANCH  15  17
ENDBRANCH  14  15
ENDBRANCH   1  14
TORSDOF 9
ENDMDL
MODEL 3
REMARK VINA RESULT:      -7.3      1.215      1.550
REMARK  Name = 
REMARK  11 active torsions:
REMARK  status: ('A' for Active; 'I' for Inactive)
REMARK    1  A    between atoms: C_1  and  C_2
REMARK    2  A    between atoms: C_2  and  C_3
REMARK    3  A    between atoms: C_3  and  C_4
REMARK    4  A    between atoms: C_4  and  C_5
REMARK    5  A    between atoms: C_5  and  C_6
REMARK    6  A    between atoms: C_6  and  C_7
REMARK    7  A    between atoms: C_6  and  N_8
REMARK    8  A    between atoms: N_8  and  C_9
REMARK    9  A    between atoms: C_9  and  C_10
REMARK   10  A    between atoms: C_13  and  C_14
REMARK   11  A    between atoms: C_19  and  O_20
REMARK                            x       y       z     vdW  Elec       q    Type
REMARK                         _______ _______ _______ _____ _____    ______ ____
ROOT
ATOM      1  C   UNL     1       6.232   4.800  17.659  0.00  0.00    +0.000 A 
ATOM      2  C   UNL     1       6.084   5.726  18.663  0.00  0.00    +0.000 A 
ATOM      3  O   UNL     1       4.893   5.501  19.273  0.00  0.00    +0.000 OA
ATOM      4  C   UNL     1       4.373   4.418  18.615  0.00  0.00    +0.000 A 
ATOM      5  N   UNL     1       5.116   3.992  17.606  0.00  0.00    +0.000 NA
ENDROOT
BRANCH   4   6
ATOM      6  C   UNL     1       3.096   3.901  19.094  0.00  0.00    +0.000 A 
ATOM      7  C   UNL     1       2.760   4.073  20.447  0.00  0.00    +0.000 A 
ATOM      8  C   UNL     1       1.534   3.627  20.947  0.00  0.00    +0.000 A 
ATOM      9  C   UNL     1       0.623   3.006  20.096  0.00  0.00    +0.000 A 
ATOM     10  C   UNL     1       0.934   2.830  18.749  0.00  0.00    +0.000 A 
ATOM     11  C   UNL     1       2.160   3.278  18.256  0.00  0.00    +0.000 A 
BRANCH  11  12
ATOM     12  O   UNL     1       2.424   3.133  16.918  0.00  0.00    +0.000 OA
ATOM     13  H   UNL     1       2.904   3.914  16.597  0.00  0.00    +0.000 HD
ENDBRANCH  11  12
ENDBRANCH   4   6
BRANCH   1  14
ATOM     14  C   UNL     1       7.387   4.606  16.747  0.00  0.00    +0.000 C 
BRANCH  14  15
ATOM     15  N   UNL     1       7.120   5.320  15.498  0.00  0.00    +0.000 NA
ATOM     16  H   UNL     1       6.159   5.668  15.547  0.00  0.00    +0.000 HD
BRANCH  15  17
ATOM     17  C   UNL     1       7.273   4.476  14.303  0.00  0.00    +0.000 C 
ATOM     18  C   UNL     1       7.783   5.288  13.105  0.00  0.00    +0.000 C 
BRANCH  17  19
ATOM     19  C   UNL     1       5.897   3.835  14.004  0.00  0.00    +0.000 C 
BRANCH  19  20
ATOM     20  C   UNL     1       5.747   3.397  12.544  0.00  0.00    +0.000 C 
BRANCH  20  21
ATOM     21  C   UNL     1       4.547   4.046  11.855  0.00  0.00    +0.000 C 
BRANCH  21  23
ATOM     22  C   UNL     1       3.088   3.718   9.821  0.00  0.00    +0.000 C 
ATOM     23  C   UNL     1       3.860   3.036  10.935  0.00  0.00    +0.000 C 
ENDBRANCH  21  23
ENDBRANCH  20  21
ENDBRANCH  19  20
ENDBRANCH  17  19
ENDBRANCH  15  17
ENDBRANCH  14  15
ENDBRANCH   1  14
TORSDOF 9
ENDMDL
MODEL 4
REMARK VINA RESULT:      -7.1      1.517      1.978
REMARK  Name = 
REMARK  11 active torsions:
REMARK  status: ('A' for Active; 'I' for Inactive)
REMARK    1  A    between atoms: C_1  and  C_2
REMARK    2  A    between atoms: C_2  and  C_3
REMARK    3  A    between atoms: C_3  and  C_4
REMARK    4  A    between atoms: C_4  and  C_5
REMARK    5  A    between atoms: C_5  and  C_6
REMARK    6  A    between atoms: C_6  and  C_7
REMARK    7  A    between atoms: C_6  and  N_8
REMARK    8  A    between atoms: N_8  and  C_9
REMARK    9  A    between atoms: C_9  and  C_10
REMARK   10  A    between atoms: C_13  and  C_14
REMARK   11  A    between atoms: C_19  and  O_20
REMARK                            x       y       z     vdW  Elec       q    Type
REMARK                         _______ _______ _______ _____ _____    ______ ____
ROOT
ATOM      1  C   UNL     1       6.043   4.558  16.015  0.00  0.00    +0.000 A 
ATOM      2  C   UNL     1       6.682   4.424  17.225  0.00  0.00    +0.000 A 
ATOM      3  O   UNL     1       5.739   4.247  18.183  0.00  0.00    +0.000 OA
ATOM      4  C   UNL     1       4.552   4.259  17.500  0.00  0.00    +0.000 A 
ATOM      5  N   UNL     1       4.679   4.493  16.203  0.00  0.00    +0.000 NA
ENDROOT
BRANCH   4   6
ATOM      6  C   UNL     1       3.338   4.032  18.274  0.00  0.00    +0.000 A 
ATOM      7  C   UNL     1       2.436   3.042  17.849  0.00  0.00    +0.000 A 
ATOM      8  C   UNL     1       1.276   2.764  18.576  0.00  0.00    +0.000 A 
ATOM      9  C   UNL     1       1.004   3.470  19.745  0.00  0.00    +0.000 A 
ATOM     10  C   UNL     1       1.887   4.452  20.188  0.00  0.00    +0.000 A 
ATOM     11  C   UNL     1       3.044   4.726  19.457  0.00  0.00    +0.000 A 
BRANCH  11  12
ATOM     12  O   UNL     1       3.920   5.666  19.938  0.00  0.00    +0.000 OA
ATOM     13  H   UNL     1       4.248   5.387  20.809  0.00  0.00    +0.000 HD
ENDBRANCH  11  12
ENDBRANCH   4   6
BRANCH   1  14
ATOM     14  C   UNL     1       6.645   4.721  14.669  0.00  0.00    +0.000 C 
BRANCH  14  15
ATOM     15  N   UNL     1       6.087   3.699  13.782  0.00  0.00    +0.000 NA
ATOM     16  H   UNL     1       6.064   2.821  14.308  0.00  0.00    +0.000 HD
BRANCH  15  17
ATOM     17  C   UNL     1       6.870   3.509  12.551  0.00  0.00    +0.000 C 
ATOM     18  C   UNL     1       7.404   4.845  12.016  0.00  0.00    +0.000 C 
BRANCH  17  19
ATOM     19  C   UNL     1       5.953   2.815  11.516  0.00  0.00    +0.000 C 
BRANCH  19  20
ATOM     20  C   UNL     1       4.463   2.997  11.823  0.00  0.00    +0.000 C 
BRANCH  20  21
ATOM     21  C   UNL     1       3.837   4.148  11.036  0.00  0.00    +0.000 C 
BRANCH  21  23
ATOM     22  C   UNL     1       2.554   4.710   8.935  0.00  0.00    +0.000 C 
ATOM     23  C   UNL     1       3.036   3.602   9.852  0.00  0.00    +0.000 C 
ENDBRANCH  21  23
ENDBRANCH  20  21
ENDBRANCH  19  20
ENDBRANCH  17  19
ENDBRANCH  15  17
ENDBRANCH  14  15
ENDBRANCH   1  14
TORSDOF 9
ENDMDL
MODEL 5
REMARK VINA RESULT:      -7.1      2.137      7.213
REMARK  Name = 
REMARK  11 active torsions:
REMARK  status: ('A' for Active; 'I' for Inactive)
REMARK    1  A    between atoms: C_1  and  C_2
REMARK    2  A    between atoms: C_2  and  C_3
REMARK    3  A    between atoms: C_3  and  C_4
REMARK    4  A    between atoms: C_4  and  C_5
REMARK    5  A    between atoms: C_5  and  C_6
REMARK    6  A    between atoms: C_6  and  C_7
REMARK    7  A    between atoms: C_6  and  N_8
REMARK    8  A    between atoms: N_8  and  C_9
REMARK    9  A    between atoms: C_9  and  C_10
REMARK   10  A    between atoms: C_13  and  C_14
REMARK   11  A    between atoms: C_19  and  O_20
REMARK                            x       y       z     vdW  Elec       q    Type
REMARK                         _______ _______ _______ _____ _____    ______ ____
ROOT
ATOM      1  C   UNL     1       6.191   5.065  17.655  0.00  0.00    +0.000 A 
ATOM      2  C   UNL     1       7.529   4.758  17.586  0.00  0.00    +0.000 A 
ATOM      3  O   UNL     1       7.821   4.423  16.305  0.00  0.00    +0.000 OA
ATOM      4  C   UNL     1       6.634   4.565  15.636  0.00  0.00    +0.000 A 
ATOM      5  N   UNL     1       5.616   4.900  16.413  0.00  0.00    +0.000 NA
ENDROOT
BRANCH   4   6
ATOM      6  C   UNL     1       6.648   4.322  14.199  0.00  0.00    +0.000 A 
ATOM      7  C   UNL     1       5.678   3.470  13.645  0.00  0.00    +0.000 A 
ATOM      8  C   UNL     1       5.629   3.232  12.270  0.00  0.00    +0.000 A 
ATOM      9  C   UNL     1       6.549   3.850  11.426  0.00  0.00    +0.000 A 
ATOM     10  C   UNL     1       7.516   4.702  11.953  0.00  0.00    +0.000 A 
ATOM     11  C   UNL     1       7.561   4.936  13.328  0.00  0.00    +0.000 A 
BRANCH  11  12
ATOM     12  O   UNL     1       8.494   5.813  13.817  0.00  0.00    +0.000 OA
ATOM     13  H   UNL     1       8.066   6.428  14.436  0.00  0.00    +0.000 HD
ENDBRANCH  11  12
ENDBRANCH   4   6
BRANCH   1  14
ATOM     14  C   UNL     1       5.412   5.535  18.826  0.00  0.00    +0.000 C 
BRANCH  14  15
ATOM     15  N   UNL     1       4.117   4.854  18.830  0.00  0.00    +0.000 NA
ATOM     16  H   UNL     1       4.270   3.912  18.463  0.00  0.00    +0.000 HD
BRANCH  15  17
ATOM     17  C   UNL     1       3.100   5.537  18.016  0.00  0.00    +0.000 C 
ATOM     18  C   UNL     1       2.788   6.935  18.566  0.00  0.00    +0.000 C 
BRANCH  17  19
ATOM     19  C   UNL     1       1.837   4.643  17.998  0.00  0.00    +0.000 C 
BRANCH  19  20
ATOM     20  C   UNL     1       2.152   3.173  17.703  0.00  0.00    +0.000 C 
BRANCH  20  21
ATOM     21  C   UNL     1       1.761   2.246  18.853  0.00  0.00    +0.000 C 
BRANCH  21  23
ATOM     22  C   UNL     1       1.350   2.832  21.275  0.00  0.00    +0.000 C 
ATOM     23  C   UNL     1       0.865   2.989  19.846  0.00  0.00    +0.000 C 
ENDBRANCH  21  23
ENDBRANCH  20  21
ENDBRANCH  19  20
ENDBRANCH  17  19
ENDBRANCH  15  17
ENDBRANCH  14  15
ENDBRANCH   1  14
TORSDOF 9
ENDMDL
MODEL 6
REMARK VINA RESULT:      -7.1      1.430      1.705
REMARK  Name = 
REMARK  11 active torsions:
REMARK  status: ('A' for Active; 'I' for Inactive)
REMARK    1  A    between atoms: C_1  and  C_2
REMARK    2  A    between atoms: C_2  and  C_3
REMARK    3  A    between atoms: C_3  and  C_4
REMARK    4  A    between atoms: C_4  and  C_5
REMARK    5  A    between atoms: C_5  and  C_6
REMARK    6  A    between atoms: C_6  and  C_7
REMARK    7  A    between atoms: C_6  and  N_8
REMARK    8  A    between atoms: N_8  and  C_9
REMARK    9  A    between atoms: C_9  and  C_10
REMARK   10  A    between atoms: C_13  and  C_14
REMARK   11  A    between atoms: C_19  and  O_20
REMARK                            x       y       z     vdW  Elec       q    Type
REMARK                         _______ _______ _______ _____ _____    ______ ____
ROOT
ATOM      1  C   UNL     1       6.331   4.421  16.581  0.00  0.00    +0.000 A 
ATOM      2  C   UNL     1       6.908   4.521  17.825  0.00  0.00    +0.000 A 
ATOM      3  O   UNL     1       5.955   4.261  18.754  0.00  0.00    +0.000 OA
ATOM      4  C   UNL     1       4.830   3.989  18.022  0.00  0.00    +0.000 A 
ATOM      5  N   UNL     1       4.992   4.121  16.716  0.00  0.00    +0.000 NA
ENDROOT
BRANCH   4   6
ATOM      6  C   UNL     1       3.631   3.614  18.763  0.00  0.00    +0.000 A 
ATOM      7  C   UNL     1       2.994   4.582  19.557  0.00  0.00    +0.000 A 
ATOM      8  C   UNL     1       1.824   4.281  20.259  0.00  0.00    +0.000 A 
ATOM      9  C   UNL     1       1.270   3.006  20.170  0.00  0.00    +0.000 A 
ATOM     10  C   UNL     1       1.883   2.032  19.383  0.00  0.00    +0.000 A 
ATOM     11  C   UNL     1       3.052   2.339  18.685  0.00  0.00    +0.000 A 
BRANCH  11  12
ATOM     12  O   UNL     1       3.611   1.377  17.883  0.00  0.00    +0.000 OA
ATOM     13  H   UNL     1       3.642   0.533  18.364  0.00  0.00    +0.000 HD
ENDBRANCH  11  12
ENDBRANCH   4   6
BRANCH   1  14
ATOM     14  C   UNL     1       6.975   4.567  15.252  0.00  0.00    +0.000 C 
BRANCH  14  15
ATOM     15  N   UNL     1       5.999   4.214  14.219  0.00  0.00    +0.000 NA
ATOM     16  H   UNL     1       5.358   3.531  14.630  0.00  0.00    +0.000 HD
BRANCH  15  17
ATOM     17  C   UNL     1       6.614   3.643  13.012  0.00  0.00    +0.000 C 
ATOM     18  C   UNL     1       7.237   4.734  12.131  0.00  0.00    +0.000 C 
BRANCH  17  19
ATOM     19  C   UNL     1       5.515   2.864  12.251  0.00  0.00    +0.000 C 
BRANCH  19  20
ATOM     20  C   UNL     1       4.792   3.720  11.207  0.00  0.00    +0.000 C 
BRANCH  20  21
ATOM     21  C   UNL     1       3.337   3.297  11.004  0.00  0.00    +0.000 C 
BRANCH  21  23
ATOM     22  C   UNL     1       2.427   4.850   9.234  0.00  0.00    +0.000 C 
ATOM     23  C   UNL     1       2.942   3.456   9.535  0.00  0.00    +0.000 C 
ENDBRANCH  21  23
ENDBRANCH  20  21
ENDBRANCH  19  20
ENDBRANCH  17  19
ENDBRANCH  15  17
ENDBRANCH  14  15
ENDBRANCH   1  14
TORSDOF 9
ENDMDL
MODEL 7
REMARK VINA RESULT:      -7.1      1.177      1.209
REMARK  Name = 
REMARK  11 active torsions:
REMARK  status: ('A' for Active; 'I' for Inactive)
REMARK    1  A    between atoms: C_1  and  C_2
REMARK    2  A    between atoms: C_2  and  C_3
REMARK    3  A    between atoms: C_3  and  C_4
REMARK    4  A    between atoms: C_4  and  C_5
REMARK    5  A    between atoms: C_5  and  C_6
REMARK    6  A    between atoms: C_6  and  C_7
REMARK    7  A    between atoms: C_6  and  N_8
REMARK    8  A    between atoms: N_8  and  C_9
REMARK    9  A    between atoms: C_9  and  C_10
REMARK   10  A    between atoms: C_13  and  C_14
REMARK   11  A    between atoms: C_19  and  O_20
REMARK                            x       y       z     vdW  Elec       q    Type
REMARK                         _______ _______ _______ _____ _____    ______ ____
ROOT
ATOM      1  C   UNL     1       6.151   5.424  17.525  0.00  0.00    +0.000 A 
ATOM      2  C   UNL     1       6.474   5.624  18.846  0.00  0.00    +0.000 A 
ATOM      3  O   UNL     1       5.449   5.163  19.606  0.00  0.00    +0.000 OA
ATOM      4  C   UNL     1       4.545   4.677  18.699  0.00  0.00    +0.000 A 
ATOM      5  N   UNL     1       4.898   4.856  17.437  0.00  0.00    +0.000 NA
ENDROOT
BRANCH   4   6
ATOM      6  C   UNL     1       3.339   4.055  19.233  0.00  0.00    +0.000 A 
ATOM      7  C   UNL     1       2.402   4.858  19.905  0.00  0.00    +0.000 A 
ATOM      8  C   UNL     1       1.216   4.316  20.405  0.00  0.00    +0.000 A 
ATOM      9  C   UNL     1       0.946   2.961  20.234  0.00  0.00    +0.000 A 
ATOM     10  C   UNL     1       1.859   2.147  19.566  0.00  0.00    +0.000 A 
ATOM     11  C   UNL     1       3.042   2.694  19.069  0.00  0.00    +0.000 A 
BRANCH  11  12
ATOM     12  O   UNL     1       3.903   1.882  18.377  0.00  0.00    +0.000 OA
ATOM     13  H   UNL     1       4.426   1.355  19.004  0.00  0.00    +0.000 HD
ENDBRANCH  11  12
ENDBRANCH   4   6
BRANCH   1  14
ATOM     14  C   UNL     1       6.969   5.715  16.322  0.00  0.00    +0.000 C 
BRANCH  14  15
ATOM     15  N   UNL     1       6.138   5.522  15.133  0.00  0.00    +0.000 NA
ATOM     16  H   UNL     1       5.245   5.135  15.449  0.00  0.00    +0.000 HD
BRANCH  15  17
ATOM     17  C   UNL     1       6.741   4.616  14.144  0.00  0.00    +0.000 C 
ATOM     18  C   UNL     1       7.743   5.354  13.247  0.00  0.00    +0.000 C 
BRANCH  17  19
ATOM     19  C   UNL     1       5.591   3.997  13.314  0.00  0.00    +0.000 C 
BRANCH  19  20
ATOM     20  C   UNL     1       6.053   2.836  12.428  0.00  0.00    +0.000 C 
BRANCH  20  21
ATOM     21  C   UNL     1       5.165   2.644  11.200  0.00  0.00    +0.000 C 
BRANCH  21  23
ATOM     22  C   UNL     1       3.254   3.844  10.065  0.00  0.00    +0.000 C 
ATOM     23  C   UNL     1       3.840   3.386  11.387  0.00  0.00    +0.000 C 
ENDBRANCH  21  23
ENDBRANCH  20  21
ENDBRANCH  19  20
ENDBRANCH  17  19
ENDBRANCH  15  17
ENDBRANCH  14  15
ENDBRANCH   1  14
TORSDOF 9
ENDMDL
MODEL 8
REMARK VINA RESULT:      -7.0      1.103      1.487
REMARK  Name = 
REMARK  11 active torsions:
REMARK  status: ('A' for Active; 'I' for Inactive)
REMARK    1  A    between atoms: C_1  and  C_2
REMARK    2  A    between atoms: C_2  and  C_3
REMARK    3  A    between atoms: C_3  and  C_4
REMARK    4  A    between atoms: C_4  and  C_5
REMARK    5  A    between atoms: C_5  and  C_6
REMARK    6  A    between atoms: C_6  and  C_7
REMARK    7  A    between atoms: C_6  and  N_8
REMARK    8  A    between atoms: N_8  and  C_9
REMARK    9  A    between atoms: C_9  and  C_10
REMARK   10  A    between atoms: C_13  and  C_14
REMARK   11  A    between atoms: C_19  and  O_20
REMARK                            x       y       z     vdW  Elec       q    Type
REMARK                         _______ _______ _______ _____ _____    ______ ____
ROOT
ATOM      1  C   UNL     1       5.358   5.982  17.231  0.00  0.00    +0.000 A 
ATOM      2  C   UNL     1       6.214   5.873  18.301  0.00  0.00    +0.000 A 
ATOM      3  O   UNL     1       5.547   5.269  19.316  0.00  0.00    +0.000 OA
ATOM      4  C   UNL     1       4.302   5.015  18.802  0.00  0.00    +0.000 A 
ATOM      5  N   UNL     1       4.125   5.469  17.572  0.00  0.00    +0.000 NA
ENDROOT
BRANCH   4   6
ATOM      6  C   UNL     1       3.361   4.309  19.662  0.00  0.00    +0.000 A 
ATOM      7  C   UNL     1       2.102   4.883  19.906  0.00  0.00    +0.000 A 
ATOM      8  C   UNL     1       1.153   4.230  20.695  0.00  0.00    +0.000 A 
ATOM      9  C   UNL     1       1.448   2.986  21.248  0.00  0.00    +0.000 A 
ATOM     10  C   UNL     1       2.688   2.396  21.015  0.00  0.00    +0.000 A 
ATOM     11  C   UNL     1       3.633   3.054  20.226  0.00  0.00    +0.000 A 
BRANCH  11  12
ATOM     12  O   UNL     1       4.829   2.432  19.975  0.00  0.00    +0.000 OA
ATOM     13  H   UNL     1       5.535   3.097  19.923  0.00  0.00    +0.000 HD
ENDBRANCH  11  12
ENDBRANCH   4   6
BRANCH   1  14
ATOM     14  C   UNL     1       5.639   6.524  15.879  0.00  0.00    +0.000 C 
BRANCH  14  15
ATOM     15  N   UNL     1       6.546   5.606  15.187  0.00  0.00    +0.000 NA
ATOM     16  H   UNL     1       7.036   6.148  14.470  0.00  0.00    +0.000 HD
BRANCH  15  17
ATOM     17  C   UNL     1       5.853   4.474  14.555  0.00  0.00    +0.000 C 
ATOM     18  C   UNL     1       5.798   3.258  15.490  0.00  0.00    +0.000 C 
BRANCH  17  19
ATOM     19  C   UNL     1       6.602   4.141  13.242  0.00  0.00    +0.000 C 
BRANCH  19  20
ATOM     20  C   UNL     1       5.782   3.259  12.295  0.00  0.00    +0.000 C 
BRANCH  20  21
ATOM     21  C   UNL     1       4.526   3.960  11.779  0.00  0.00    +0.000 C 
BRANCH  21  23
ATOM     22  C   UNL     1       3.013   3.810   9.762  0.00  0.00    +0.000 C 
ATOM     23  C   UNL     1       3.759   3.035  10.832  0.00  0.00    +0.000 C 
ENDBRANCH  21  23
ENDBRANCH  20  21
ENDBRANCH  19  20
ENDBRANCH  17  19
ENDBRANCH  15  17
ENDBRANCH  14  15
ENDBRANCH   1  14
TORSDOF 9
ENDMDL
MODEL 9
REMARK VINA RESULT:      -7.0      2.746      6.721
REMARK  Name = 
REMARK  11 active torsions:
REMARK  status: ('A' for Active; 'I' for Inactive)
REMARK    1  A    between atoms: C_1  and  C_2
REMARK    2  A    between atoms: C_2  and  C_3
REMARK    3  A    between atoms: C_3  and  C_4
REMARK    4  A    between atoms: C_4  and  C_5
REMARK    5  A    between atoms: C_5  and  C_6
REMARK    6  A    between atoms: C_6  and  C_7
REMARK    7  A    between atoms: C_6  and  N_8
REMARK    8  A    between atoms: N_8  and  C_9
REMARK    9  A    between atoms: C_9  and  C_10
REMARK   10  A    between atoms: C_13  and  C_14
REMARK   11  A    between atoms: C_19  and  O_20
REMARK                            x       y       z     vdW  Elec       q    Type
REMARK                         _______ _______ _______ _____ _____    ______ ____
ROOT
ATOM      1  C   UNL     1       2.697   6.367  19.455  0.00  0.00    +0.000 A 
ATOM      2  C   UNL     1       2.646   7.418  18.571  0.00  0.00    +0.000 A 
ATOM      3  O   UNL     1       3.601   7.224  17.627  0.00  0.00    +0.000 OA
ATOM      4  C   UNL     1       4.185   6.034  17.973  0.00  0.00    +0.000 A 
ATOM      5  N   UNL     1       3.710   5.506  19.091  0.00  0.00    +0.000 NA
ENDROOT
BRANCH   4   6
ATOM      6  C   UNL     1       5.233   5.528  17.094  0.00  0.00    +0.000 A 
ATOM      7  C   UNL     1       5.084   5.679  15.705  0.00  0.00    +0.000 A 
ATOM      8  C   UNL     1       6.076   5.243  14.824  0.00  0.00    +0.000 A 
ATOM      9  C   UNL     1       7.235   4.653  15.321  0.00  0.00    +0.000 A 
ATOM     10  C   UNL     1       7.405   4.498  16.695  0.00  0.00    +0.000 A 
ATOM     11  C   UNL     1       6.411   4.936  17.571  0.00  0.00    +0.000 A 
BRANCH  11  12
ATOM     12  O   UNL     1       6.622   4.813  18.920  0.00  0.00    +0.000 OA
ATOM     13  H   UNL     1       6.790   3.881  19.138  0.00  0.00    +0.000 HD
ENDBRANCH  11  12
ENDBRANCH   4   6
BRANCH   1  14
ATOM     14  C   UNL     1       1.823   6.102  20.624  0.00  0.00    +0.000 C 
BRANCH  14  15
ATOM     15  N   UNL     1       2.249   4.852  21.253  0.00  0.00    +0.000 NA
ATOM     16  H   UNL     1       3.099   4.546  20.772  0.00  0.00    +0.000 HD
BRANCH  15  17
ATOM     17  C   UNL     1       1.236   3.789  21.176  0.00  0.00    +0.000 C 
ATOM     18  C   UNL     1       1.773   2.462  21.731  0.00  0.00    +0.000 C 
BRANCH  17  19
ATOM     19  C   UNL     1       0.815   3.650  19.694  0.00  0.00    +0.000 C 
BRANCH  19  20
ATOM     20  C   UNL     1       1.271   2.329  19.066  0.00  0.00    +0.000 C 
BRANCH  20  21
ATOM     21  C   UNL     1       2.317   2.530  17.970  0.00  0.00    +0.000 C 
BRANCH  21  23
ATOM     22  C   UNL     1       4.361   2.081  19.383  0.00  0.00    +0.000 C 
ATOM     23  C   UNL     1       3.516   1.612  18.214  0.00  0.00    +0.000 C 
ENDBRANCH  21  23
ENDBRANCH  20  21
ENDBRANCH  19  20
ENDBRANCH  17  19
ENDBRANCH  15  17
ENDBRANCH  14  15
ENDBRANCH   1  14
TORSDOF 9
ENDMDL
