MODEL 1
REMARK VINA RESULT:      -8.1      0.000      0.000
REMARK  Name = 
REMARK  8 active torsions:
REMARK  status: ('A' for Active; 'I' for Inactive)
REMARK    1  A    between atoms: C_2  and  C_13
REMARK    2  A    between atoms: N_3  and  C_4
REMARK    3  A    between atoms: C_4  and  C_5
REMARK    4  A    between atoms: C_5  and  C_6
REMARK    5  A    between atoms: C_6  and  N_7
REMARK    6  A    between atoms: C_17  and  N_18
REMARK    7  A    between atoms: N_18  and  S_19
REMARK    8  A    between atoms: S_19  and  C_22
REMARK                            x       y       z     vdW  Elec       q    Type
REMARK                         _______ _______ _______ _____ _____    ______ ____
ROOT
ATOM      1  C   UNL     1       2.449   7.572  18.899  0.00  0.00    +0.000 A 
ATOM      2  C   UNL     1       2.495   8.455  17.815  0.00  0.00    +0.000 A 
ATOM      3  C   UNL     1       1.691   9.595  17.815  0.00  0.00    +0.000 A 
ATOM      4  C   UNL     1       0.842   9.851  18.894  0.00  0.00    +0.000 A 
ATOM      5  C   UNL     1       0.798   8.968  19.973  0.00  0.00    +0.000 A 
ATOM      6  C   UNL     1       1.608   7.840  19.989  0.00  0.00    +0.000 A 
ENDROOT
BRANCH   1   8
ATOM      7  O   UNL     1       3.682   5.865  19.951  0.00  0.00    +0.000 OA
ATOM      8  C   UNL     1       3.306   6.362  18.895  0.00  0.00    +0.000 C 
ATOM      9  N   UNL     1       3.647   5.877  17.650  0.00  0.00    +0.000 N 
ATOM     10  H   UNL     1       3.402   6.398  16.818  0.00  0.00    +0.000 HD
BRANCH   9  11
ATOM     11  C   UNL     1       4.468   4.698  17.484  0.00  0.00    +0.000 C 
BRANCH  11  12
ATOM     12  C   UNL     1       3.645   3.504  17.010  0.00  0.00    +0.000 C 
BRANCH  12  13
ATOM     13  C   UNL     1       3.617   2.393  18.059  0.00  0.00    +0.000 C 
BRANCH  13  14
ATOM     14  N   UNL     1       2.647   2.654  19.111  0.00  0.00    +0.000 N 
ATOM     15  C   UNL     1       3.026   2.734  20.499  0.00  0.00    +0.000 C 
ATOM     16  C   UNL     1       1.694   2.893  21.208  0.00  0.00    +0.000 C 
ATOM     17  C   UNL     1       0.858   3.693  20.216  0.00  0.00    +0.000 C 
ATOM     18  C   UNL     1       1.421   3.268  18.879  0.00  0.00    +0.000 C 
ATOM     19  O   UNL     1       0.915   3.503  17.794  0.00  0.00    +0.000 OA
ENDBRANCH  13  14
ENDBRANCH  12  13
ENDBRANCH  11  12
ENDBRANCH   9  11
ENDBRANCH   1   8
BRANCH   5  20
ATOM     20  N   UNL     1      -0.066   9.238  21.060  0.00  0.00    +0.000 N 
ATOM     21  H   UNL     1      -1.002   8.838  21.092  0.00  0.00    +0.000 HD
BRANCH  20  22
ATOM     22  S   UNL     1       0.257  10.503  22.113  0.00  0.00    +0.000 S 
ATOM     23  O   UNL     1       0.316   9.933  23.441  0.00  0.00    +0.000 OA
ATOM     24  O   UNL     1       1.343  11.293  21.574  0.00  0.00    +0.000 OA
BRANCH  22  25
ATOM     25  C   UNL     1      -1.230  11.484  22.045  0.00  0.00    +0.000 A 
ATOM     26  C   UNL     1      -1.950  11.693  23.228  0.00  0.00    +0.000 A 
ATOM     27  C   UNL     1      -3.129  12.439  23.198  0.00  0.00    +0.000 A 
ATOM     28  C   UNL     1      -3.561  13.002  21.996  0.00  0.00    +0.000 A 
ATOM     29 BR   UNL     1      -5.156  14.015  21.961  0.00  0.00    +0.000 Br
ATOM     30  C   UNL     1      -2.828  12.820  20.822  0.00  0.00    +0.000 A 
ATOM     31  C   UNL     1      -1.658  12.052  20.841  0.00  0.00    +0.000 A 
ENDBRANCH  22  25
ENDBRANCH  20  22
ENDBRANCH   5  20
TORSDOF 8
ENDMDL
MODEL 2
REMARK VINA RESULT:      -7.9      1.075      2.190
REMARK  Name = 
REMARK  8 active torsions:
REMARK  status: ('A' for Active; 'I' for Inactive)
REMARK    1  A    between atoms: C_2  and  C_13
REMARK    2  A    between atoms: N_3  and  C_4
REMARK    3  A    between atoms: C_4  and  C_5
REMARK    4  A    between atoms: C_5  and  C_6
REMARK    5  A    between atoms: C_6  and  N_7
REMARK    6  A    between atoms: C_17  and  N_18
REMARK    7  A    between atoms: N_18  and  S_19
REMARK    8  A    between atoms: S_19  and  C_22
REMARK                            x       y       z     vdW  Elec       q    Type
REMARK                         _______ _______ _______ _____ _____    ______ ____
ROOT
ATOM      1  C   UNL     1       2.063   7.709  19.470  0.00  0.00    +0.000 A 
ATOM      2  C   UNL     1       2.516   8.292  18.281  0.00  0.00    +0.000 A 
ATOM      3  C   UNL     1       1.969   9.501  17.850  0.00  0.00    +0.000 A 
ATOM      4  C   UNL     1       0.972  10.124  18.602  0.00  0.00    +0.000 A 
ATOM      5  C   UNL     1       0.521   9.540  19.786  0.00  0.00    +0.000 A 
ATOM      6  C   UNL     1       1.072   8.346  20.232  0.00  0.00    +0.000 A 
ENDROOT
BRANCH   1   8
ATOM      7  O   UNL     1       3.780   6.103  19.581  0.00  0.00    +0.000 OA
ATOM      8  C   UNL     1       2.648   6.425  19.925  0.00  0.00    +0.000 C 
ATOM      9  N   UNL     1       1.832   5.648  20.721  0.00  0.00    +0.000 N 
ATOM     10  H   UNL     1       0.868   5.915  20.873  0.00  0.00    +0.000 HD
BRANCH   9  11
ATOM     11  C   UNL     1       2.266   4.375  21.252  0.00  0.00    +0.000 C 
BRANCH  11  12
ATOM     12  C   UNL     1       1.234   3.281  21.003  0.00  0.00    +0.000 C 
BRANCH  12  13
ATOM     13  C   UNL     1       1.724   2.278  19.959  0.00  0.00    +0.000 C 
BRANCH  13  14
ATOM     14  N   UNL     1       2.634   2.883  18.999  0.00  0.00    +0.000 N 
ATOM     15  C   UNL     1       4.031   2.535  18.943  0.00  0.00    +0.000 C 
ATOM     16  C   UNL     1       4.580   3.488  17.899  0.00  0.00    +0.000 C 
ATOM     17  C   UNL     1       3.417   3.657  16.929  0.00  0.00    +0.000 C 
ATOM     18  C   UNL     1       2.207   3.475  17.815  0.00  0.00    +0.000 C 
ATOM     19  O   UNL     1       1.056   3.729  17.499  0.00  0.00    +0.000 OA
ENDBRANCH  13  14
ENDBRANCH  12  13
ENDBRANCH  11  12
ENDBRANCH   9  11
ENDBRANCH   1   8
BRANCH   5  20
ATOM     20  N   UNL     1      -0.490  10.181  20.539  0.00  0.00    +0.000 N 
ATOM     21  H   UNL     1      -1.447  10.227  20.192  0.00  0.00    +0.000 HD
BRANCH  20  22
ATOM     22  S   UNL     1      -0.090  11.204  21.807  0.00  0.00    +0.000 S 
ATOM     23  O   UNL     1       0.220  10.358  22.940  0.00  0.00    +0.000 OA
ATOM     24  O   UNL     1       0.838  12.203  21.326  0.00  0.00    +0.000 OA
BRANCH  22  25
ATOM     25  C   UNL     1      -1.633  12.013  22.184  0.00  0.00    +0.000 A 
ATOM     26  C   UNL     1      -2.222  12.824  21.206  0.00  0.00    +0.000 A 
ATOM     27  C   UNL     1      -3.419  13.486  21.485  0.00  0.00    +0.000 A 
ATOM     28  C   UNL     1      -4.039  13.304  22.721  0.00  0.00    +0.000 A 
ATOM     29 BR   UNL     1      -5.661  14.198  23.092  0.00  0.00    +0.000 Br
ATOM     30  C   UNL     1      -3.469  12.470  23.686  0.00  0.00    +0.000 A 
ATOM     31  C   UNL     1      -2.256  11.824  23.422  0.00  0.00    +0.000 A 
ENDBRANCH  22  25
ENDBRANCH  20  22
ENDBRANCH   5  20
TORSDOF 8
ENDMDL
MODEL 3
REMARK VINA RESULT:      -7.9      1.671      2.101
REMARK  Name = 
REMARK  8 active torsions:
REMARK  status: ('A' for Active; 'I' for Inactive)
REMARK    1  A    between atoms: C_2  and  C_13
REMARK    2  A    between atoms: N_3  and  C_4
REMARK    3  A    between atoms: C_4  and  C_5
REMARK    4  A    between atoms: C_5  and  C_6
REMARK    5  A    between atoms: C_6  and  N_7
REMARK    6  A    between atoms: C_17  and  N_18
REMARK    7  A    between atoms: N_18  and  S_19
REMARK    8  A    between atoms: S_19  and  C_22
REMARK                            x       y       z     vdW  Elec       q    Type
REMARK                         _______ _______ _______ _____ _____    ______ ____
ROOT
ATOM      1  C   UNL     1       2.310   7.739  18.842  0.00  0.00    +0.000 A 
ATOM      2  C   UNL     1       2.034   7.409  20.174  0.00  0.00    +0.000 A 
ATOM      3  C   UNL     1       1.170   8.209  20.921  0.00  0.00    +0.000 A 
ATOM      4  C   UNL     1       0.584   9.336  20.342  0.00  0.00    +0.000 A 
ATOM      5  C   UNL     1       0.863   9.664  19.015  0.00  0.00    +0.000 A 
ATOM      6  C   UNL     1       1.708   8.863  18.257  0.00  0.00    +0.000 A 
ENDROOT
BRANCH   1   8
ATOM      7  O   UNL     1       4.195   7.378  17.479  0.00  0.00    +0.000 OA
ATOM      8  C   UNL     1       3.228   6.885  18.051  0.00  0.00    +0.000 C 
ATOM      9  N   UNL     1       2.900   5.547  17.998  0.00  0.00    +0.000 N 
ATOM     10  H   UNL     1       2.027   5.222  18.394  0.00  0.00    +0.000 HD
BRANCH   9  11
ATOM     11  C   UNL     1       3.706   4.587  17.276  0.00  0.00    +0.000 C 
BRANCH  11  12
ATOM     12  C   UNL     1       2.939   3.295  17.014  0.00  0.00    +0.000 C 
BRANCH  12  13
ATOM     13  C   UNL     1       3.344   2.197  17.996  0.00  0.00    +0.000 C 
BRANCH  13  14
ATOM     14  N   UNL     1       2.696   2.349  19.290  0.00  0.00    +0.000 N 
ATOM     15  C   UNL     1       3.410   2.808  20.455  0.00  0.00    +0.000 C 
ATOM     16  C   UNL     1       2.376   2.688  21.558  0.00  0.00    +0.000 C 
ATOM     17  C   UNL     1       1.062   2.987  20.846  0.00  0.00    +0.000 C 
ATOM     18  C   UNL     1       1.322   2.503  19.438  0.00  0.00    +0.000 C 
ATOM     19  O   UNL     1       0.473   2.358  18.574  0.00  0.00    +0.000 OA
ENDBRANCH  13  14
ENDBRANCH  12  13
ENDBRANCH  11  12
ENDBRANCH   9  11
ENDBRANCH   1   8
BRANCH   5  20
ATOM     20  N   UNL     1       0.264  10.809  18.439  0.00  0.00    +0.000 N 
ATOM     21  H   UNL     1      -0.128  10.774  17.500  0.00  0.00    +0.000 HD
BRANCH  20  22
ATOM     22  S   UNL     1       0.518  12.329  19.101  0.00  0.00    +0.000 S 
ATOM     23  O   UNL     1       1.817  12.293  19.738  0.00  0.00    +0.000 OA
ATOM     24  O   UNL     1       0.183  13.330  18.113  0.00  0.00    +0.000 OA
BRANCH  22  25
ATOM     25  C   UNL     1      -0.689  12.414  20.411  0.00  0.00    +0.000 A 
ATOM     26  C   UNL     1      -0.239  12.439  21.737  0.00  0.00    +0.000 A 
ATOM     27  C   UNL     1      -1.165  12.483  22.780  0.00  0.00    +0.000 A 
ATOM     28  C   UNL     1      -2.529  12.540  22.493  0.00  0.00    +0.000 A 
ATOM     29 BR   UNL     1      -3.778  12.605  23.909  0.00  0.00    +0.000 Br
ATOM     30  C   UNL     1      -2.978  12.547  21.170  0.00  0.00    +0.000 A 
ATOM     31  C   UNL     1      -2.056  12.477  20.120  0.00  0.00    +0.000 A 
ENDBRANCH  22  25
ENDBRANCH  20  22
ENDBRANCH   5  20
TORSDOF 8
ENDMDL
MODEL 4
REMARK VINA RESULT:      -7.7      2.086      2.622
REMARK  Name = 
REMARK  8 active torsions:
REMARK  status: ('A' for Active; 'I' for Inactive)
REMARK    1  A    between atoms: C_2  and  C_13
REMARK    2  A    between atoms: N_3  and  C_4
REMARK    3  A    between atoms: C_4  and  C_5
REMARK    4  A    between atoms: C_5  and  C_6
REMARK    5  A    between atoms: C_6  and  N_7
REMARK    6  A    between atoms: C_17  and  N_18
REMARK    7  A    between atoms: N_18  and  S_19
REMARK    8  A    between atoms: S_19  and  C_22
REMARK                            x       y       z     vdW  Elec       q    Type
REMARK                         _______ _______ _______ _____ _____    ______ ____
ROOT
ATOM      1  C   UNL     1       2.803   7.009  18.789  0.00  0.00    +0.000 A 
ATOM      2  C   UNL     1       2.207   6.740  20.026  0.00  0.00    +0.000 A 
ATOM      3  C   UNL     1       1.337   7.672  20.593  0.00  0.00    +0.000 A 
ATOM      4  C   UNL     1       1.064   8.868  19.927  0.00  0.00    +0.000 A 
ATOM      5  C   UNL     1       1.661   9.134  18.694  0.00  0.00    +0.000 A 
ATOM      6  C   UNL     1       2.515   8.204  18.114  0.00  0.00    +0.000 A 
ENDROOT
BRANCH   1   8
ATOM      7  O   UNL     1       4.940   6.142  18.315  0.00  0.00    +0.000 OA
ATOM      8  C   UNL     1       3.726   6.015  18.190  0.00  0.00    +0.000 C 
ATOM      9  N   UNL     1       3.126   4.989  17.491  0.00  0.00    +0.000 N 
ATOM     10  H   UNL     1       2.127   5.004  17.325  0.00  0.00    +0.000 HD
BRANCH   9  11
ATOM     11  C   UNL     1       3.893   3.938  16.860  0.00  0.00    +0.000 C 
BRANCH  11  12
ATOM     12  C   UNL     1       4.456   2.961  17.888  0.00  0.00    +0.000 C 
BRANCH  12  13
ATOM     13  C   UNL     1       3.422   1.907  18.281  0.00  0.00    +0.000 C 
BRANCH  13  14
ATOM     14  N   UNL     1       2.636   2.311  19.437  0.00  0.00    +0.000 N 
ATOM     15  C   UNL     1       3.247   2.838  20.631  0.00  0.00    +0.000 C 
ATOM     16  C   UNL     1       2.071   2.995  21.576  0.00  0.00    +0.000 C 
ATOM     17  C   UNL     1       0.915   3.346  20.648  0.00  0.00    +0.000 C 
ATOM     18  C   UNL     1       1.288   2.645  19.362  0.00  0.00    +0.000 C 
ATOM     19  O   UNL     1       0.549   2.485  18.405  0.00  0.00    +0.000 OA
ENDBRANCH  13  14
ENDBRANCH  12  13
ENDBRANCH  11  12
ENDBRANCH   9  11
ENDBRANCH   1   8
BRANCH   5  20
ATOM     20  N   UNL     1       1.377  10.349  18.029  0.00  0.00    +0.000 N 
ATOM     21  H   UNL     1       1.742  10.529  17.095  0.00  0.00    +0.000 HD
BRANCH  20  22
ATOM     22  S   UNL     1       0.776  11.666  18.878  0.00  0.00    +0.000 S 
ATOM     23  O   UNL     1       1.048  11.417  20.277  0.00  0.00    +0.000 OA
ATOM     24  O   UNL     1       1.210  12.880  18.222  0.00  0.00    +0.000 OA
BRANCH  22  25
ATOM     25  C   UNL     1      -0.988  11.520  18.668  0.00  0.00    +0.000 A 
ATOM     26  C   UNL     1      -1.825  12.327  19.448  0.00  0.00    +0.000 A 
ATOM     27  C   UNL     1      -3.210  12.216  19.318  0.00  0.00    +0.000 A 
ATOM     28  C   UNL     1      -3.749  11.329  18.386  0.00  0.00    +0.000 A 
ATOM     29 BR   UNL     1      -5.625  11.185  18.210  0.00  0.00    +0.000 Br
ATOM     30  C   UNL     1      -2.915  10.545  17.585  0.00  0.00    +0.000 A 
ATOM     31  C   UNL     1      -1.526  10.634  17.729  0.00  0.00    +0.000 A 
ENDBRANCH  22  25
ENDBRANCH  20  22
ENDBRANCH   5  20
TORSDOF 8
ENDMDL
MODEL 5
REMARK VINA RESULT:      -7.5      1.902      3.352
REMARK  Name = 
REMARK  8 active torsions:
REMARK  status: ('A' for Active; 'I' for Inactive)
REMARK    1  A    between atoms: C_2  and  C_13
REMARK    2  A    between atoms: N_3  and  C_4
REMARK    3  A    between atoms: C_4  and  C_5
REMARK    4  A    between atoms: C_5  and  C_6
REMARK    5  A    between atoms: C_6  and  N_7
REMARK    6  A    between atoms: C_17  and  N_18
REMARK    7  A    between atoms: N_18  and  S_19
REMARK    8  A    between atoms: S_19  and  C_22
REMARK                            x       y       z     vdW  Elec       q    Type
REMARK                         _______ _______ _______ _____ _____    ______ ____
ROOT
ATOM      1  C   UNL     1       1.868   7.713  19.492  0.00  0.00    +0.000 A 
ATOM      2  C   UNL     1       2.447   8.215  18.321  0.00  0.00    +0.000 A 
ATOM      3  C   UNL     1       2.069   9.470  17.844  0.00  0.00    +0.000 A 
ATOM      4  C   UNL     1       1.115  10.221  18.533  0.00  0.00    +0.000 A 
ATOM      5  C   UNL     1       0.538   9.718  19.700  0.00  0.00    +0.000 A 
ATOM      6  C   UNL     1       0.921   8.477  20.192  0.00  0.00    +0.000 A 
ENDROOT
BRANCH   1   8
ATOM      7  O   UNL     1       1.736   5.902  20.990  0.00  0.00    +0.000 OA
ATOM      8  C   UNL     1       2.273   6.379  19.996  0.00  0.00    +0.000 C 
ATOM      9  N   UNL     1       3.281   5.756  19.290  0.00  0.00    +0.000 N 
ATOM     10  H   UNL     1       3.763   6.250  18.550  0.00  0.00    +0.000 HD
BRANCH   9  11
ATOM     11  C   UNL     1       3.775   4.446  19.653  0.00  0.00    +0.000 C 
BRANCH  11  12
ATOM     12  C   UNL     1       5.178   4.205  19.105  0.00  0.00    +0.000 C 
BRANCH  12  13
ATOM     13  C   UNL     1       5.635   5.358  18.212  0.00  0.00    +0.000 C 
BRANCH  13  14
ATOM     14  N   UNL     1       6.000   4.909  16.878  0.00  0.00    +0.000 N 
ATOM     15  C   UNL     1       5.155   4.033  16.106  0.00  0.00    +0.000 C 
ATOM     16  C   UNL     1       5.990   3.753  14.871  0.00  0.00    +0.000 C 
ATOM     17  C   UNL     1       6.761   5.050  14.664  0.00  0.00    +0.000 C 
ATOM     18  C   UNL     1       6.908   5.586  16.070  0.00  0.00    +0.000 C 
ATOM     19  O   UNL     1       7.638   6.505  16.403  0.00  0.00    +0.000 OA
ENDBRANCH  13  14
ENDBRANCH  12  13
ENDBRANCH  11  12
ENDBRANCH   9  11
ENDBRANCH   1   8
BRANCH   5  20
ATOM     20  N   UNL     1      -0.427  10.488  20.389  0.00  0.00    +0.000 N 
ATOM     21  H   UNL     1      -1.335  10.681  19.968  0.00  0.00    +0.000 HD
BRANCH  20  22
ATOM     22  S   UNL     1       0.010  11.418  21.714  0.00  0.00    +0.000 S 
ATOM     23  O   UNL     1       0.297  10.495  22.792  0.00  0.00    +0.000 OA
ATOM     24  O   UNL     1       0.969  12.414  21.289  0.00  0.00    +0.000 OA
BRANCH  22  25
ATOM     25  C   UNL     1      -1.504  12.252  22.148  0.00  0.00    +0.000 A 
ATOM     26  C   UNL     1      -2.207  11.822  23.280  0.00  0.00    +0.000 A 
ATOM     27  C   UNL     1      -3.406  12.445  23.629  0.00  0.00    +0.000 A 
ATOM     28  C   UNL     1      -3.876  13.516  22.869  0.00  0.00    +0.000 A 
ATOM     29 BR   UNL     1      -5.497  14.359  23.347  0.00  0.00    +0.000 Br
ATOM     30  C   UNL     1      -3.160  13.967  21.757  0.00  0.00    +0.000 A 
ATOM     31  C   UNL     1      -1.970  13.330  21.388  0.00  0.00    +0.000 A 
ENDBRANCH  22  25
ENDBRANCH  20  22
ENDBRANCH   5  20
TORSDOF 8
ENDMDL
MODEL 6
REMARK VINA RESULT:      -7.5      1.809      2.521
REMARK  Name = 
REMARK  8 active torsions:
REMARK  status: ('A' for Active; 'I' for Inactive)
REMARK    1  A    between atoms: C_2  and  C_13
REMARK    2  A    between atoms: N_3  and  C_4
REMARK    3  A    between atoms: C_4  and  C_5
REMARK    4  A    between atoms: C_5  and  C_6
REMARK    5  A    between atoms: C_6  and  N_7
REMARK    6  A    between atoms: C_17  and  N_18
REMARK    7  A    between atoms: N_18  and  S_19
REMARK    8  A    between atoms: S_19  and  C_22
REMARK                            x       y       z     vdW  Elec       q    Type
REMARK                         _______ _______ _______ _____ _____    ______ ____
ROOT
ATOM      1  C   UNL     1       1.346   8.845  19.411  0.00  0.00    +0.000 A 
ATOM      2  C   UNL     1       1.406   8.139  20.618  0.00  0.00    +0.000 A 
ATOM      3  C   UNL     1       0.574   8.504  21.677  0.00  0.00    +0.000 A 
ATOM      4  C   UNL     1      -0.314   9.572  21.531  0.00  0.00    +0.000 A 
ATOM      5  C   UNL     1      -0.371  10.274  20.327  0.00  0.00    +0.000 A 
ATOM      6  C   UNL     1       0.441   9.906  19.262  0.00  0.00    +0.000 A 
ENDROOT
BRANCH   1   8
ATOM      7  O   UNL     1       2.277   9.132  17.268  0.00  0.00    +0.000 OA
ATOM      8  C   UNL     1       2.231   8.452  18.288  0.00  0.00    +0.000 C 
ATOM      9  N   UNL     1       2.952   7.292  18.475  0.00  0.00    +0.000 N 
ATOM     10  H   UNL     1       2.783   6.715  19.289  0.00  0.00    +0.000 HD
BRANCH   9  11
ATOM     11  C   UNL     1       3.867   6.787  17.475  0.00  0.00    +0.000 C 
BRANCH  11  12
ATOM     12  C   UNL     1       4.653   5.586  17.989  0.00  0.00    +0.000 C 
BRANCH  12  13
ATOM     13  C   UNL     1       3.964   4.271  17.626  0.00  0.00    +0.000 C 
BRANCH  13  14
ATOM     14  N   UNL     1       3.003   3.856  18.637  0.00  0.00    +0.000 N 
ATOM     15  C   UNL     1       3.342   3.795  20.037  0.00  0.00    +0.000 C 
ATOM     16  C   UNL     1       2.093   3.208  20.665  0.00  0.00    +0.000 C 
ATOM     17  C   UNL     1       0.968   3.756  19.798  0.00  0.00    +0.000 C 
ATOM     18  C   UNL     1       1.627   3.912  18.446  0.00  0.00    +0.000 C 
ATOM     19  O   UNL     1       1.043   4.130  17.397  0.00  0.00    +0.000 OA
ENDBRANCH  13  14
ENDBRANCH  12  13
ENDBRANCH  11  12
ENDBRANCH   9  11
ENDBRANCH   1   8
BRANCH   5  20
ATOM     20  N   UNL     1      -1.274  11.354  20.192  0.00  0.00    +0.000 N 
ATOM     21  H   UNL     1      -1.854  11.446  19.359  0.00  0.00    +0.000 HD
BRANCH  20  22
ATOM     22  S   UNL     1      -1.149  12.700  21.184  0.00  0.00    +0.000 S 
ATOM     23  O   UNL     1      -0.177  12.375  22.206  0.00  0.00    +0.000 OA
ATOM     24  O   UNL     1      -1.018  13.879  20.357  0.00  0.00    +0.000 OA
BRANCH  22  25
ATOM     25  C   UNL     1      -2.736  12.763  21.994  0.00  0.00    +0.000 A 
ATOM     26  C   UNL     1      -3.883  12.939  21.210  0.00  0.00    +0.000 A 
ATOM     27  C   UNL     1      -5.135  13.012  21.822  0.00  0.00    +0.000 A 
ATOM     28  C   UNL     1      -5.238  12.873  23.206  0.00  0.00    +0.000 A 
ATOM     29 BR   UNL     1      -6.935  12.968  24.031  0.00  0.00    +0.000 Br
ATOM     30  C   UNL     1      -4.098  12.666  23.987  0.00  0.00    +0.000 A 
ATOM     31  C   UNL     1      -2.837  12.616  23.381  0.00  0.00    +0.000 A 
ENDBRANCH  22  25
ENDBRANCH  20  22
ENDBRANCH   5  20
TORSDOF 8
ENDMDL
MODEL 7
REMARK VINA RESULT:      -7.5      3.170      3.866
REMARK  Name = 
REMARK  8 active torsions:
REMARK  status: ('A' for Active; 'I' for Inactive)
REMARK    1  A    between atoms: C_2  and  C_13
REMARK    2  A    between atoms: N_3  and  C_4
REMARK    3  A    between atoms: C_4  and  C_5
REMARK    4  A    between atoms: C_5  and  C_6
REMARK    5  A    between atoms: C_6  and  N_7
REMARK    6  A    between atoms: C_17  and  N_18
REMARK    7  A    between atoms: N_18  and  S_19
REMARK    8  A    between atoms: S_19  and  C_22
REMARK                            x       y       z     vdW  Elec       q    Type
REMARK                         _______ _______ _______ _____ _____    ______ ____
ROOT
ATOM      1  C   UNL     1       1.192   9.206  18.757  0.00  0.00    +0.000 A 
ATOM      2  C   UNL     1       1.043   9.257  20.147  0.00  0.00    +0.000 A 
ATOM      3  C   UNL     1       0.035  10.042  20.708  0.00  0.00    +0.000 A 
ATOM      4  C   UNL     1      -0.821  10.774  19.882  0.00  0.00    +0.000 A 
ATOM      5  C   UNL     1      -0.670  10.721  18.496  0.00  0.00    +0.000 A 
ATOM      6  C   UNL     1       0.320   9.929  17.929  0.00  0.00    +0.000 A 
ENDROOT
BRANCH   1   8
ATOM      7  O   UNL     1       2.981   8.817  17.278  0.00  0.00    +0.000 OA
ATOM      8  C   UNL     1       2.264   8.369  18.166  0.00  0.00    +0.000 C 
ATOM      9  N   UNL     1       2.366   7.089  18.667  0.00  0.00    +0.000 N 
ATOM     10  H   UNL     1       1.671   6.741  19.316  0.00  0.00    +0.000 HD
BRANCH   9  11
ATOM     11  C   UNL     1       3.370   6.159  18.200  0.00  0.00    +0.000 C 
BRANCH  11  12
ATOM     12  C   UNL     1       4.263   5.678  19.338  0.00  0.00    +0.000 C 
BRANCH  12  13
ATOM     13  C   UNL     1       3.567   4.611  20.182  0.00  0.00    +0.000 C 
BRANCH  13  14
ATOM     14  N   UNL     1       2.763   3.708  19.373  0.00  0.00    +0.000 N 
ATOM     15  C   UNL     1       3.340   2.590  18.669  0.00  0.00    +0.000 C 
ATOM     16  C   UNL     1       2.165   2.034  17.889  0.00  0.00    +0.000 C 
ATOM     17  C   UNL     1       0.975   2.303  18.801  0.00  0.00    +0.000 C 
ATOM     18  C   UNL     1       1.391   3.552  19.543  0.00  0.00    +0.000 C 
ATOM     19  O   UNL     1       0.658   4.242  20.232  0.00  0.00    +0.000 OA
ENDBRANCH  13  14
ENDBRANCH  12  13
ENDBRANCH  11  12
ENDBRANCH   9  11
ENDBRANCH   1   8
BRANCH   5  20
ATOM     20  N   UNL     1      -1.542  11.467  17.670  0.00  0.00    +0.000 N 
ATOM     21  H   UNL     1      -1.489  12.484  17.642  0.00  0.00    +0.000 HD
BRANCH  20  22
ATOM     22  S   UNL     1      -2.919  10.759  17.024  0.00  0.00    +0.000 S 
ATOM     23  O   UNL     1      -2.941  11.099  15.618  0.00  0.00    +0.000 OA
ATOM     24  O   UNL     1      -2.994   9.387  17.477  0.00  0.00    +0.000 OA
BRANCH  22  25
ATOM     25  C   UNL     1      -4.247  11.670  17.789  0.00  0.00    +0.000 A 
ATOM     26  C   UNL     1      -4.123  12.034  19.135  0.00  0.00    +0.000 A 
ATOM     27  C   UNL     1      -5.158  12.729  19.763  0.00  0.00    +0.000 A 
ATOM     28  C   UNL     1      -6.292  13.087  19.034  0.00  0.00    +0.000 A 
ATOM     29 BR   UNL     1      -7.689  14.032  19.886  0.00  0.00    +0.000 Br
ATOM     30  C   UNL     1      -6.404  12.752  17.682  0.00  0.00    +0.000 A 
ATOM     31  C   UNL     1      -5.381  12.033  17.055  0.00  0.00    +0.000 A 
ENDBRANCH  22  25
ENDBRANCH  20  22
ENDBRANCH   5  20
TORSDOF 8
ENDMDL
MODEL 8
REMARK VINA RESULT:      -7.4      6.764     10.516
REMARK  Name = 
REMARK  8 active torsions:
REMARK  status: ('A' for Active; 'I' for Inactive)
REMARK    1  A    between atoms: C_2  and  C_13
REMARK    2  A    between atoms: N_3  and  C_4
REMARK    3  A    between atoms: C_4  and  C_5
REMARK    4  A    between atoms: C_5  and  C_6
REMARK    5  A    between atoms: C_6  and  N_7
REMARK    6  A    between atoms: C_17  and  N_18
REMARK    7  A    between atoms: N_18  and  S_19
REMARK    8  A    between atoms: S_19  and  C_22
REMARK                            x       y       z     vdW  Elec       q    Type
REMARK                         _______ _______ _______ _____ _____    ______ ____
ROOT
ATOM      1  C   UNL     1       8.065   7.662  18.223  0.00  0.00    +0.000 A 
ATOM      2  C   UNL     1       8.253   6.857  19.352  0.00  0.00    +0.000 A 
ATOM      3  C   UNL     1       8.023   5.484  19.270  0.00  0.00    +0.000 A 
ATOM      4  C   UNL     1       7.606   4.916  18.065  0.00  0.00    +0.000 A 
ATOM      5  C   UNL     1       7.418   5.721  16.941  0.00  0.00    +0.000 A 
ATOM      6  C   UNL     1       7.662   7.087  17.009  0.00  0.00    +0.000 A 
ENDROOT
BRANCH   1   8
ATOM      7  O   UNL     1       7.737   9.896  17.556  0.00  0.00    +0.000 OA
ATOM      8  C   UNL     1       8.312   9.121  18.314  0.00  0.00    +0.000 C 
ATOM      9  N   UNL     1       9.222   9.513  19.272  0.00  0.00    +0.000 N 
ATOM     10  H   UNL     1       9.749   8.818  19.787  0.00  0.00    +0.000 HD
BRANCH   9  11
ATOM     11  C   UNL     1       9.558  10.903  19.489  0.00  0.00    +0.000 C 
BRANCH  11  12
ATOM     12  C   UNL     1       9.590  11.247  20.975  0.00  0.00    +0.000 C 
BRANCH  12  13
ATOM     13  C   UNL     1       9.514  12.757  21.200  0.00  0.00    +0.000 C 
BRANCH  13  14
ATOM     14  N   UNL     1       9.545  13.501  19.950  0.00  0.00    +0.000 N 
ATOM     15  C   UNL     1       8.366  14.119  19.397  0.00  0.00    +0.000 C 
ATOM     16  C   UNL     1       8.854  14.657  18.066  0.00  0.00    +0.000 C 
ATOM     17  C   UNL     1      10.303  15.035  18.346  0.00  0.00    +0.000 C 
ATOM     18  C   UNL     1      10.707  14.055  19.423  0.00  0.00    +0.000 C 
ATOM     19  O   UNL     1      11.849  13.858  19.807  0.00  0.00    +0.000 OA
ENDBRANCH  13  14
ENDBRANCH  12  13
ENDBRANCH  11  12
ENDBRANCH   9  11
ENDBRANCH   1   8
BRANCH   5  20
ATOM     20  N   UNL     1       6.995   5.134  15.726  0.00  0.00    +0.000 N 
ATOM     21  H   UNL     1       7.674   4.823  15.034  0.00  0.00    +0.000 HD
BRANCH  20  22
ATOM     22  S   UNL     1       5.403   5.280  15.217  0.00  0.00    +0.000 S 
ATOM     23  O   UNL     1       5.198   6.675  14.890  0.00  0.00    +0.000 OA
ATOM     24  O   UNL     1       5.118   4.226  14.268  0.00  0.00    +0.000 OA
BRANCH  22  25
ATOM     25  C   UNL     1       4.466   4.962  16.700  0.00  0.00    +0.000 A 
ATOM     26  C   UNL     1       4.234   3.632  17.074  0.00  0.00    +0.000 A 
ATOM     27  C   UNL     1       3.485   3.357  18.219  0.00  0.00    +0.000 A 
ATOM     28  C   UNL     1       3.006   4.407  19.002  0.00  0.00    +0.000 A 
ATOM     29 BR   UNL     1       1.996   4.030  20.553  0.00  0.00    +0.000 Br
ATOM     30  C   UNL     1       3.263   5.734  18.647  0.00  0.00    +0.000 A 
ATOM     31  C   UNL     1       3.992   6.016  17.486  0.00  0.00    +0.000 A 
ENDBRANCH  22  25
ENDBRANCH  20  22
ENDBRANCH   5  20
TORSDOF 8
ENDMDL
MODEL 9
REMARK VINA RESULT:      -7.4      4.241      9.675
REMARK  Name = 
REMARK  8 active torsions:
REMARK  status: ('A' for Active; 'I' for Inactive)
REMARK    1  A    between atoms: C_2  and  C_13
REMARK    2  A    between atoms: N_3  and  C_4
REMARK    3  A    between atoms: C_4  and  C_5
REMARK    4  A    between atoms: C_5  and  C_6
REMARK    5  A    between atoms: C_6  and  N_7
REMARK    6  A    between atoms: C_17  and  N_18
REMARK    7  A    between atoms: N_18  and  S_19
REMARK    8  A    between atoms: S_19  and  C_22
REMARK                            x       y       z     vdW  Elec       q    Type
REMARK                         _______ _______ _______ _____ _____    ______ ____
ROOT
ATOM      1  C   UNL     1       1.908   7.981  19.204  0.00  0.00    +0.000 A 
ATOM      2  C   UNL     1       1.387   7.788  20.489  0.00  0.00    +0.000 A 
ATOM      3  C   UNL     1       1.524   6.548  21.113  0.00  0.00    +0.000 A 
ATOM      4  C   UNL     1       2.178   5.504  20.456  0.00  0.00    +0.000 A 
ATOM      5  C   UNL     1       2.695   5.699  19.175  0.00  0.00    +0.000 A 
ATOM      6  C   UNL     1       2.579   6.936  18.553  0.00  0.00    +0.000 A 
ENDROOT
BRANCH   1   8
ATOM      7  O   UNL     1       2.200   9.482  17.415  0.00  0.00    +0.000 OA
ATOM      8  C   UNL     1       1.761   9.301  18.545  0.00  0.00    +0.000 C 
ATOM      9  N   UNL     1       1.130  10.274  19.292  0.00  0.00    +0.000 N 
ATOM     10  H   UNL     1       0.894  10.097  20.261  0.00  0.00    +0.000 HD
BRANCH   9  11
ATOM     11  C   UNL     1       0.902  11.607  18.781  0.00  0.00    +0.000 C 
BRANCH  11  12
ATOM     12  C   UNL     1      -0.159  12.345  19.591  0.00  0.00    +0.000 C 
BRANCH  12  13
ATOM     13  C   UNL     1      -1.036  11.373  20.378  0.00  0.00    +0.000 C 
BRANCH  13  14
ATOM     14  N   UNL     1      -1.782  12.037  21.436  0.00  0.00    +0.000 N 
ATOM     15  C   UNL     1      -3.012  12.742  21.180  0.00  0.00    +0.000 C 
ATOM     16  C   UNL     1      -3.343  13.354  22.527  0.00  0.00    +0.000 C 
ATOM     17  C   UNL     1      -2.814  12.328  23.522  0.00  0.00    +0.000 C 
ATOM     18  C   UNL     1      -1.653  11.705  22.781  0.00  0.00    +0.000 C 
ATOM     19  O   UNL     1      -0.810  10.975  23.276  0.00  0.00    +0.000 OA
ENDBRANCH  13  14
ENDBRANCH  12  13
ENDBRANCH  11  12
ENDBRANCH   9  11
ENDBRANCH   1   8
BRANCH   5  20
ATOM     20  N   UNL     1       3.355   4.634  18.520  0.00  0.00    +0.000 N 
ATOM     21  H   UNL     1       2.823   3.894  18.064  0.00  0.00    +0.000 HD
BRANCH  20  22
ATOM     22  S   UNL     1       4.984   4.341  18.794  0.00  0.00    +0.000 S 
ATOM     23  O   UNL     1       5.481   5.455  19.573  0.00  0.00    +0.000 OA
ATOM     24  O   UNL     1       5.144   2.973  19.236  0.00  0.00    +0.000 OA
BRANCH  22  25
ATOM     25  C   UNL     1       5.708   4.490  17.172  0.00  0.00    +0.000 A 
ATOM     26  C   UNL     1       4.895   4.275  16.052  0.00  0.00    +0.000 A 
ATOM     27  C   UNL     1       5.443   4.365  14.772  0.00  0.00    +0.000 A 
ATOM     28  C   UNL     1       6.787   4.704  14.617  0.00  0.00    +0.000 A 
ATOM     29 BR   UNL     1       7.524   4.829  12.882  0.00  0.00    +0.000 Br
ATOM     30  C   UNL     1       7.592   4.950  15.732  0.00  0.00    +0.000 A 
ATOM     31  C   UNL     1       7.054   4.837  17.019  0.00  0.00    +0.000 A 
ENDBRANCH  22  25
ENDBRANCH  20  22
ENDBRANCH   5  20
TORSDOF 8
ENDMDL
