MODEL 1
REMARK VINA RESULT:      -7.0      0.000      0.000
REMARK  Name = 
REMARK  5 active torsions:
REMARK  status: ('A' for Active; 'I' for Inactive)
REMARK    1  A    between atoms: C_1  and  C_2
REMARK    2  A    between atoms: C_5  and  N_6
REMARK    3  A    between atoms: C_7  and  C_9
REMARK    4  A    between atoms: C_11  and  C_12
REMARK    5  A    between atoms: C_16  and  C_17
REMARK                            x       y       z     vdW  Elec       q    Type
REMARK                         _______ _______ _______ _____ _____    ______ ____
ROOT
ATOM      1  N   UNL     1       4.186   3.677  17.503  0.00  0.00    +0.000 N 
ATOM      2  C   UNL     1       2.814   3.739  17.677  0.00  0.00    +0.000 C 
ATOM      3  O   UNL     1       2.131   4.750  17.760  0.00  0.00    +0.000 OA
ATOM      4  H   UNL     1       4.598   2.764  17.336  0.00  0.00    +0.000 HD
ENDROOT
BRANCH   1   9
ATOM      5  C   UNL     1       7.895   8.088  17.554  0.00  0.00    +0.000 C 
ATOM      6  C   UNL     1       6.921   6.942  17.572  0.00  0.00    +0.000 A 
ATOM      7  C   UNL     1       5.861   6.931  16.659  0.00  0.00    +0.000 A 
ATOM      8  C   UNL     1       4.951   5.869  16.623  0.00  0.00    +0.000 A 
ATOM      9  C   UNL     1       5.073   4.785  17.489  0.00  0.00    +0.000 A 
ATOM     10  C   UNL     1       6.125   4.802  18.422  0.00  0.00    +0.000 A 
ATOM     11  C   UNL     1       7.046   5.871  18.478  0.00  0.00    +0.000 A 
ATOM     12  C   UNL     1       8.149   5.853  19.500  0.00  0.00    +0.000 C 
ENDBRANCH   1   9
BRANCH   2  13
ATOM     13  C   UNL     1       2.125   2.435  17.882  0.00  0.00    +0.000 C 
ATOM     14  O   UNL     1       2.888   1.520  18.709  0.00  0.00    +0.000 OA
ATOM     15  C   UNL     1       1.588   1.895  19.174  0.00  0.00    +0.000 C 
BRANCH  15  16
ATOM     16  C   UNL     1       1.555   2.708  20.397  0.00  0.00    +0.000 C 
ATOM     17  N   UNL     1       0.592   3.671  20.437  0.00  0.00    +0.000 N 
ATOM     18  O   UNL     1       2.371   2.521  21.287  0.00  0.00    +0.000 OA
ATOM     19  H   UNL     1       0.492   4.227  21.273  0.00  0.00    +0.000 HD
ATOM     20  H   UNL     1      -0.153   3.684  19.751  0.00  0.00    +0.000 HD
ENDBRANCH  15  16
ENDBRANCH   2  13
TORSDOF 3
ENDMDL
MODEL 2
REMARK VINA RESULT:      -6.8      2.961      5.999
REMARK  Name = 
REMARK  5 active torsions:
REMARK  status: ('A' for Active; 'I' for Inactive)
REMARK    1  A    between atoms: C_1  and  C_2
REMARK    2  A    between atoms: C_5  and  N_6
REMARK    3  A    between atoms: C_7  and  C_9
REMARK    4  A    between atoms: C_11  and  C_12
REMARK    5  A    between atoms: C_16  and  C_17
REMARK                            x       y       z     vdW  Elec       q    Type
REMARK                         _______ _______ _______ _____ _____    ______ ____
ROOT
ATOM      1  N   UNL     1       5.706   4.036  18.435  0.00  0.00    +0.000 N 
ATOM      2  C   UNL     1       6.713   4.938  18.736  0.00  0.00    +0.000 C 
ATOM      3  O   UNL     1       6.894   5.504  19.804  0.00  0.00    +0.000 OA
ATOM      4  H   UNL     1       5.752   3.560  17.540  0.00  0.00    +0.000 HD
ENDROOT
BRANCH   1   9
ATOM      5  C   UNL     1       1.257   2.717  21.854  0.00  0.00    +0.000 C 
ATOM      6  C   UNL     1       2.424   3.087  20.981  0.00  0.00    +0.000 A 
ATOM      7  C   UNL     1       3.435   2.147  20.754  0.00  0.00    +0.000 A 
ATOM      8  C   UNL     1       4.522   2.440  19.925  0.00  0.00    +0.000 A 
ATOM      9  C   UNL     1       4.631   3.676  19.290  0.00  0.00    +0.000 A 
ATOM     10  C   UNL     1       3.629   4.632  19.531  0.00  0.00    +0.000 A 
ATOM     11  C   UNL     1       2.531   4.354  20.374  0.00  0.00    +0.000 A 
ATOM     12  C   UNL     1       1.486   5.411  20.612  0.00  0.00    +0.000 C 
ENDBRANCH   1   9
BRANCH   2  13
ATOM     13  C   UNL     1       7.598   5.324  17.603  0.00  0.00    +0.000 C 
ATOM     14  O   UNL     1       7.727   4.277  16.607  0.00  0.00    +0.000 OA
ATOM     15  C   UNL     1       7.192   5.530  16.174  0.00  0.00    +0.000 C 
BRANCH  15  16
ATOM     16  C   UNL     1       5.781   5.517  15.761  0.00  0.00    +0.000 C 
ATOM     17  N   UNL     1       5.186   6.738  15.665  0.00  0.00    +0.000 N 
ATOM     18  O   UNL     1       5.208   4.458  15.554  0.00  0.00    +0.000 OA
ATOM     19  H   UNL     1       4.232   6.792  15.339  0.00  0.00    +0.000 HD
ATOM     20  H   UNL     1       5.740   7.586  15.693  0.00  0.00    +0.000 HD
ENDBRANCH  15  16
ENDBRANCH   2  13
TORSDOF 3
ENDMDL
MODEL 3
REMARK VINA RESULT:      -6.7      1.325      1.334
REMARK  Name = 
REMARK  5 active torsions:
REMARK  status: ('A' for Active; 'I' for Inactive)
REMARK    1  A    between atoms: C_1  and  C_2
REMARK    2  A    between atoms: C_5  and  N_6
REMARK    3  A    between atoms: C_7  and  C_9
REMARK    4  A    between atoms: C_11  and  C_12
REMARK    5  A    between atoms: C_16  and  C_17
REMARK                            x       y       z     vdW  Elec       q    Type
REMARK                         _______ _______ _______ _____ _____    ______ ____
ROOT
ATOM      1  N   UNL     1       3.171   4.645  18.466  0.00  0.00    +0.000 N 
ATOM      2  C   UNL     1       3.002   3.301  18.178  0.00  0.00    +0.000 C 
ATOM      3  O   UNL     1       3.837   2.544  17.703  0.00  0.00    +0.000 OA
ATOM      4  H   UNL     1       2.424   5.117  18.965  0.00  0.00    +0.000 HD
ENDROOT
BRANCH   1   9
ATOM      5  C   UNL     1       7.938   7.688  17.355  0.00  0.00    +0.000 C 
ATOM      6  C   UNL     1       6.696   6.904  17.676  0.00  0.00    +0.000 A 
ATOM      7  C   UNL     1       5.529   7.141  16.943  0.00  0.00    +0.000 A 
ATOM      8  C   UNL     1       4.360   6.413  17.189  0.00  0.00    +0.000 A 
ATOM      9  C   UNL     1       4.322   5.421  18.167  0.00  0.00    +0.000 A 
ATOM     10  C   UNL     1       5.487   5.193  18.921  0.00  0.00    +0.000 A 
ATOM     11  C   UNL     1       6.671   5.927  18.691  0.00  0.00    +0.000 A 
ATOM     12  C   UNL     1       7.891   5.657  19.528  0.00  0.00    +0.000 C 
ENDBRANCH   1   9
BRANCH   2  13
ATOM     13  C   UNL     1       1.629   2.761  18.379  0.00  0.00    +0.000 C 
ATOM     14  O   UNL     1       1.602   1.607  19.258  0.00  0.00    +0.000 OA
ATOM     15  C   UNL     1       0.845   2.754  19.657  0.00  0.00    +0.000 C 
BRANCH  15  16
ATOM     16  C   UNL     1       1.320   3.449  20.861  0.00  0.00    +0.000 C 
ATOM     17  N   UNL     1       1.690   2.645  21.896  0.00  0.00    +0.000 N 
ATOM     18  O   UNL     1       1.342   4.670  20.902  0.00  0.00    +0.000 OA
ATOM     19  H   UNL     1       2.070   3.067  22.731  0.00  0.00    +0.000 HD
ATOM     20  H   UNL     1       1.802   1.648  21.760  0.00  0.00    +0.000 HD
ENDBRANCH  15  16
ENDBRANCH   2  13
TORSDOF 3
ENDMDL
MODEL 4
REMARK VINA RESULT:      -6.6      4.188      5.113
REMARK  Name = 
REMARK  5 active torsions:
REMARK  status: ('A' for Active; 'I' for Inactive)
REMARK    1  A    between atoms: C_1  and  C_2
REMARK    2  A    between atoms: C_5  and  N_6
REMARK    3  A    between atoms: C_7  and  C_9
REMARK    4  A    between atoms: C_11  and  C_12
REMARK    5  A    between atoms: C_16  and  C_17
REMARK                            x       y       z     vdW  Elec       q    Type
REMARK                         _______ _______ _______ _____ _____    ______ ____
ROOT
ATOM      1  N   UNL     1       2.485   5.886  20.779  0.00  0.00    +0.000 N 
ATOM      2  C   UNL     1       1.803   4.682  20.723  0.00  0.00    +0.000 C 
ATOM      3  O   UNL     1       0.778   4.450  20.098  0.00  0.00    +0.000 OA
ATOM      4  H   UNL     1       3.385   5.896  21.248  0.00  0.00    +0.000 HD
ENDROOT
BRANCH   1   9
ATOM      5  C   UNL     1       0.705  10.904  18.571  0.00  0.00    +0.000 C 
ATOM      6  C   UNL     1       1.139   9.587  19.153  0.00  0.00    +0.000 A 
ATOM      7  C   UNL     1       1.937   8.730  18.388  0.00  0.00    +0.000 A 
ATOM      8  C   UNL     1       2.386   7.510  18.902  0.00  0.00    +0.000 A 
ATOM      9  C   UNL     1       2.060   7.110  20.197  0.00  0.00    +0.000 A 
ATOM     10  C   UNL     1       1.242   7.958  20.962  0.00  0.00    +0.000 A 
ATOM     11  C   UNL     1       0.772   9.188  20.453  0.00  0.00    +0.000 A 
ATOM     12  C   UNL     1      -0.112  10.060  21.304  0.00  0.00    +0.000 C 
ENDBRANCH   1   9
BRANCH   2  13
ATOM     13  C   UNL     1       2.328   3.597  21.597  0.00  0.00    +0.000 C 
ATOM     14  O   UNL     1       1.732   2.306  21.311  0.00  0.00    +0.000 OA
ATOM     15  C   UNL     1       3.151   2.419  21.171  0.00  0.00    +0.000 C 
BRANCH  15  16
ATOM     16  C   UNL     1       3.673   2.293  19.803  0.00  0.00    +0.000 C 
ATOM     17  N   UNL     1       4.895   2.854  19.587  0.00  0.00    +0.000 N 
ATOM     18  O   UNL     1       3.012   1.740  18.937  0.00  0.00    +0.000 OA
ATOM     19  H   UNL     1       5.324   2.756  18.678  0.00  0.00    +0.000 HD
ATOM     20  H   UNL     1       5.467   3.159  20.365  0.00  0.00    +0.000 HD
ENDBRANCH  15  16
ENDBRANCH   2  13
TORSDOF 3
ENDMDL
MODEL 5
REMARK VINA RESULT:      -6.6      2.641      3.552
REMARK  Name = 
REMARK  5 active torsions:
REMARK  status: ('A' for Active; 'I' for Inactive)
REMARK    1  A    between atoms: C_1  and  C_2
REMARK    2  A    between atoms: C_5  and  N_6
REMARK    3  A    between atoms: C_7  and  C_9
REMARK    4  A    between atoms: C_11  and  C_12
REMARK    5  A    between atoms: C_16  and  C_17
REMARK                            x       y       z     vdW  Elec       q    Type
REMARK                         _______ _______ _______ _____ _____    ______ ____
ROOT
ATOM      1  N   UNL     1       5.191   3.867  17.575  0.00  0.00    +0.000 N 
ATOM      2  C   UNL     1       4.168   4.588  18.168  0.00  0.00    +0.000 C 
ATOM      3  O   UNL     1       3.623   5.587  17.721  0.00  0.00    +0.000 OA
ATOM      4  H   UNL     1       5.463   2.991  18.011  0.00  0.00    +0.000 HD
ENDROOT
BRANCH   1   9
ATOM      5  C   UNL     1       7.810   5.219  12.622  0.00  0.00    +0.000 C 
ATOM      6  C   UNL     1       7.129   4.835  13.907  0.00  0.00    +0.000 A 
ATOM      7  C   UNL     1       7.635   5.316  15.119  0.00  0.00    +0.000 A 
ATOM      8  C   UNL     1       7.015   5.007  16.334  0.00  0.00    +0.000 A 
ATOM      9  C   UNL     1       5.869   4.216  16.378  0.00  0.00    +0.000 A 
ATOM     10  C   UNL     1       5.369   3.713  15.164  0.00  0.00    +0.000 A 
ATOM     11  C   UNL     1       5.989   4.007  13.930  0.00  0.00    +0.000 A 
ATOM     12  C   UNL     1       5.426   3.439  12.657  0.00  0.00    +0.000 C 
ENDBRANCH   1   9
BRANCH   2  13
ATOM     13  C   UNL     1       3.769   4.148  19.533  0.00  0.00    +0.000 C 
ATOM     14  O   UNL     1       2.331   4.139  19.724  0.00  0.00    +0.000 OA
ATOM     15  C   UNL     1       3.023   2.898  19.893  0.00  0.00    +0.000 C 
BRANCH  15  16
ATOM     16  C   UNL     1       2.729   1.859  18.896  0.00  0.00    +0.000 C 
ATOM     17  N   UNL     1       1.412   1.698  18.587  0.00  0.00    +0.000 N 
ATOM     18  O   UNL     1       3.630   1.186  18.420  0.00  0.00    +0.000 OA
ATOM     19  H   UNL     1       1.156   1.031  17.873  0.00  0.00    +0.000 HD
ATOM     20  H   UNL     1       0.725   2.378  18.888  0.00  0.00    +0.000 HD
ENDBRANCH  15  16
ENDBRANCH   2  13
TORSDOF 3
ENDMDL
MODEL 6
REMARK VINA RESULT:      -6.6      1.784      2.776
REMARK  Name = 
REMARK  5 active torsions:
REMARK  status: ('A' for Active; 'I' for Inactive)
REMARK    1  A    between atoms: C_1  and  C_2
REMARK    2  A    between atoms: C_5  and  N_6
REMARK    3  A    between atoms: C_7  and  C_9
REMARK    4  A    between atoms: C_11  and  C_12
REMARK    5  A    between atoms: C_16  and  C_17
REMARK                            x       y       z     vdW  Elec       q    Type
REMARK                         _______ _______ _______ _____ _____    ______ ____
ROOT
ATOM      1  N   UNL     1       3.748   3.656  19.732  0.00  0.00    +0.000 N 
ATOM      2  C   UNL     1       3.961   2.540  20.524  0.00  0.00    +0.000 C 
ATOM      3  O   UNL     1       4.879   1.738  20.428  0.00  0.00    +0.000 OA
ATOM      4  H   UNL     1       3.006   4.292  20.005  0.00  0.00    +0.000 HD
ENDROOT
BRANCH   1   9
ATOM      5  C   UNL     1       6.953   5.216  15.203  0.00  0.00    +0.000 C 
ATOM      6  C   UNL     1       6.111   4.840  16.391  0.00  0.00    +0.000 A 
ATOM      7  C   UNL     1       5.037   3.961  16.217  0.00  0.00    +0.000 A 
ATOM      8  C   UNL     1       4.247   3.563  17.301  0.00  0.00    +0.000 A 
ATOM      9  C   UNL     1       4.509   4.022  18.590  0.00  0.00    +0.000 A 
ATOM     10  C   UNL     1       5.574   4.921  18.767  0.00  0.00    +0.000 A 
ATOM     11  C   UNL     1       6.374   5.341  17.681  0.00  0.00    +0.000 A 
ATOM     12  C   UNL     1       7.498   6.313  17.914  0.00  0.00    +0.000 C 
ENDBRANCH   1   9
BRANCH   2  13
ATOM     13  C   UNL     1       2.900   2.243  21.526  0.00  0.00    +0.000 C 
ATOM     14  O   UNL     1       2.471   3.420  22.257  0.00  0.00    +0.000 OA
ATOM     15  C   UNL     1       1.479   2.720  21.499  0.00  0.00    +0.000 C 
BRANCH  15  16
ATOM     16  C   UNL     1       0.927   3.442  20.344  0.00  0.00    +0.000 C 
ATOM     17  N   UNL     1       0.396   2.662  19.364  0.00  0.00    +0.000 N 
ATOM     18  O   UNL     1       0.985   4.662  20.292  0.00  0.00    +0.000 OA
ATOM     19  H   UNL     1      -0.041   3.105  18.569  0.00  0.00    +0.000 HD
ATOM     20  H   UNL     1       0.230   1.675  19.522  0.00  0.00    +0.000 HD
ENDBRANCH  15  16
ENDBRANCH   2  13
TORSDOF 3
ENDMDL
MODEL 7
REMARK VINA RESULT:      -6.6      3.907      4.417
REMARK  Name = 
REMARK  5 active torsions:
REMARK  status: ('A' for Active; 'I' for Inactive)
REMARK    1  A    between atoms: C_1  and  C_2
REMARK    2  A    between atoms: C_5  and  N_6
REMARK    3  A    between atoms: C_7  and  C_9
REMARK    4  A    between atoms: C_11  and  C_12
REMARK    5  A    between atoms: C_16  and  C_17
REMARK                            x       y       z     vdW  Elec       q    Type
REMARK                         _______ _______ _______ _____ _____    ______ ____
ROOT
ATOM      1  N   UNL     1       3.021   5.856  18.997  0.00  0.00    +0.000 N 
ATOM      2  C   UNL     1       2.512   4.726  18.379  0.00  0.00    +0.000 C 
ATOM      3  O   UNL     1       1.534   4.669  17.647  0.00  0.00    +0.000 OA
ATOM      4  H   UNL     1       3.908   5.768  19.483  0.00  0.00    +0.000 HD
ENDROOT
BRANCH   1   9
ATOM      5  C   UNL     1       0.632  11.101  19.077  0.00  0.00    +0.000 C 
ATOM      6  C   UNL     1       1.227   9.720  19.066  0.00  0.00    +0.000 A 
ATOM      7  C   UNL     1       1.828   9.244  17.896  0.00  0.00    +0.000 A 
ATOM      8  C   UNL     1       2.420   7.977  17.852  0.00  0.00    +0.000 A 
ATOM      9  C   UNL     1       2.437   7.150  18.974  0.00  0.00    +0.000 A 
ATOM     10  C   UNL     1       1.816   7.616  20.146  0.00  0.00    +0.000 A 
ATOM     11  C   UNL     1       1.206   8.888  20.203  0.00  0.00    +0.000 A 
ATOM     12  C   UNL     1       0.543   9.343  21.475  0.00  0.00    +0.000 C 
ENDBRANCH   1   9
BRANCH   2  13
ATOM     13  C   UNL     1       3.174   3.440  18.731  0.00  0.00    +0.000 C 
ATOM     14  O   UNL     1       4.057   3.557  19.876  0.00  0.00    +0.000 OA
ATOM     15  C   UNL     1       2.968   2.635  19.979  0.00  0.00    +0.000 C 
BRANCH  15  16
ATOM     16  C   UNL     1       1.928   2.978  20.958  0.00  0.00    +0.000 C 
ATOM     17  N   UNL     1       0.653   2.990  20.481  0.00  0.00    +0.000 N 
ATOM     18  O   UNL     1       2.230   3.255  22.110  0.00  0.00    +0.000 OA
ATOM     19  H   UNL     1      -0.107   3.172  21.120  0.00  0.00    +0.000 HD
ATOM     20  H   UNL     1       0.440   2.604  19.569  0.00  0.00    +0.000 HD
ENDBRANCH  15  16
ENDBRANCH   2  13
TORSDOF 3
ENDMDL
MODEL 8
REMARK VINA RESULT:      -6.5      3.999      5.688
REMARK  Name = 
REMARK  5 active torsions:
REMARK  status: ('A' for Active; 'I' for Inactive)
REMARK    1  A    between atoms: C_1  and  C_2
REMARK    2  A    between atoms: C_5  and  N_6
REMARK    3  A    between atoms: C_7  and  C_9
REMARK    4  A    between atoms: C_11  and  C_12
REMARK    5  A    between atoms: C_16  and  C_17
REMARK                            x       y       z     vdW  Elec       q    Type
REMARK                         _______ _______ _______ _____ _____    ______ ____
ROOT
ATOM      1  N   UNL     1       3.312   5.372  18.297  0.00  0.00    +0.000 N 
ATOM      2  C   UNL     1       4.618   4.982  18.541  0.00  0.00    +0.000 C 
ATOM      3  O   UNL     1       5.369   5.432  19.395  0.00  0.00    +0.000 OA
ATOM      4  H   UNL     1       2.775   4.827  17.629  0.00  0.00    +0.000 HD
ENDROOT
BRANCH   1   9
ATOM      5  C   UNL     1       0.542   9.803  20.729  0.00  0.00    +0.000 C 
ATOM      6  C   UNL     1       1.290   8.666  20.089  0.00  0.00    +0.000 A 
ATOM      7  C   UNL     1       1.460   7.473  20.800  0.00  0.00    +0.000 A 
ATOM      8  C   UNL     1       2.123   6.381  20.230  0.00  0.00    +0.000 A 
ATOM      9  C   UNL     1       2.631   6.443  18.934  0.00  0.00    +0.000 A 
ATOM     10  C   UNL     1       2.481   7.646  18.223  0.00  0.00    +0.000 A 
ATOM     11  C   UNL     1       1.823   8.761  18.789  0.00  0.00    +0.000 A 
ATOM     12  C   UNL     1       1.695  10.033  17.997  0.00  0.00    +0.000 C 
ENDBRANCH   1   9
BRANCH   2  13
ATOM     13  C   UNL     1       5.186   3.984  17.594  0.00  0.00    +0.000 C 
ATOM     14  O   UNL     1       4.533   4.003  16.298  0.00  0.00    +0.000 OA
ATOM     15  C   UNL     1       5.938   4.271  16.329  0.00  0.00    +0.000 C 
BRANCH  15  16
ATOM     16  C   UNL     1       6.338   5.636  15.960  0.00  0.00    +0.000 C 
ATOM     17  N   UNL     1       5.393   6.370  15.310  0.00  0.00    +0.000 N 
ATOM     18  O   UNL     1       7.463   6.040  16.212  0.00  0.00    +0.000 OA
ATOM     19  H   UNL     1       5.596   7.331  15.075  0.00  0.00    +0.000 HD
ATOM     20  H   UNL     1       4.433   6.050  15.264  0.00  0.00    +0.000 HD
ENDBRANCH  15  16
ENDBRANCH   2  13
TORSDOF 3
ENDMDL
MODEL 9
REMARK VINA RESULT:      -6.4      3.863      5.584
REMARK  Name = 
REMARK  5 active torsions:
REMARK  status: ('A' for Active; 'I' for Inactive)
REMARK    1  A    between atoms: C_1  and  C_2
REMARK    2  A    between atoms: C_5  and  N_6
REMARK    3  A    between atoms: C_7  and  C_9
REMARK    4  A    between atoms: C_11  and  C_12
REMARK    5  A    between atoms: C_16  and  C_17
REMARK                            x       y       z     vdW  Elec       q    Type
REMARK                         _______ _______ _______ _____ _____    ______ ____
ROOT
ATOM      1  N   UNL     1       3.337   5.356  17.491  0.00  0.00    +0.000 N 
ATOM      2  C   UNL     1       4.331   4.431  17.765  0.00  0.00    +0.000 C 
ATOM      3  O   UNL     1       4.801   4.165  18.862  0.00  0.00    +0.000 OA
ATOM      4  H   UNL     1       2.969   5.385  16.546  0.00  0.00    +0.000 HD
ENDROOT
BRANCH   1   9
ATOM      5  C   UNL     1       0.906   9.070  21.168  0.00  0.00    +0.000 C 
ATOM      6  C   UNL     1       1.565   8.122  20.203  0.00  0.00    +0.000 A 
ATOM      7  C   UNL     1       1.867   6.822  20.622  0.00  0.00    +0.000 A 
ATOM      8  C   UNL     1       2.453   5.900  19.747  0.00  0.00    +0.000 A 
ATOM      9  C   UNL     1       2.746   6.243  18.429  0.00  0.00    +0.000 A 
ATOM     10  C   UNL     1       2.462   7.555  18.010  0.00  0.00    +0.000 A 
ATOM     11  C   UNL     1       1.881   8.500  18.884  0.00  0.00    +0.000 A 
ATOM     12  C   UNL     1       1.605   9.896  18.396  0.00  0.00    +0.000 C 
ENDBRANCH   1   9
BRANCH   2  13
ATOM     13  C   UNL     1       4.951   3.775  16.582  0.00  0.00    +0.000 C 
ATOM     14  O   UNL     1       5.160   4.690  15.475  0.00  0.00    +0.000 OA
ATOM     15  C   UNL     1       6.314   4.042  16.017  0.00  0.00    +0.000 C 
BRANCH  15  16
ATOM     16  C   UNL     1       7.278   4.915  16.701  0.00  0.00    +0.000 C 
ATOM     17  N   UNL     1       7.349   6.192  16.233  0.00  0.00    +0.000 N 
ATOM     18  O   UNL     1       7.971   4.480  17.608  0.00  0.00    +0.000 OA
ATOM     19  H   UNL     1       7.959   6.849  16.697  0.00  0.00    +0.000 HD
ATOM     20  H   UNL     1       6.649   6.545  15.591  0.00  0.00    +0.000 HD
ENDBRANCH  15  16
ENDBRANCH   2  13
TORSDOF 3
ENDMDL
