MODEL 1
REMARK VINA RESULT:      -8.1      0.000      0.000
REMARK  Name = 
REMARK  5 active torsions:
REMARK  status: ('A' for Active; 'I' for Inactive)
REMARK    1  A    between atoms: C_1  and  C_2
REMARK    2  A    between atoms: C_6  and  N_7
REMARK    3  A    between atoms: C_8  and  C_10
REMARK    4  A    between atoms: C_14  and  N_15
REMARK    5  A    between atoms: C_28  and  C_29
REMARK                            x       y       z     vdW  Elec       q    Type
REMARK                         _______ _______ _______ _____ _____    ______ ____
ROOT
ATOM      1  C   UNL     1       2.084   5.208  20.575  0.00  0.00    +0.000 A 
ATOM      2  C   UNL     1       2.063   4.117  21.449  0.00  0.00    +0.000 A 
ATOM      3  C   UNL     1       2.900   3.026  21.234  0.00  0.00    +0.000 A 
ATOM      4  C   UNL     1       3.767   3.009  20.138  0.00  0.00    +0.000 A 
ATOM      5  C   UNL     1       3.819   4.087  19.244  0.00  0.00    +0.000 A 
ATOM      6  C   UNL     1       2.956   5.179  19.474  0.00  0.00    +0.000 A 
ENDROOT
BRANCH   5   7
ATOM      7  N   UNL     1       4.679   4.085  18.103  0.00  0.00    +0.000 N 
ATOM      8  C   UNL     1       5.904   4.722  18.011  0.00  0.00    +0.000 C 
ATOM      9  O   UNL     1       6.432   5.494  18.800  0.00  0.00    +0.000 OA
ATOM     10  C   UNL     1       6.577   4.303  16.718  0.00  0.00    +0.000 C 
ATOM     11  C   UNL     1       6.950   5.472  15.781  0.00  0.00    +0.000 C 
ATOM     12  C   UNL     1       7.573   4.944  14.468  0.00  0.00    +0.000 C 
ATOM     13  C   UNL     1       6.404   4.213  13.785  0.00  0.00    +0.000 C 
ATOM     14  C   UNL     1       5.234   4.495  14.743  0.00  0.00    +0.000 C 
ATOM     15  C   UNL     1       5.578   5.899  15.263  0.00  0.00    +0.000 C 
ATOM     16  C   UNL     1       5.469   3.582  15.959  0.00  0.00    +0.000 C 
ATOM     17  C   UNL     1       4.317   3.505  16.907  0.00  0.00    +0.000 C 
ATOM     18  O   UNL     1       3.235   3.033  16.580  0.00  0.00    +0.000 OA
ENDBRANCH   5   7
BRANCH   1  20
ATOM     19  N   UNL     1       1.654   7.579  21.054  0.00  0.00    +0.000 N 
ATOM     20  C   UNL     1       1.120   6.321  20.812  0.00  0.00    +0.000 C 
ATOM     21  O   UNL     1      -0.074   6.025  20.796  0.00  0.00    +0.000 OA
ATOM     22  H   UNL     1       2.658   7.632  21.112  0.00  0.00    +0.000 HD
BRANCH  19  28
ATOM     23  C   UNL     1      -0.192  12.030  19.563  0.00  0.00    +0.000 C 
ATOM     24  C   UNL     1       0.046  10.961  20.602  0.00  0.00    +0.000 A 
ATOM     25  C   UNL     1      -0.434  11.189  21.897  0.00  0.00    +0.000 A 
ATOM     26  C   UNL     1      -0.246  10.241  22.888  0.00  0.00    +0.000 A 
ATOM     27  C   UNL     1       0.431   9.056  22.600  0.00  0.00    +0.000 A 
ATOM     28  C   UNL     1       0.942   8.787  21.321  0.00  0.00    +0.000 A 
ATOM     29  C   UNL     1       0.741   9.750  20.299  0.00  0.00    +0.000 A 
ATOM     30  C   UNL     1       1.229   9.574  18.879  0.00  0.00    +0.000 C 
ENDBRANCH  19  28
ENDBRANCH   1  20
TORSDOF 3
ENDMDL
MODEL 2
REMARK VINA RESULT:      -8.1      3.215      9.325
REMARK  Name = 
REMARK  5 active torsions:
REMARK  status: ('A' for Active; 'I' for Inactive)
REMARK    1  A    between atoms: C_1  and  C_2
REMARK    2  A    between atoms: C_6  and  N_7
REMARK    3  A    between atoms: C_8  and  C_10
REMARK    4  A    between atoms: C_14  and  N_15
REMARK    5  A    between atoms: C_28  and  C_29
REMARK                            x       y       z     vdW  Elec       q    Type
REMARK                         _______ _______ _______ _____ _____    ______ ____
ROOT
ATOM      1  C   UNL     1       1.255   8.823  20.231  0.00  0.00    +0.000 A 
ATOM      2  C   UNL     1       0.611   8.516  21.433  0.00  0.00    +0.000 A 
ATOM      3  C   UNL     1      -0.003   9.518  22.180  0.00  0.00    +0.000 A 
ATOM      4  C   UNL     1       0.024  10.843  21.736  0.00  0.00    +0.000 A 
ATOM      5  C   UNL     1       0.656  11.187  20.533  0.00  0.00    +0.000 A 
ATOM      6  C   UNL     1       1.281  10.159  19.796  0.00  0.00    +0.000 A 
ENDROOT
BRANCH   5   7
ATOM      7  N   UNL     1       0.719  12.537  20.068  0.00  0.00    +0.000 N 
ATOM      8  C   UNL     1       1.671  13.473  20.428  0.00  0.00    +0.000 C 
ATOM      9  O   UNL     1       2.549  13.394  21.277  0.00  0.00    +0.000 OA
ATOM     10  C   UNL     1       1.496  14.706  19.561  0.00  0.00    +0.000 C 
ATOM     11  C   UNL     1       1.265  16.015  20.348  0.00  0.00    +0.000 C 
ATOM     12  C   UNL     1       1.038  17.201  19.382  0.00  0.00    +0.000 C 
ATOM     13  C   UNL     1      -0.307  16.867  18.714  0.00  0.00    +0.000 C 
ATOM     14  C   UNL     1      -0.731  15.583  19.449  0.00  0.00    +0.000 C 
ATOM     15  C   UNL     1      -0.161  15.818  20.856  0.00  0.00    +0.000 C 
ATOM     16  C   UNL     1       0.158  14.468  18.872  0.00  0.00    +0.000 C 
ATOM     17  C   UNL     1      -0.254  13.085  19.261  0.00  0.00    +0.000 C 
ATOM     18  O   UNL     1      -1.328  12.605  18.919  0.00  0.00    +0.000 OA
ENDBRANCH   5   7
BRANCH   1  20
ATOM     19  N   UNL     1       2.379   6.637  20.257  0.00  0.00    +0.000 N 
ATOM     20  C   UNL     1       1.954   7.724  19.505  0.00  0.00    +0.000 C 
ATOM     21  O   UNL     1       2.115   7.882  18.295  0.00  0.00    +0.000 OA
ATOM     22  H   UNL     1       2.237   6.704  21.252  0.00  0.00    +0.000 HD
BRANCH  19  28
ATOM     23  C   UNL     1       2.503   1.724  19.127  0.00  0.00    +0.000 C 
ATOM     24  C   UNL     1       3.145   3.085  19.249  0.00  0.00    +0.000 A 
ATOM     25  C   UNL     1       4.499   3.201  18.918  0.00  0.00    +0.000 A 
ATOM     26  C   UNL     1       5.137   4.426  19.010  0.00  0.00    +0.000 A 
ATOM     27  C   UNL     1       4.432   5.550  19.440  0.00  0.00    +0.000 A 
ATOM     28  C   UNL     1       3.076   5.481  19.795  0.00  0.00    +0.000 A 
ATOM     29  C   UNL     1       2.414   4.231  19.692  0.00  0.00    +0.000 A 
ATOM     30  C   UNL     1       0.955   4.027  20.030  0.00  0.00    +0.000 C 
ENDBRANCH  19  28
ENDBRANCH   1  20
TORSDOF 3
ENDMDL
MODEL 3
REMARK VINA RESULT:      -8.0      3.515      9.627
REMARK  Name = 
REMARK  5 active torsions:
REMARK  status: ('A' for Active; 'I' for Inactive)
REMARK    1  A    between atoms: C_1  and  C_2
REMARK    2  A    between atoms: C_6  and  N_7
REMARK    3  A    between atoms: C_8  and  C_10
REMARK    4  A    between atoms: C_14  and  N_15
REMARK    5  A    between atoms: C_28  and  C_29
REMARK                            x       y       z     vdW  Elec       q    Type
REMARK                         _______ _______ _______ _____ _____    ______ ____
ROOT
ATOM      1  C   UNL     1       1.492   9.246  19.300  0.00  0.00    +0.000 A 
ATOM      2  C   UNL     1       1.113   8.795  20.568  0.00  0.00    +0.000 A 
ATOM      3  C   UNL     1       0.593   9.682  21.506  0.00  0.00    +0.000 A 
ATOM      4  C   UNL     1       0.449  11.036  21.191  0.00  0.00    +0.000 A 
ATOM      5  C   UNL     1       0.814  11.524  19.928  0.00  0.00    +0.000 A 
ATOM      6  C   UNL     1       1.348  10.611  18.995  0.00  0.00    +0.000 A 
ENDROOT
BRANCH   5   7
ATOM      7  N   UNL     1       0.699  12.907  19.588  0.00  0.00    +0.000 N 
ATOM      8  C   UNL     1       1.691  13.861  19.736  0.00  0.00    +0.000 C 
ATOM      9  O   UNL     1       2.782  13.762  20.280  0.00  0.00    +0.000 OA
ATOM     10  C   UNL     1       1.233  15.146  19.072  0.00  0.00    +0.000 C 
ATOM     11  C   UNL     1       1.210  16.376  20.005  0.00  0.00    +0.000 C 
ATOM     12  C   UNL     1       0.676  17.621  19.259  0.00  0.00    +0.000 C 
ATOM     13  C   UNL     1      -0.798  17.270  18.986  0.00  0.00    +0.000 C 
ATOM     14  C   UNL     1      -0.950  15.913  19.695  0.00  0.00    +0.000 C 
ATOM     15  C   UNL     1       0.004  16.067  20.890  0.00  0.00    +0.000 C 
ATOM     16  C   UNL     1      -0.242  14.893  18.786  0.00  0.00    +0.000 C 
ATOM     17  C   UNL     1      -0.483  13.464  19.153  0.00  0.00    +0.000 C 
ATOM     18  O   UNL     1      -1.596  12.957  19.100  0.00  0.00    +0.000 OA
ENDBRANCH   5   7
BRANCH   1  20
ATOM     19  N   UNL     1       2.517   7.052  18.884  0.00  0.00    +0.000 N 
ATOM     20  C   UNL     1       2.105   8.268  18.357  0.00  0.00    +0.000 C 
ATOM     21  O   UNL     1       2.214   8.631  17.186  0.00  0.00    +0.000 OA
ATOM     22  H   UNL     1       2.427   6.948  19.882  0.00  0.00    +0.000 HD
BRANCH  19  28
ATOM     23  C   UNL     1       2.823   2.154  17.724  0.00  0.00    +0.000 C 
ATOM     24  C   UNL     1       3.297   3.583  17.627  0.00  0.00    +0.000 A 
ATOM     25  C   UNL     1       4.422   3.846  16.837  0.00  0.00    +0.000 A 
ATOM     26  C   UNL     1       4.899   5.140  16.711  0.00  0.00    +0.000 A 
ATOM     27  C   UNL     1       4.262   6.187  17.378  0.00  0.00    +0.000 A 
ATOM     28  C   UNL     1       3.139   5.971  18.191  0.00  0.00    +0.000 A 
ATOM     29  C   UNL     1       2.639   4.650  18.315  0.00  0.00    +0.000 A 
ATOM     30  C   UNL     1       1.430   4.288  19.147  0.00  0.00    +0.000 C 
ENDBRANCH  19  28
ENDBRANCH   1  20
TORSDOF 3
ENDMDL
MODEL 4
REMARK VINA RESULT:      -7.9      3.681      9.520
REMARK  Name = 
REMARK  5 active torsions:
REMARK  status: ('A' for Active; 'I' for Inactive)
REMARK    1  A    between atoms: C_1  and  C_2
REMARK    2  A    between atoms: C_6  and  N_7
REMARK    3  A    between atoms: C_8  and  C_10
REMARK    4  A    between atoms: C_14  and  N_15
REMARK    5  A    between atoms: C_28  and  C_29
REMARK                            x       y       z     vdW  Elec       q    Type
REMARK                         _______ _______ _______ _____ _____    ______ ____
ROOT
ATOM      1  C   UNL     1       1.296   9.438  19.432  0.00  0.00    +0.000 A 
ATOM      2  C   UNL     1       0.637   8.862  20.522  0.00  0.00    +0.000 A 
ATOM      3  C   UNL     1       0.062   9.665  21.503  0.00  0.00    +0.000 A 
ATOM      4  C   UNL     1       0.143  11.058  21.409  0.00  0.00    +0.000 A 
ATOM      5  C   UNL     1       0.791  11.670  20.328  0.00  0.00    +0.000 A 
ATOM      6  C   UNL     1       1.376  10.839  19.350  0.00  0.00    +0.000 A 
ENDROOT
BRANCH   5   7
ATOM      7  N   UNL     1       0.908  13.090  20.220  0.00  0.00    +0.000 N 
ATOM      8  C   UNL     1       0.171  13.902  19.376  0.00  0.00    +0.000 C 
ATOM      9  O   UNL     1      -0.611  13.585  18.491  0.00  0.00    +0.000 OA
ATOM     10  C   UNL     1       0.459  15.351  19.719  0.00  0.00    +0.000 C 
ATOM     11  C   UNL     1       0.990  16.195  18.540  0.00  0.00    +0.000 C 
ATOM     12  C   UNL     1       1.309  17.637  18.998  0.00  0.00    +0.000 C 
ATOM     13  C   UNL     1       2.500  17.453  19.956  0.00  0.00    +0.000 C 
ATOM     14  C   UNL     1       2.776  15.943  19.852  0.00  0.00    +0.000 C 
ATOM     15  C   UNL     1       2.408  15.652  18.389  0.00  0.00    +0.000 C 
ATOM     16  C   UNL     1       1.655  15.264  20.657  0.00  0.00    +0.000 C 
ATOM     17  C   UNL     1       1.867  13.805  20.904  0.00  0.00    +0.000 C 
ATOM     18  O   UNL     1       2.802  13.388  21.576  0.00  0.00    +0.000 OA
ENDBRANCH   5   7
BRANCH   1  20
ATOM     19  N   UNL     1       2.442   7.325  18.922  0.00  0.00    +0.000 N 
ATOM     20  C   UNL     1       1.952   8.533  18.445  0.00  0.00    +0.000 C 
ATOM     21  O   UNL     1       2.024   8.945  17.288  0.00  0.00    +0.000 OA
ATOM     22  H   UNL     1       2.372   7.180  19.916  0.00  0.00    +0.000 HD
BRANCH  19  28
ATOM     23  C   UNL     1       3.058   2.491  17.624  0.00  0.00    +0.000 C 
ATOM     24  C   UNL     1       3.426   3.953  17.550  0.00  0.00    +0.000 A 
ATOM     25  C   UNL     1       4.503   4.315  16.733  0.00  0.00    +0.000 A 
ATOM     26  C   UNL     1       4.882   5.643  16.626  0.00  0.00    +0.000 A 
ATOM     27  C   UNL     1       4.195   6.625  17.340  0.00  0.00    +0.000 A 
ATOM     28  C   UNL     1       3.116   6.309  18.181  0.00  0.00    +0.000 A 
ATOM     29  C   UNL     1       2.716   4.952  18.285  0.00  0.00    +0.000 A 
ATOM     30  C   UNL     1       1.564   4.484  19.144  0.00  0.00    +0.000 C 
ENDBRANCH  19  28
ENDBRANCH   1  20
TORSDOF 3
ENDMDL
MODEL 5
REMARK VINA RESULT:      -7.9      1.282      1.733
REMARK  Name = 
REMARK  5 active torsions:
REMARK  status: ('A' for Active; 'I' for Inactive)
REMARK    1  A    between atoms: C_1  and  C_2
REMARK    2  A    between atoms: C_6  and  N_7
REMARK    3  A    between atoms: C_8  and  C_10
REMARK    4  A    between atoms: C_14  and  N_15
REMARK    5  A    between atoms: C_28  and  C_29
REMARK                            x       y       z     vdW  Elec       q    Type
REMARK                         _______ _______ _______ _____ _____    ______ ____
ROOT
ATOM      1  C   UNL     1       1.981   6.693  20.395  0.00  0.00    +0.000 A 
ATOM      2  C   UNL     1       1.425   5.660  21.154  0.00  0.00    +0.000 A 
ATOM      3  C   UNL     1       1.791   4.337  20.922  0.00  0.00    +0.000 A 
ATOM      4  C   UNL     1       2.717   4.029  19.921  0.00  0.00    +0.000 A 
ATOM      5  C   UNL     1       3.300   5.039  19.143  0.00  0.00    +0.000 A 
ATOM      6  C   UNL     1       2.907   6.372  19.388  0.00  0.00    +0.000 A 
ENDROOT
BRANCH   5   7
ATOM      7  N   UNL     1       4.230   4.750  18.098  0.00  0.00    +0.000 N 
ATOM      8  C   UNL     1       5.524   5.232  18.010  0.00  0.00    +0.000 C 
ATOM      9  O   UNL     1       6.083   6.071  18.703  0.00  0.00    +0.000 OA
ATOM     10  C   UNL     1       6.231   4.527  16.868  0.00  0.00    +0.000 C 
ATOM     11  C   UNL     1       6.802   5.470  15.787  0.00  0.00    +0.000 C 
ATOM     12  C   UNL     1       7.449   4.660  14.639  0.00  0.00    +0.000 C 
ATOM     13  C   UNL     1       6.252   3.945  13.987  0.00  0.00    +0.000 C 
ATOM     14  C   UNL     1       5.060   4.509  14.779  0.00  0.00    +0.000 C 
ATOM     15  C   UNL     1       5.529   5.939  15.087  0.00  0.00    +0.000 C 
ATOM     16  C   UNL     1       5.103   3.803  16.145  0.00  0.00    +0.000 C 
ATOM     17  C   UNL     1       3.886   4.011  16.988  0.00  0.00    +0.000 C 
ATOM     18  O   UNL     1       2.782   3.603  16.649  0.00  0.00    +0.000 OA
ENDBRANCH   5   7
BRANCH   1  20
ATOM     19  N   UNL     1       0.997   8.780  19.552  0.00  0.00    +0.000 N 
ATOM     20  C   UNL     1       1.505   8.084  20.640  0.00  0.00    +0.000 C 
ATOM     21  O   UNL     1       1.622   8.510  21.788  0.00  0.00    +0.000 OA
ATOM     22  H   UNL     1       1.047   8.310  18.662  0.00  0.00    +0.000 HD
BRANCH  19  28
ATOM     23  C   UNL     1       1.388  13.611  18.159  0.00  0.00    +0.000 C 
ATOM     24  C   UNL     1       0.687  12.475  18.862  0.00  0.00    +0.000 A 
ATOM     25  C   UNL     1      -0.496  12.764  19.552  0.00  0.00    +0.000 A 
ATOM     26  C   UNL     1      -1.182  11.759  20.213  0.00  0.00    +0.000 A 
ATOM     27  C   UNL     1      -0.690  10.453  20.199  0.00  0.00    +0.000 A 
ATOM     28  C   UNL     1       0.498  10.117  19.532  0.00  0.00    +0.000 A 
ATOM     29  C   UNL     1       1.198  11.140  18.844  0.00  0.00    +0.000 A 
ATOM     30  C   UNL     1       2.479  10.906  18.077  0.00  0.00    +0.000 C 
ENDBRANCH  19  28
ENDBRANCH   1  20
TORSDOF 3
ENDMDL
MODEL 6
REMARK VINA RESULT:      -7.9      3.153      9.352
REMARK  Name = 
REMARK  5 active torsions:
REMARK  status: ('A' for Active; 'I' for Inactive)
REMARK    1  A    between atoms: C_1  and  C_2
REMARK    2  A    between atoms: C_6  and  N_7
REMARK    3  A    between atoms: C_8  and  C_10
REMARK    4  A    between atoms: C_14  and  N_15
REMARK    5  A    between atoms: C_28  and  C_29
REMARK                            x       y       z     vdW  Elec       q    Type
REMARK                         _______ _______ _______ _____ _____    ______ ____
ROOT
ATOM      1  C   UNL     1       1.049   8.926  20.594  0.00  0.00    +0.000 A 
ATOM      2  C   UNL     1       0.449   8.476  21.774  0.00  0.00    +0.000 A 
ATOM      3  C   UNL     1      -0.197   9.370  22.623  0.00  0.00    +0.000 A 
ATOM      4  C   UNL     1      -0.247  10.731  22.305  0.00  0.00    +0.000 A 
ATOM      5  C   UNL     1       0.339  11.217  21.129  0.00  0.00    +0.000 A 
ATOM      6  C   UNL     1       0.997  10.296  20.287  0.00  0.00    +0.000 A 
ENDROOT
BRANCH   5   7
ATOM      7  N   UNL     1       0.323  12.606  20.793  0.00  0.00    +0.000 N 
ATOM      8  C   UNL     1      -0.681  13.260  20.101  0.00  0.00    +0.000 C 
ATOM      9  O   UNL     1      -1.664  12.792  19.543  0.00  0.00    +0.000 OA
ATOM     10  C   UNL     1      -0.406  14.751  20.135  0.00  0.00    +0.000 C 
ATOM     11  C   UNL     1      -0.300  15.415  18.745  0.00  0.00    +0.000 C 
ATOM     12  C   UNL     1       0.040  16.918  18.880  0.00  0.00    +0.000 C 
ATOM     13  C   UNL     1       1.467  16.912  19.455  0.00  0.00    +0.000 C 
ATOM     14  C   UNL     1       1.804  15.411  19.486  0.00  0.00    +0.000 C 
ATOM     15  C   UNL     1       1.046  14.888  18.256  0.00  0.00    +0.000 C 
ATOM     16  C   UNL     1       1.015  14.838  20.677  0.00  0.00    +0.000 C 
ATOM     17  C   UNL     1       1.388  13.440  21.051  0.00  0.00    +0.000 C 
ATOM     18  O   UNL     1       2.505  13.153  21.466  0.00  0.00    +0.000 OA
ENDBRANCH   5   7
BRANCH   1  20
ATOM     19  N   UNL     1       2.174   6.753  20.365  0.00  0.00    +0.000 N 
ATOM     20  C   UNL     1       1.785   7.938  19.755  0.00  0.00    +0.000 C 
ATOM     21  O   UNL     1       2.006   8.265  18.589  0.00  0.00    +0.000 OA
ATOM     22  H   UNL     1       1.982   6.679  21.352  0.00  0.00    +0.000 HD
BRANCH  19  28
ATOM     23  C   UNL     1       2.505   1.916  18.979  0.00  0.00    +0.000 C 
ATOM     24  C   UNL     1       3.065   3.311  19.107  0.00  0.00    +0.000 A 
ATOM     25  C   UNL     1       4.369   3.537  18.652  0.00  0.00    +0.000 A 
ATOM     26  C   UNL     1       4.931   4.799  18.743  0.00  0.00    +0.000 A 
ATOM     27  C   UNL     1       4.200   5.851  19.297  0.00  0.00    +0.000 A 
ATOM     28  C   UNL     1       2.895   5.670  19.779  0.00  0.00    +0.000 A 
ATOM     29  C   UNL     1       2.309   4.382  19.678  0.00  0.00    +0.000 A 
ATOM     30  C   UNL     1       0.909   4.062  20.146  0.00  0.00    +0.000 C 
ENDBRANCH  19  28
ENDBRANCH   1  20
TORSDOF 3
ENDMDL
MODEL 7
REMARK VINA RESULT:      -7.8      3.790      8.931
REMARK  Name = 
REMARK  5 active torsions:
REMARK  status: ('A' for Active; 'I' for Inactive)
REMARK    1  A    between atoms: C_1  and  C_2
REMARK    2  A    between atoms: C_6  and  N_7
REMARK    3  A    between atoms: C_8  and  C_10
REMARK    4  A    between atoms: C_14  and  N_15
REMARK    5  A    between atoms: C_28  and  C_29
REMARK                            x       y       z     vdW  Elec       q    Type
REMARK                         _______ _______ _______ _____ _____    ______ ____
ROOT
ATOM      1  C   UNL     1      -0.059  10.285  21.575  0.00  0.00    +0.000 A 
ATOM      2  C   UNL     1      -0.961  10.611  22.591  0.00  0.00    +0.000 A 
ATOM      3  C   UNL     1      -1.201  11.942  22.921  0.00  0.00    +0.000 A 
ATOM      4  C   UNL     1      -0.536  12.967  22.241  0.00  0.00    +0.000 A 
ATOM      5  C   UNL     1       0.372  12.677  21.213  0.00  0.00    +0.000 A 
ATOM      6  C   UNL     1       0.608  11.322  20.901  0.00  0.00    +0.000 A 
ENDROOT
BRANCH   5   7
ATOM      7  N   UNL     1       1.083  13.704  20.519  0.00  0.00    +0.000 N 
ATOM      8  C   UNL     1       0.881  14.080  19.203  0.00  0.00    +0.000 C 
ATOM      9  O   UNL     1       0.176  13.557  18.351  0.00  0.00    +0.000 OA
ATOM     10  C   UNL     1       1.691  15.332  18.923  0.00  0.00    +0.000 C 
ATOM     11  C   UNL     1       2.690  15.200  17.753  0.00  0.00    +0.000 C 
ATOM     12  C   UNL     1       3.510  16.501  17.583  0.00  0.00    +0.000 C 
ATOM     13  C   UNL     1       4.362  16.557  18.863  0.00  0.00    +0.000 C 
ATOM     14  C   UNL     1       3.999  15.234  19.559  0.00  0.00    +0.000 C 
ATOM     15  C   UNL     1       3.760  14.299  18.364  0.00  0.00    +0.000 C 
ATOM     16  C   UNL     1       2.593  15.452  20.145  0.00  0.00    +0.000 C 
ATOM     17  C   UNL     1       2.141  14.381  21.084  0.00  0.00    +0.000 C 
ATOM     18  O   UNL     1       2.710  14.166  22.148  0.00  0.00    +0.000 OA
ENDBRANCH   5   7
BRANCH   1  20
ATOM     19  N   UNL     1       1.363   8.537  20.595  0.00  0.00    +0.000 N 
ATOM     20  C   UNL     1       0.211   8.843  21.306  0.00  0.00    +0.000 C 
ATOM     21  O   UNL     1      -0.626   8.043  21.721  0.00  0.00    +0.000 OA
ATOM     22  H   UNL     1       1.899   9.321  20.258  0.00  0.00    +0.000 HD
BRANCH  19  28
ATOM     23  C   UNL     1       3.662   5.482  17.306  0.00  0.00    +0.000 C 
ATOM     24  C   UNL     1       2.938   5.748  18.603  0.00  0.00    +0.000 A 
ATOM     25  C   UNL     1       2.685   4.660  19.446  0.00  0.00    +0.000 A 
ATOM     26  C   UNL     1       2.026   4.847  20.650  0.00  0.00    +0.000 A 
ATOM     27  C   UNL     1       1.605   6.124  21.023  0.00  0.00    +0.000 A 
ATOM     28  C   UNL     1       1.824   7.244  20.206  0.00  0.00    +0.000 A 
ATOM     29  C   UNL     1       2.509   7.059  18.978  0.00  0.00    +0.000 A 
ATOM     30  C   UNL     1       2.819   8.184  18.017  0.00  0.00    +0.000 C 
ENDBRANCH  19  28
ENDBRANCH   1  20
TORSDOF 3
ENDMDL
MODEL 8
REMARK VINA RESULT:      -7.8      1.354      2.233
REMARK  Name = 
REMARK  5 active torsions:
REMARK  status: ('A' for Active; 'I' for Inactive)
REMARK    1  A    between atoms: C_1  and  C_2
REMARK    2  A    between atoms: C_6  and  N_7
REMARK    3  A    between atoms: C_8  and  C_10
REMARK    4  A    between atoms: C_14  and  N_15
REMARK    5  A    between atoms: C_28  and  C_29
REMARK                            x       y       z     vdW  Elec       q    Type
REMARK                         _______ _______ _______ _____ _____    ______ ____
ROOT
ATOM      1  C   UNL     1       1.992   7.365  19.956  0.00  0.00    +0.000 A 
ATOM      2  C   UNL     1       1.566   6.500  20.967  0.00  0.00    +0.000 A 
ATOM      3  C   UNL     1       2.039   5.191  21.022  0.00  0.00    +0.000 A 
ATOM      4  C   UNL     1       2.943   4.729  20.060  0.00  0.00    +0.000 A 
ATOM      5  C   UNL     1       3.396   5.571  19.035  0.00  0.00    +0.000 A 
ATOM      6  C   UNL     1       2.897   6.889  18.992  0.00  0.00    +0.000 A 
ENDROOT
BRANCH   5   7
ATOM      7  N   UNL     1       4.300   5.116  18.026  0.00  0.00    +0.000 N 
ATOM      8  C   UNL     1       5.598   5.560  17.844  0.00  0.00    +0.000 C 
ATOM      9  O   UNL     1       6.183   6.482  18.395  0.00  0.00    +0.000 OA
ATOM     10  C   UNL     1       6.272   4.684  16.804  0.00  0.00    +0.000 C 
ATOM     11  C   UNL     1       6.831   5.449  15.586  0.00  0.00    +0.000 C 
ATOM     12  C   UNL     1       7.443   4.471  14.557  0.00  0.00    +0.000 C 
ATOM     13  C   UNL     1       6.224   3.687  14.040  0.00  0.00    +0.000 C 
ATOM     14  C   UNL     1       5.056   4.379  14.763  0.00  0.00    +0.000 C 
ATOM     15  C   UNL     1       5.550   5.831  14.849  0.00  0.00    +0.000 C 
ATOM     16  C   UNL     1       5.119   3.880  16.217  0.00  0.00    +0.000 C 
ATOM     17  C   UNL     1       3.923   4.228  17.043  0.00  0.00    +0.000 C 
ATOM     18  O   UNL     1       2.807   3.793  16.789  0.00  0.00    +0.000 OA
ENDBRANCH   5   7
BRANCH   1  20
ATOM     19  N   UNL     1       1.231   9.395  21.114  0.00  0.00    +0.000 N 
ATOM     20  C   UNL     1       1.404   8.735  19.905  0.00  0.00    +0.000 C 
ATOM     21  O   UNL     1       1.100   9.159  18.791  0.00  0.00    +0.000 OA
ATOM     22  H   UNL     1       1.460   8.870  21.943  0.00  0.00    +0.000 HD
BRANCH  19  28
ATOM     23  C   UNL     1      -1.993  12.495  23.444  0.00  0.00    +0.000 C 
ATOM     24  C   UNL     1      -0.894  12.210  22.449  0.00  0.00    +0.000 A 
ATOM     25  C   UNL     1      -0.420  13.275  21.676  0.00  0.00    +0.000 A 
ATOM     26  C   UNL     1       0.589  13.070  20.750  0.00  0.00    +0.000 A 
ATOM     27  C   UNL     1       1.132  11.796  20.579  0.00  0.00    +0.000 A 
ATOM     28  C   UNL     1       0.680  10.694  21.322  0.00  0.00    +0.000 A 
ATOM     29  C   UNL     1      -0.345  10.901  22.280  0.00  0.00    +0.000 A 
ATOM     30  C   UNL     1      -0.907   9.802  23.152  0.00  0.00    +0.000 C 
ENDBRANCH  19  28
ENDBRANCH   1  20
TORSDOF 3
ENDMDL
MODEL 9
REMARK VINA RESULT:      -7.7      1.271      1.452
REMARK  Name = 
REMARK  5 active torsions:
REMARK  status: ('A' for Active; 'I' for Inactive)
REMARK    1  A    between atoms: C_1  and  C_2
REMARK    2  A    between atoms: C_6  and  N_7
REMARK    3  A    between atoms: C_8  and  C_10
REMARK    4  A    between atoms: C_14  and  N_15
REMARK    5  A    between atoms: C_28  and  C_29
REMARK                            x       y       z     vdW  Elec       q    Type
REMARK                         _______ _______ _______ _____ _____    ______ ____
ROOT
ATOM      1  C   UNL     1       1.915   6.759  20.308  0.00  0.00    +0.000 A 
ATOM      2  C   UNL     1       1.335   5.749  21.081  0.00  0.00    +0.000 A 
ATOM      3  C   UNL     1       1.679   4.416  20.873  0.00  0.00    +0.000 A 
ATOM      4  C   UNL     1       2.606   4.074  19.884  0.00  0.00    +0.000 A 
ATOM      5  C   UNL     1       3.212   5.061  19.094  0.00  0.00    +0.000 A 
ATOM      6  C   UNL     1       2.843   6.404  19.314  0.00  0.00    +0.000 A 
ENDROOT
BRANCH   5   7
ATOM      7  N   UNL     1       4.144   4.737  18.061  0.00  0.00    +0.000 N 
ATOM      8  C   UNL     1       5.452   5.181  17.982  0.00  0.00    +0.000 C 
ATOM      9  O   UNL     1       6.028   6.009  18.675  0.00  0.00    +0.000 OA
ATOM     10  C   UNL     1       6.150   4.447  16.853  0.00  0.00    +0.000 C 
ATOM     11  C   UNL     1       6.759   5.365  15.771  0.00  0.00    +0.000 C 
ATOM     12  C   UNL     1       7.394   4.529  14.636  0.00  0.00    +0.000 C 
ATOM     13  C   UNL     1       6.184   3.843  13.977  0.00  0.00    +0.000 C 
ATOM     14  C   UNL     1       5.000   4.447  14.752  0.00  0.00    +0.000 C 
ATOM     15  C   UNL     1       5.506   5.865  15.055  0.00  0.00    +0.000 C 
ATOM     16  C   UNL     1       5.009   3.750  16.124  0.00  0.00    +0.000 C 
ATOM     17  C   UNL     1       3.791   3.999  16.952  0.00  0.00    +0.000 C 
ATOM     18  O   UNL     1       2.679   3.620  16.605  0.00  0.00    +0.000 OA
ENDBRANCH   5   7
BRANCH   1  20
ATOM     19  N   UNL     1       0.264   8.343  21.202  0.00  0.00    +0.000 N 
ATOM     20  C   UNL     1       1.463   8.163  20.526  0.00  0.00    +0.000 C 
ATOM     21  O   UNL     1       2.184   9.048  20.068  0.00  0.00    +0.000 OA
ATOM     22  H   UNL     1      -0.243   7.505  21.439  0.00  0.00    +0.000 HD
BRANCH  19  28
ATOM     23  C   UNL     1      -1.937  12.653  19.781  0.00  0.00    +0.000 C 
ATOM     24  C   UNL     1      -1.446  11.685  20.829  0.00  0.00    +0.000 A 
ATOM     25  C   UNL     1      -1.606  12.040  22.173  0.00  0.00    +0.000 A 
ATOM     26  C   UNL     1      -1.175  11.187  23.176  0.00  0.00    +0.000 A 
ATOM     27  C   UNL     1      -0.572   9.973  22.849  0.00  0.00    +0.000 A 
ATOM     28  C   UNL     1      -0.378   9.579  21.515  0.00  0.00    +0.000 A 
ATOM     29  C   UNL     1      -0.828  10.442  20.484  0.00  0.00    +0.000 A 
ATOM     30  C   UNL     1      -0.692  10.128  19.012  0.00  0.00    +0.000 C 
ENDBRANCH  19  28
ENDBRANCH   1  20
TORSDOF 3
ENDMDL
