MODEL 1
REMARK VINA RESULT:      -7.1      0.000      0.000
REMARK  Name = 
REMARK  12 active torsions:
REMARK  status: ('A' for Active; 'I' for Inactive)
REMARK    1  A    between atoms: C_1  and  C_2
REMARK    2  A    between atoms: C_6  and  O_7
REMARK    3  A    between atoms: O_7  and  C_8
REMARK    4  A    between atoms: C_8  and  C_9
REMARK    5  A    between atoms: C_9  and  C_10
REMARK    6  A    between atoms: C_10  and  O_11
REMARK    7  A    between atoms: O_11  and  C_12
REMARK    8  A    between atoms: C_15  and  S_16
REMARK    9  A    between atoms: S_16  and  C_17
REMARK   10  A    between atoms: C_17  and  C_18
REMARK   11  A    between atoms: C_18  and  O_20
REMARK   12  A    between atoms: C_23  and  C_24
REMARK                            x       y       z     vdW  Elec       q    Type
REMARK                         _______ _______ _______ _____ _____    ______ ____
ROOT
ATOM      1  O   UNL     1       5.934   7.306  17.185  0.00  0.00    +0.000 OA
ENDROOT
BRANCH   1   2
ATOM      2  C   UNL     1       4.977   6.355  17.427  0.00  0.00    +0.000 A 
ATOM      3  C   UNL     1       5.377   5.033  17.223  0.00  0.00    +0.000 A 
ATOM      4  C   UNL     1       4.484   3.974  17.434  0.00  0.00    +0.000 A 
ATOM      5  C   UNL     1       3.188   4.228  17.887  0.00  0.00    +0.000 A 
ATOM      6  C   UNL     1       2.792   5.551  18.100  0.00  0.00    +0.000 A 
ATOM      7  C   UNL     1       3.682   6.609  17.876  0.00  0.00    +0.000 A 
BRANCH   5   8
ATOM      8  S   UNL     1       1.986   2.927  18.092  0.00  0.00    +0.000 S 
BRANCH   8   9
ATOM      9  C   UNL     1       2.437   2.267  19.744  0.00  0.00    +0.000 C 
BRANCH   9  10
ATOM     10  C   UNL     1       1.678   2.969  20.858  0.00  0.00    +0.000 C 
ATOM     11  O   UNL     1       2.086   3.011  22.013  0.00  0.00    +0.000 OA
BRANCH  10  12
ATOM     12  O   UNL     1       0.508   3.542  20.500  0.00  0.00    +0.000 OA
ATOM     13  H   UNL     1       0.393   4.414  20.934  0.00  0.00    +0.000 HD
ENDBRANCH  10  12
ENDBRANCH   9  10
ENDBRANCH   8   9
ENDBRANCH   5   8
ENDBRANCH   1   2
BRANCH   1  14
ATOM     14  C   UNL     1       7.282   6.831  17.170  0.00  0.00    +0.000 C 
BRANCH  14  15
ATOM     15  C   UNL     1       8.060   7.483  18.309  0.00  0.00    +0.000 C 
BRANCH  15  16
ATOM     16  C   UNL     1       8.282   8.963  18.017  0.00  0.00    +0.000 C 
BRANCH  16  17
ATOM     17  O   UNL     1       8.855   9.592  19.162  0.00  0.00    +0.000 OA
BRANCH  17  23
ATOM     18  C   UNL     1      10.462  13.856  21.025  0.00  0.00    +0.000 C 
ATOM     19  C   UNL     1      10.339  12.871  19.894  0.00  0.00    +0.000 A 
ATOM     20  C   UNL     1      10.959  13.169  18.672  0.00  0.00    +0.000 A 
ATOM     21  C   UNL     1      10.882  12.281  17.606  0.00  0.00    +0.000 A 
ATOM     22  C   UNL     1      10.188  11.082  17.745  0.00  0.00    +0.000 A 
ATOM     23  C   UNL     1       9.555  10.757  18.952  0.00  0.00    +0.000 A 
ATOM     24  C   UNL     1       9.620  11.658  20.037  0.00  0.00    +0.000 A 
ATOM     25  C   UNL     1       8.933  11.348  21.344  0.00  0.00    +0.000 C 
ENDBRANCH  17  23
ENDBRANCH  16  17
ENDBRANCH  15  16
ENDBRANCH  14  15
ENDBRANCH   1  14
TORSDOF 10
ENDMDL
MODEL 2
REMARK VINA RESULT:      -7.0      5.377      8.700
REMARK  Name = 
REMARK  12 active torsions:
REMARK  status: ('A' for Active; 'I' for Inactive)
REMARK    1  A    between atoms: C_1  and  C_2
REMARK    2  A    between atoms: C_6  and  O_7
REMARK    3  A    between atoms: O_7  and  C_8
REMARK    4  A    between atoms: C_8  and  C_9
REMARK    5  A    between atoms: C_9  and  C_10
REMARK    6  A    between atoms: C_10  and  O_11
REMARK    7  A    between atoms: O_11  and  C_12
REMARK    8  A    between atoms: C_15  and  S_16
REMARK    9  A    between atoms: S_16  and  C_17
REMARK   10  A    between atoms: C_17  and  C_18
REMARK   11  A    between atoms: C_18  and  O_20
REMARK   12  A    between atoms: C_23  and  C_24
REMARK                            x       y       z     vdW  Elec       q    Type
REMARK                         _______ _______ _______ _____ _____    ______ ____
ROOT
ATOM      1  O   UNL     1       3.929   6.394  17.208  0.00  0.00    +0.000 OA
ENDROOT
BRANCH   1   2
ATOM      2  C   UNL     1       3.129   7.050  18.106  0.00  0.00    +0.000 A 
ATOM      3  C   UNL     1       2.560   8.241  17.649  0.00  0.00    +0.000 A 
ATOM      4  C   UNL     1       1.729   9.002  18.479  0.00  0.00    +0.000 A 
ATOM      5  C   UNL     1       1.426   8.559  19.768  0.00  0.00    +0.000 A 
ATOM      6  C   UNL     1       1.988   7.362  20.222  0.00  0.00    +0.000 A 
ATOM      7  C   UNL     1       2.831   6.609  19.395  0.00  0.00    +0.000 A 
BRANCH   5   8
ATOM      8  S   UNL     1       0.441   9.527  20.896  0.00  0.00    +0.000 S 
BRANCH   8   9
ATOM      9  C   UNL     1       0.710  11.226  20.254  0.00  0.00    +0.000 C 
BRANCH   9  10
ATOM     10  C   UNL     1       0.313  12.281  21.271  0.00  0.00    +0.000 C 
ATOM     11  O   UNL     1       0.476  13.481  21.079  0.00  0.00    +0.000 OA
BRANCH  10  12
ATOM     12  O   UNL     1      -0.226  11.817  22.420  0.00  0.00    +0.000 OA
ATOM     13  H   UNL     1       0.466  11.469  23.021  0.00  0.00    +0.000 HD
ENDBRANCH  10  12
ENDBRANCH   9  10
ENDBRANCH   8   9
ENDBRANCH   5   8
ENDBRANCH   1   2
BRANCH   1  14
ATOM     14  C   UNL     1       5.310   6.306  17.565  0.00  0.00    +0.000 C 
BRANCH  14  15
ATOM     15  C   UNL     1       5.699   4.839  17.725  0.00  0.00    +0.000 C 
BRANCH  15  16
ATOM     16  C   UNL     1       4.916   3.976  16.742  0.00  0.00    +0.000 C 
BRANCH  16  17
ATOM     17  O   UNL     1       4.376   2.848  17.427  0.00  0.00    +0.000 OA
BRANCH  17  23
ATOM     18  C   UNL     1       2.083   2.709  21.782  0.00  0.00    +0.000 C 
ATOM     19  C   UNL     1       2.087   2.960  20.297  0.00  0.00    +0.000 A 
ATOM     20  C   UNL     1       0.904   3.399  19.686  0.00  0.00    +0.000 A 
ATOM     21  C   UNL     1       0.867   3.656  18.321  0.00  0.00    +0.000 A 
ATOM     22  C   UNL     1       2.012   3.481  17.547  0.00  0.00    +0.000 A 
ATOM     23  C   UNL     1       3.209   3.040  18.127  0.00  0.00    +0.000 A 
ATOM     24  C   UNL     1       3.252   2.768  19.512  0.00  0.00    +0.000 A 
ATOM     25  C   UNL     1       4.518   2.272  20.166  0.00  0.00    +0.000 C 
ENDBRANCH  17  23
ENDBRANCH  16  17
ENDBRANCH  15  16
ENDBRANCH  14  15
ENDBRANCH   1  14
TORSDOF 10
ENDMDL
MODEL 3
REMARK VINA RESULT:      -6.9      5.736      8.864
REMARK  Name = 
REMARK  12 active torsions:
REMARK  status: ('A' for Active; 'I' for Inactive)
REMARK    1  A    between atoms: C_1  and  C_2
REMARK    2  A    between atoms: C_6  and  O_7
REMARK    3  A    between atoms: O_7  and  C_8
REMARK    4  A    between atoms: C_8  and  C_9
REMARK    5  A    between atoms: C_9  and  C_10
REMARK    6  A    between atoms: C_10  and  O_11
REMARK    7  A    between atoms: O_11  and  C_12
REMARK    8  A    between atoms: C_15  and  S_16
REMARK    9  A    between atoms: S_16  and  C_17
REMARK   10  A    between atoms: C_17  and  C_18
REMARK   11  A    between atoms: C_18  and  O_20
REMARK   12  A    between atoms: C_23  and  C_24
REMARK                            x       y       z     vdW  Elec       q    Type
REMARK                         _______ _______ _______ _____ _____    ______ ____
ROOT
ATOM      1  O   UNL     1       3.487   6.315  18.264  0.00  0.00    +0.000 OA
ENDROOT
BRANCH   1   2
ATOM      2  C   UNL     1       2.696   7.375  18.621  0.00  0.00    +0.000 A 
ATOM      3  C   UNL     1       2.476   8.326  17.623  0.00  0.00    +0.000 A 
ATOM      4  C   UNL     1       1.689   9.457  17.872  0.00  0.00    +0.000 A 
ATOM      5  C   UNL     1       1.081   9.630  19.116  0.00  0.00    +0.000 A 
ATOM      6  C   UNL     1       1.294   8.673  20.112  0.00  0.00    +0.000 A 
ATOM      7  C   UNL     1       2.093   7.549  19.866  0.00  0.00    +0.000 A 
BRANCH   5   8
ATOM      8  S   UNL     1       0.137  11.089  19.515  0.00  0.00    +0.000 S 
BRANCH   8   9
ATOM      9  C   UNL     1      -1.544  10.602  18.962  0.00  0.00    +0.000 C 
BRANCH   9  10
ATOM     10  C   UNL     1      -1.770  10.925  17.495  0.00  0.00    +0.000 C 
ATOM     11  O   UNL     1      -2.008  10.064  16.656  0.00  0.00    +0.000 OA
BRANCH  10  12
ATOM     12  O   UNL     1      -1.680  12.232  17.160  0.00  0.00    +0.000 OA
ATOM     13  H   UNL     1      -0.927  12.663  17.615  0.00  0.00    +0.000 HD
ENDBRANCH  10  12
ENDBRANCH   9  10
ENDBRANCH   8   9
ENDBRANCH   5   8
ENDBRANCH   1   2
BRANCH   1  14
ATOM     14  C   UNL     1       4.434   6.577  17.226  0.00  0.00    +0.000 C 
BRANCH  14  15
ATOM     15  C   UNL     1       4.853   5.260  16.579  0.00  0.00    +0.000 C 
BRANCH  15  16
ATOM     16  C   UNL     1       5.248   4.249  17.650  0.00  0.00    +0.000 C 
BRANCH  16  17
ATOM     17  O   UNL     1       4.414   3.097  17.545  0.00  0.00    +0.000 OA
BRANCH  17  23
ATOM     18  C   UNL     1       2.001   2.455  21.788  0.00  0.00    +0.000 C 
ATOM     19  C   UNL     1       2.031   2.804  20.323  0.00  0.00    +0.000 A 
ATOM     20  C   UNL     1       0.832   3.168  19.695  0.00  0.00    +0.000 A 
ATOM     21  C   UNL     1       0.816   3.509  18.348  0.00  0.00    +0.000 A 
ATOM     22  C   UNL     1       1.998   3.495  17.611  0.00  0.00    +0.000 A 
ATOM     23  C   UNL     1       3.211   3.131  18.209  0.00  0.00    +0.000 A 
ATOM     24  C   UNL     1       3.234   2.774  19.575  0.00  0.00    +0.000 A 
ATOM     25  C   UNL     1       4.519   2.358  20.246  0.00  0.00    +0.000 C 
ENDBRANCH  17  23
ENDBRANCH  16  17
ENDBRANCH  15  16
ENDBRANCH  14  15
ENDBRANCH   1  14
TORSDOF 10
ENDMDL
MODEL 4
REMARK VINA RESULT:      -6.8      1.161      1.753
REMARK  Name = 
REMARK  12 active torsions:
REMARK  status: ('A' for Active; 'I' for Inactive)
REMARK    1  A    between atoms: C_1  and  C_2
REMARK    2  A    between atoms: C_6  and  O_7
REMARK    3  A    between atoms: O_7  and  C_8
REMARK    4  A    between atoms: C_8  and  C_9
REMARK    5  A    between atoms: C_9  and  C_10
REMARK    6  A    between atoms: C_10  and  O_11
REMARK    7  A    between atoms: O_11  and  C_12
REMARK    8  A    between atoms: C_15  and  S_16
REMARK    9  A    between atoms: S_16  and  C_17
REMARK   10  A    between atoms: C_17  and  C_18
REMARK   11  A    between atoms: C_18  and  O_20
REMARK   12  A    between atoms: C_23  and  C_24
REMARK                            x       y       z     vdW  Elec       q    Type
REMARK                         _______ _______ _______ _____ _____    ______ ____
ROOT
ATOM      1  O   UNL     1       7.105   7.211  16.605  0.00  0.00    +0.000 OA
ENDROOT
BRANCH   1   2
ATOM      2  C   UNL     1       6.179   6.207  16.713  0.00  0.00    +0.000 A 
ATOM      3  C   UNL     1       4.930   6.588  17.206  0.00  0.00    +0.000 A 
ATOM      4  C   UNL     1       3.905   5.648  17.366  0.00  0.00    +0.000 A 
ATOM      5  C   UNL     1       4.109   4.316  16.998  0.00  0.00    +0.000 A 
ATOM      6  C   UNL     1       5.357   3.937  16.496  0.00  0.00    +0.000 A 
ATOM      7  C   UNL     1       6.385   4.877  16.349  0.00  0.00    +0.000 A 
BRANCH   5   8
ATOM      8  S   UNL     1       2.869   3.062  17.256  0.00  0.00    +0.000 S 
BRANCH   8   9
ATOM      9  C   UNL     1       2.380   3.381  18.996  0.00  0.00    +0.000 C 
BRANCH   9  10
ATOM     10  C   UNL     1       0.960   2.919  19.275  0.00  0.00    +0.000 C 
ATOM     11  O   UNL     1       0.319   2.234  18.486  0.00  0.00    +0.000 OA
BRANCH  10  12
ATOM     12  O   UNL     1       0.431   3.321  20.452  0.00  0.00    +0.000 OA
ATOM     13  H   UNL     1      -0.498   3.615  20.342  0.00  0.00    +0.000 HD
ENDBRANCH  10  12
ENDBRANCH   9  10
ENDBRANCH   8   9
ENDBRANCH   5   8
ENDBRANCH   1   2
BRANCH   1  14
ATOM     14  C   UNL     1       7.020   8.234  17.600  0.00  0.00    +0.000 C 
BRANCH  14  15
ATOM     15  C   UNL     1       8.397   8.454  18.219  0.00  0.00    +0.000 C 
BRANCH  15  16
ATOM     16  C   UNL     1       8.708   9.945  18.298  0.00  0.00    +0.000 C 
BRANCH  16  17
ATOM     17  O   UNL     1       9.514  10.202  19.446  0.00  0.00    +0.000 OA
BRANCH  17  23
ATOM     18  C   UNL     1      10.322  14.513  21.682  0.00  0.00    +0.000 C 
ATOM     19  C   UNL     1      10.602  13.519  20.586  0.00  0.00    +0.000 A 
ATOM     20  C   UNL     1      11.585  13.826  19.635  0.00  0.00    +0.000 A 
ATOM     21  C   UNL     1      11.885  12.932  18.615  0.00  0.00    +0.000 A 
ATOM     22  C   UNL     1      11.209  11.716  18.532  0.00  0.00    +0.000 A 
ATOM     23  C   UNL     1      10.218  11.382  19.465  0.00  0.00    +0.000 A 
ATOM     24  C   UNL     1       9.902  12.290  20.499  0.00  0.00    +0.000 A 
ATOM     25  C   UNL     1       8.827  11.971  21.509  0.00  0.00    +0.000 C 
ENDBRANCH  17  23
ENDBRANCH  16  17
ENDBRANCH  15  16
ENDBRANCH  14  15
ENDBRANCH   1  14
TORSDOF 10
ENDMDL
MODEL 5
REMARK VINA RESULT:      -6.7      1.569      2.355
REMARK  Name = 
REMARK  12 active torsions:
REMARK  status: ('A' for Active; 'I' for Inactive)
REMARK    1  A    between atoms: C_1  and  C_2
REMARK    2  A    between atoms: C_6  and  O_7
REMARK    3  A    between atoms: O_7  and  C_8
REMARK    4  A    between atoms: C_8  and  C_9
REMARK    5  A    between atoms: C_9  and  C_10
REMARK    6  A    between atoms: C_10  and  O_11
REMARK    7  A    between atoms: O_11  and  C_12
REMARK    8  A    between atoms: C_15  and  S_16
REMARK    9  A    between atoms: S_16  and  C_17
REMARK   10  A    between atoms: C_17  and  C_18
REMARK   11  A    between atoms: C_18  and  O_20
REMARK   12  A    between atoms: C_23  and  C_24
REMARK                            x       y       z     vdW  Elec       q    Type
REMARK                         _______ _______ _______ _____ _____    ______ ____
ROOT
ATOM      1  O   UNL     1       7.506   6.723  16.767  0.00  0.00    +0.000 OA
ENDROOT
BRANCH   1   2
ATOM      2  C   UNL     1       6.353   6.001  16.931  0.00  0.00    +0.000 A 
ATOM      3  C   UNL     1       6.353   4.728  16.357  0.00  0.00    +0.000 A 
ATOM      4  C   UNL     1       5.228   3.899  16.455  0.00  0.00    +0.000 A 
ATOM      5  C   UNL     1       4.102   4.322  17.161  0.00  0.00    +0.000 A 
ATOM      6  C   UNL     1       4.107   5.593  17.744  0.00  0.00    +0.000 A 
ATOM      7  C   UNL     1       5.227   6.426  17.634  0.00  0.00    +0.000 A 
BRANCH   5   8
ATOM      8  S   UNL     1       2.614   3.343  17.248  0.00  0.00    +0.000 S 
BRANCH   8   9
ATOM      9  C   UNL     1       2.682   2.723  18.974  0.00  0.00    +0.000 C 
BRANCH   9  10
ATOM     10  C   UNL     1       3.908   1.857  19.213  0.00  0.00    +0.000 C 
ATOM     11  O   UNL     1       4.757   2.130  20.054  0.00  0.00    +0.000 OA
BRANCH  10  12
ATOM     12  O   UNL     1       4.016   0.762  18.429  0.00  0.00    +0.000 OA
ATOM     13  H   UNL     1       4.549   0.064  18.866  0.00  0.00    +0.000 HD
ENDBRANCH  10  12
ENDBRANCH   9  10
ENDBRANCH   8   9
ENDBRANCH   5   8
ENDBRANCH   1   2
BRANCH   1  14
ATOM     14  C   UNL     1       7.935   7.465  17.911  0.00  0.00    +0.000 C 
BRANCH  14  15
ATOM     15  C   UNL     1       8.301   8.884  17.487  0.00  0.00    +0.000 C 
BRANCH  15  16
ATOM     16  C   UNL     1       8.376   9.796  18.707  0.00  0.00    +0.000 C 
BRANCH  16  17
ATOM     17  O   UNL     1       9.732  10.177  18.931  0.00  0.00    +0.000 OA
BRANCH  17  23
ATOM     18  C   UNL     1      11.913  14.580  19.240  0.00  0.00    +0.000 C 
ATOM     19  C   UNL     1      11.043  13.493  19.813  0.00  0.00    +0.000 A 
ATOM     20  C   UNL     1      10.470  13.686  21.078  0.00  0.00    +0.000 A 
ATOM     21  C   UNL     1       9.649  12.714  21.637  0.00  0.00    +0.000 A 
ATOM     22  C   UNL     1       9.387  11.537  20.940  0.00  0.00    +0.000 A 
ATOM     23  C   UNL     1       9.948  11.312  19.676  0.00  0.00    +0.000 A 
ATOM     24  C   UNL     1      10.790  12.291  19.105  0.00  0.00    +0.000 A 
ATOM     25  C   UNL     1      11.427  12.074  17.754  0.00  0.00    +0.000 C 
ENDBRANCH  17  23
ENDBRANCH  16  17
ENDBRANCH  15  16
ENDBRANCH  14  15
ENDBRANCH   1  14
TORSDOF 10
ENDMDL
MODEL 6
REMARK VINA RESULT:      -6.7      1.081      2.192
REMARK  Name = 
REMARK  12 active torsions:
REMARK  status: ('A' for Active; 'I' for Inactive)
REMARK    1  A    between atoms: C_1  and  C_2
REMARK    2  A    between atoms: C_6  and  O_7
REMARK    3  A    between atoms: O_7  and  C_8
REMARK    4  A    between atoms: C_8  and  C_9
REMARK    5  A    between atoms: C_9  and  C_10
REMARK    6  A    between atoms: C_10  and  O_11
REMARK    7  A    between atoms: O_11  and  C_12
REMARK    8  A    between atoms: C_15  and  S_16
REMARK    9  A    between atoms: S_16  and  C_17
REMARK   10  A    between atoms: C_17  and  C_18
REMARK   11  A    between atoms: C_18  and  O_20
REMARK   12  A    between atoms: C_23  and  C_24
REMARK                            x       y       z     vdW  Elec       q    Type
REMARK                         _______ _______ _______ _____ _____    ______ ____
ROOT
ATOM      1  O   UNL     1       6.630   7.069  16.551  0.00  0.00    +0.000 OA
ENDROOT
BRANCH   1   2
ATOM      2  C   UNL     1       5.697   6.109  16.842  0.00  0.00    +0.000 A 
ATOM      3  C   UNL     1       4.536   6.568  17.468  0.00  0.00    +0.000 A 
ATOM      4  C   UNL     1       3.513   5.679  17.820  0.00  0.00    +0.000 A 
ATOM      5  C   UNL     1       3.627   4.321  17.516  0.00  0.00    +0.000 A 
ATOM      6  C   UNL     1       4.785   3.864  16.882  0.00  0.00    +0.000 A 
ATOM      7  C   UNL     1       5.813   4.753  16.542  0.00  0.00    +0.000 A 
BRANCH   5   8
ATOM      8  S   UNL     1       2.394   3.133  18.014  0.00  0.00    +0.000 S 
BRANCH   8   9
ATOM      9  C   UNL     1       2.193   3.534  19.794  0.00  0.00    +0.000 C 
BRANCH   9  10
ATOM     10  C   UNL     1       3.148   2.733  20.662  0.00  0.00    +0.000 C 
ATOM     11  O   UNL     1       4.199   2.267  20.236  0.00  0.00    +0.000 OA
BRANCH  10  12
ATOM     12  O   UNL     1       2.763   2.550  21.945  0.00  0.00    +0.000 OA
ATOM     13  H   UNL     1       1.852   2.883  22.092  0.00  0.00    +0.000 HD
ENDBRANCH  10  12
ENDBRANCH   9  10
ENDBRANCH   8   9
ENDBRANCH   5   8
ENDBRANCH   1   2
BRANCH   1  14
ATOM     14  C   UNL     1       6.714   8.149  17.484  0.00  0.00    +0.000 C 
BRANCH  14  15
ATOM     15  C   UNL     1       8.154   8.290  17.967  0.00  0.00    +0.000 C 
BRANCH  15  16
ATOM     16  C   UNL     1       8.470   9.753  18.260  0.00  0.00    +0.000 C 
BRANCH  16  17
ATOM     17  O   UNL     1       9.621   9.831  19.098  0.00  0.00    +0.000 OA
BRANCH  17  23
ATOM     18  C   UNL     1      11.822  14.220  19.468  0.00  0.00    +0.000 C 
ATOM     19  C   UNL     1      10.894  13.157  19.995  0.00  0.00    +0.000 A 
ATOM     20  C   UNL     1      10.220  13.391  21.202  0.00  0.00    +0.000 A 
ATOM     21  C   UNL     1       9.345  12.444  21.717  0.00  0.00    +0.000 A 
ATOM     22  C   UNL     1       9.127  11.250  21.033  0.00  0.00    +0.000 A 
ATOM     23  C   UNL     1       9.789  10.985  19.827  0.00  0.00    +0.000 A 
ATOM     24  C   UNL     1      10.687  11.939  19.301  0.00  0.00    +0.000 A 
ATOM     25  C   UNL     1      11.431  11.677  18.015  0.00  0.00    +0.000 C 
ENDBRANCH  17  23
ENDBRANCH  16  17
ENDBRANCH  15  16
ENDBRANCH  14  15
ENDBRANCH   1  14
TORSDOF 10
ENDMDL
MODEL 7
REMARK VINA RESULT:      -6.7      5.680      8.879
REMARK  Name = 
REMARK  12 active torsions:
REMARK  status: ('A' for Active; 'I' for Inactive)
REMARK    1  A    between atoms: C_1  and  C_2
REMARK    2  A    between atoms: C_6  and  O_7
REMARK    3  A    between atoms: O_7  and  C_8
REMARK    4  A    between atoms: C_8  and  C_9
REMARK    5  A    between atoms: C_9  and  C_10
REMARK    6  A    between atoms: C_10  and  O_11
REMARK    7  A    between atoms: O_11  and  C_12
REMARK    8  A    between atoms: C_15  and  S_16
REMARK    9  A    between atoms: S_16  and  C_17
REMARK   10  A    between atoms: C_17  and  C_18
REMARK   11  A    between atoms: C_18  and  O_20
REMARK   12  A    between atoms: C_23  and  C_24
REMARK                            x       y       z     vdW  Elec       q    Type
REMARK                         _______ _______ _______ _____ _____    ______ ____
ROOT
ATOM      1  O   UNL     1       3.822   6.344  18.256  0.00  0.00    +0.000 OA
ENDROOT
BRANCH   1   2
ATOM      2  C   UNL     1       2.900   7.298  18.597  0.00  0.00    +0.000 A 
ATOM      3  C   UNL     1       2.369   7.191  19.884  0.00  0.00    +0.000 A 
ATOM      4  C   UNL     1       1.413   8.105  20.344  0.00  0.00    +0.000 A 
ATOM      5  C   UNL     1       1.003   9.162  19.529  0.00  0.00    +0.000 A 
ATOM      6  C   UNL     1       1.542   9.274  18.244  0.00  0.00    +0.000 A 
ATOM      7  C   UNL     1       2.487   8.351  17.781  0.00  0.00    +0.000 A 
BRANCH   5   8
ATOM      8  S   UNL     1      -0.269  10.306  20.030  0.00  0.00    +0.000 S 
BRANCH   8   9
ATOM      9  C   UNL     1      -0.891  10.898  18.408  0.00  0.00    +0.000 C 
BRANCH   9  10
ATOM     10  C   UNL     1      -1.246  12.375  18.447  0.00  0.00    +0.000 C 
ATOM     11  O   UNL     1      -0.523  13.242  17.971  0.00  0.00    +0.000 OA
BRANCH  10  12
ATOM     12  O   UNL     1      -2.414  12.683  19.054  0.00  0.00    +0.000 OA
ATOM     13  H   UNL     1      -2.273  12.915  19.996  0.00  0.00    +0.000 HD
ENDBRANCH  10  12
ENDBRANCH   9  10
ENDBRANCH   8   9
ENDBRANCH   5   8
ENDBRANCH   1   2
BRANCH   1  14
ATOM     14  C   UNL     1       4.536   6.585  17.042  0.00  0.00    +0.000 C 
BRANCH  14  15
ATOM     15  C   UNL     1       4.904   5.252  16.397  0.00  0.00    +0.000 C 
BRANCH  15  16
ATOM     16  C   UNL     1       5.310   4.244  17.467  0.00  0.00    +0.000 C 
BRANCH  16  17
ATOM     17  O   UNL     1       4.433   3.121  17.418  0.00  0.00    +0.000 OA
BRANCH  17  23
ATOM     18  C   UNL     1       2.095   2.580  21.717  0.00  0.00    +0.000 C 
ATOM     19  C   UNL     1       2.107   2.939  20.254  0.00  0.00    +0.000 A 
ATOM     20  C   UNL     1       0.916   3.376  19.659  0.00  0.00    +0.000 A 
ATOM     21  C   UNL     1       0.886   3.730  18.316  0.00  0.00    +0.000 A 
ATOM     22  C   UNL     1       2.046   3.655  17.548  0.00  0.00    +0.000 A 
ATOM     23  C   UNL     1       3.251   3.218  18.113  0.00  0.00    +0.000 A 
ATOM     24  C   UNL     1       3.288   2.848  19.475  0.00  0.00    +0.000 A 
ATOM     25  C   UNL     1       4.564   2.354  20.110  0.00  0.00    +0.000 C 
ENDBRANCH  17  23
ENDBRANCH  16  17
ENDBRANCH  15  16
ENDBRANCH  14  15
ENDBRANCH   1  14
TORSDOF 10
ENDMDL
MODEL 8
REMARK VINA RESULT:      -6.7      3.717      7.703
REMARK  Name = 
REMARK  12 active torsions:
REMARK  status: ('A' for Active; 'I' for Inactive)
REMARK    1  A    between atoms: C_1  and  C_2
REMARK    2  A    between atoms: C_6  and  O_7
REMARK    3  A    between atoms: O_7  and  C_8
REMARK    4  A    between atoms: C_8  and  C_9
REMARK    5  A    between atoms: C_9  and  C_10
REMARK    6  A    between atoms: C_10  and  O_11
REMARK    7  A    between atoms: O_11  and  C_12
REMARK    8  A    between atoms: C_15  and  S_16
REMARK    9  A    between atoms: S_16  and  C_17
REMARK   10  A    between atoms: C_17  and  C_18
REMARK   11  A    between atoms: C_18  and  O_20
REMARK   12  A    between atoms: C_23  and  C_24
REMARK                            x       y       z     vdW  Elec       q    Type
REMARK                         _______ _______ _______ _____ _____    ______ ____
ROOT
ATOM      1  O   UNL     1       2.492   1.939  19.573  0.00  0.00    +0.000 OA
ENDROOT
BRANCH   1   2
ATOM      2  C   UNL     1       3.322   2.724  18.817  0.00  0.00    +0.000 A 
ATOM      3  C   UNL     1       4.492   3.149  19.450  0.00  0.00    +0.000 A 
ATOM      4  C   UNL     1       5.415   3.961  18.780  0.00  0.00    +0.000 A 
ATOM      5  C   UNL     1       5.194   4.329  17.452  0.00  0.00    +0.000 A 
ATOM      6  C   UNL     1       4.027   3.895  16.816  0.00  0.00    +0.000 A 
ATOM      7  C   UNL     1       3.098   3.094  17.492  0.00  0.00    +0.000 A 
BRANCH   5   8
ATOM      8  S   UNL     1       6.293   5.427  16.577  0.00  0.00    +0.000 S 
BRANCH   8   9
ATOM      9  C   UNL     1       7.477   5.891  17.900  0.00  0.00    +0.000 C 
BRANCH   9  10
ATOM     10  C   UNL     1       7.774   7.381  17.892  0.00  0.00    +0.000 C 
ATOM     11  O   UNL     1       8.544   7.907  18.687  0.00  0.00    +0.000 OA
BRANCH  10  12
ATOM     12  O   UNL     1       7.124   8.105  16.954  0.00  0.00    +0.000 OA
ATOM     13  H   UNL     1       6.567   8.800  17.365  0.00  0.00    +0.000 HD
ENDBRANCH  10  12
ENDBRANCH   9  10
ENDBRANCH   8   9
ENDBRANCH   5   8
ENDBRANCH   1   2
BRANCH   1  14
ATOM     14  C   UNL     1       1.214   2.504  19.871  0.00  0.00    +0.000 C 
BRANCH  14  15
ATOM     15  C   UNL     1       1.373   3.583  20.938  0.00  0.00    +0.000 C 
BRANCH  15  16
ATOM     16  C   UNL     1       0.937   4.937  20.388  0.00  0.00    +0.000 C 
BRANCH  16  17
ATOM     17  O   UNL     1       1.854   5.941  20.816  0.00  0.00    +0.000 OA
BRANCH  17  23
ATOM     18  C   UNL     1       2.022   9.791  17.752  0.00  0.00    +0.000 C 
ATOM     19  C   UNL     1       1.603   9.150  19.048  0.00  0.00    +0.000 A 
ATOM     20  C   UNL     1       0.856   9.908  19.962  0.00  0.00    +0.000 A 
ATOM     21  C   UNL     1       0.437   9.352  21.164  0.00  0.00    +0.000 A 
ATOM     22  C   UNL     1       0.756   8.031  21.471  0.00  0.00    +0.000 A 
ATOM     23  C   UNL     1       1.505   7.250  20.581  0.00  0.00    +0.000 A 
ATOM     24  C   UNL     1       1.942   7.810  19.361  0.00  0.00    +0.000 A 
ATOM     25  C   UNL     1       2.766   7.004  18.388  0.00  0.00    +0.000 C 
ENDBRANCH  17  23
ENDBRANCH  16  17
ENDBRANCH  15  16
ENDBRANCH  14  15
ENDBRANCH   1  14
TORSDOF 10
ENDMDL
MODEL 9
REMARK VINA RESULT:      -6.7      1.461      1.998
REMARK  Name = 
REMARK  12 active torsions:
REMARK  status: ('A' for Active; 'I' for Inactive)
REMARK    1  A    between atoms: C_1  and  C_2
REMARK    2  A    between atoms: C_6  and  O_7
REMARK    3  A    between atoms: O_7  and  C_8
REMARK    4  A    between atoms: C_8  and  C_9
REMARK    5  A    between atoms: C_9  and  C_10
REMARK    6  A    between atoms: C_10  and  O_11
REMARK    7  A    between atoms: O_11  and  C_12
REMARK    8  A    between atoms: C_15  and  S_16
REMARK    9  A    between atoms: S_16  and  C_17
REMARK   10  A    between atoms: C_17  and  C_18
REMARK   11  A    between atoms: C_18  and  O_20
REMARK   12  A    between atoms: C_23  and  C_24
REMARK                            x       y       z     vdW  Elec       q    Type
REMARK                         _______ _______ _______ _____ _____    ______ ____
ROOT
ATOM      1  O   UNL     1       7.481   6.166  17.038  0.00  0.00    +0.000 OA
ENDROOT
BRANCH   1   2
ATOM      2  C   UNL     1       6.398   5.338  17.174  0.00  0.00    +0.000 A 
ATOM      3  C   UNL     1       5.988   5.093  18.486  0.00  0.00    +0.000 A 
ATOM      4  C   UNL     1       4.896   4.258  18.751  0.00  0.00    +0.000 A 
ATOM      5  C   UNL     1       4.178   3.686  17.700  0.00  0.00    +0.000 A 
ATOM      6  C   UNL     1       4.583   3.939  16.386  0.00  0.00    +0.000 A 
ATOM      7  C   UNL     1       5.684   4.764  16.124  0.00  0.00    +0.000 A 
BRANCH   5   8
ATOM      8  S   UNL     1       2.832   2.550  17.980  0.00  0.00    +0.000 S 
BRANCH   8   9
ATOM      9  C   UNL     1       2.502   2.806  19.768  0.00  0.00    +0.000 C 
BRANCH   9  10
ATOM     10  C   UNL     1       1.125   3.403  20.006  0.00  0.00    +0.000 C 
ATOM     11  O   UNL     1       0.957   4.462  20.598  0.00  0.00    +0.000 OA
BRANCH  10  12
ATOM     12  O   UNL     1       0.083   2.685  19.532  0.00  0.00    +0.000 OA
ATOM     13  H   UNL     1       0.351   1.765  19.325  0.00  0.00    +0.000 HD
ENDBRANCH  10  12
ENDBRANCH   9  10
ENDBRANCH   8   9
ENDBRANCH   5   8
ENDBRANCH   1   2
BRANCH   1  14
ATOM     14  C   UNL     1       7.796   6.960  18.184  0.00  0.00    +0.000 C 
BRANCH  14  15
ATOM     15  C   UNL     1       7.808   8.435  17.792  0.00  0.00    +0.000 C 
BRANCH  15  16
ATOM     16  C   UNL     1       8.941   9.162  18.508  0.00  0.00    +0.000 C 
BRANCH  16  17
ATOM     17  O   UNL     1       8.481  10.436  18.954  0.00  0.00    +0.000 OA
BRANCH  17  23
ATOM     18  C   UNL     1      10.171  14.896  17.732  0.00  0.00    +0.000 C 
ATOM     19  C   UNL     1      10.256  13.623  18.532  0.00  0.00    +0.000 A 
ATOM     20  C   UNL     1      11.292  13.485  19.468  0.00  0.00    +0.000 A 
ATOM     21  C   UNL     1      11.400  12.333  20.237  0.00  0.00    +0.000 A 
ATOM     22  C   UNL     1      10.473  11.303  20.085  0.00  0.00    +0.000 A 
ATOM     23  C   UNL     1       9.431  11.409  19.156  0.00  0.00    +0.000 A 
ATOM     24  C   UNL     1       9.319  12.573  18.364  0.00  0.00    +0.000 A 
ATOM     25  C   UNL     1       8.220  12.712  17.340  0.00  0.00    +0.000 C 
ENDBRANCH  17  23
ENDBRANCH  16  17
ENDBRANCH  15  16
ENDBRANCH  14  15
ENDBRANCH   1  14
TORSDOF 10
ENDMDL
