MODEL 1
REMARK VINA RESULT:      -7.0      0.000      0.000
REMARK  Name = 
REMARK  4 active torsions:
REMARK  status: ('A' for Active; 'I' for Inactive)
REMARK    1  A    between atoms: C_2  and  C_3
REMARK    2  A    between atoms: C_7  and  C_8
REMARK    3  A    between atoms: C_8  and  N_9
REMARK    4  A    between atoms: C_19  and  N_20
REMARK                            x       y       z     vdW  Elec       q    Type
REMARK                         _______ _______ _______ _____ _____    ______ ____
ROOT
ATOM      1  O   UNL     1       1.408   9.687  22.123  0.00  0.00    +0.000 OA
ATOM      2  C   UNL     1       0.812   9.526  21.055  0.00  0.00    +0.000 C 
ATOM      3  N   UNL     1      -0.358  10.232  20.730  0.00  0.00    +0.000 N 
ATOM      4  C   UNL     1      -1.202   9.996  19.563  0.00  0.00    +0.000 C 
ATOM      5  C   UNL     1      -1.031  11.054  18.479  0.00  0.00    +0.000 C 
ATOM      6  C   UNL     1      -1.776  12.359  18.746  0.00  0.00    +0.000 C 
ATOM      7  C   UNL     1      -1.367  13.175  20.001  0.00  0.00    +0.000 C 
ATOM      8  C   UNL     1      -1.733  12.352  21.263  0.00  0.00    +0.000 C 
ATOM      9  C   UNL     1      -0.798  11.222  21.708  0.00  0.00    +0.000 C 
ENDROOT
BRANCH   2  10
ATOM     10  C   UNL     1       1.443   8.576  20.108  0.00  0.00    +0.000 A 
ATOM     11  C   UNL     1       1.731   9.052  18.821  0.00  0.00    +0.000 A 
ATOM     12  C   UNL     1       2.374   8.235  17.889  0.00  0.00    +0.000 A 
ATOM     13  C   UNL     1       2.772   6.949  18.249  0.00  0.00    +0.000 A 
ATOM     14  C   UNL     1       2.579   6.487  19.562  0.00  0.00    +0.000 A 
ATOM     15  C   UNL     1       1.907   7.308  20.488  0.00  0.00    +0.000 A 
BRANCH  14  16
ATOM     16  C   UNL     1       3.102   5.132  19.969  0.00  0.00    +0.000 C 
BRANCH  16  17
ATOM     17  N   UNL     1       2.612   4.084  19.096  0.00  0.00    +0.000 N 
ATOM     18  C   UNL     1       3.328   3.286  18.253  0.00  0.00    +0.000 A 
ATOM     19  C   UNL     1       2.372   2.494  17.665  0.00  0.00    +0.000 A 
ATOM     20  N   UNL     1       1.146   2.794  18.187  0.00  0.00    +0.000 NA
ATOM     21  N   UNL     1       1.304   3.763  19.079  0.00  0.00    +0.000 NA
ENDBRANCH  16  17
ENDBRANCH  14  16
ENDBRANCH   2  10
BRANCH   7  22
ATOM     22  N   UNL     1       0.012  13.708  19.942  0.00  0.00    +0.000 NA
ATOM     23  C   UNL     1       0.346  14.667  21.017  0.00  0.00    +0.000 C 
ATOM     24  C   UNL     1      -0.135  16.016  20.522  0.00  0.00    +0.000 C 
ATOM     25  C   UNL     1       0.159  15.968  19.037  0.00  0.00    +0.000 C 
ATOM     26  C   UNL     1       0.284  14.481  18.706  0.00  0.00    +0.000 C 
ENDBRANCH   7  22
TORSDOF 4
ENDMDL
MODEL 2
REMARK VINA RESULT:      -6.9      1.621      1.852
REMARK  Name = 
REMARK  4 active torsions:
REMARK  status: ('A' for Active; 'I' for Inactive)
REMARK    1  A    between atoms: C_2  and  C_3
REMARK    2  A    between atoms: C_7  and  C_8
REMARK    3  A    between atoms: C_8  and  N_9
REMARK    4  A    between atoms: C_19  and  N_20
REMARK                            x       y       z     vdW  Elec       q    Type
REMARK                         _______ _______ _______ _____ _____    ______ ____
ROOT
ATOM      1  O   UNL     1       1.823   8.848  22.322  0.00  0.00    +0.000 OA
ATOM      2  C   UNL     1       1.224   8.794  21.245  0.00  0.00    +0.000 C 
ATOM      3  N   UNL     1       0.336   9.798  20.823  0.00  0.00    +0.000 N 
ATOM      4  C   UNL     1      -0.519   9.741  19.642  0.00  0.00    +0.000 C 
ATOM      5  C   UNL     1      -0.010  10.606  18.495  0.00  0.00    +0.000 C 
ATOM      6  C   UNL     1      -0.319  12.094  18.640  0.00  0.00    +0.000 C 
ATOM      7  C   UNL     1       0.301  12.841  19.850  0.00  0.00    +0.000 C 
ATOM      8  C   UNL     1      -0.324  12.273  21.150  0.00  0.00    +0.000 C 
ATOM      9  C   UNL     1       0.208  10.949  21.712  0.00  0.00    +0.000 C 
ENDROOT
BRANCH   2  10
ATOM     10  C   UNL     1       1.546   7.624  20.393  0.00  0.00    +0.000 A 
ATOM     11  C   UNL     1       2.240   7.873  19.200  0.00  0.00    +0.000 A 
ATOM     12  C   UNL     1       2.627   6.818  18.371  0.00  0.00    +0.000 A 
ATOM     13  C   UNL     1       2.360   5.504  18.747  0.00  0.00    +0.000 A 
ATOM     14  C   UNL     1       1.751   5.228  19.982  0.00  0.00    +0.000 A 
ATOM     15  C   UNL     1       1.341   6.299  20.801  0.00  0.00    +0.000 A 
BRANCH  14  16
ATOM     16  C   UNL     1       1.557   3.799  20.425  0.00  0.00    +0.000 C 
BRANCH  16  17
ATOM     17  N   UNL     1       2.577   2.926  19.879  0.00  0.00    +0.000 N 
ATOM     18  C   UNL     1       2.490   2.103  18.796  0.00  0.00    +0.000 A 
ATOM     19  C   UNL     1       3.726   1.505  18.742  0.00  0.00    +0.000 A 
ATOM     20  N   UNL     1       4.518   2.003  19.737  0.00  0.00    +0.000 NA
ATOM     21  N   UNL     1       3.808   2.890  20.423  0.00  0.00    +0.000 NA
ENDBRANCH  16  17
ENDBRANCH  14  16
ENDBRANCH   2  10
BRANCH   7  22
ATOM     22  N   UNL     1       1.778  12.918  19.810  0.00  0.00    +0.000 NA
ATOM     23  C   UNL     1       2.360  13.985  20.651  0.00  0.00    +0.000 C 
ATOM     24  C   UNL     1       2.331  15.238  19.798  0.00  0.00    +0.000 C 
ATOM     25  C   UNL     1       2.636  14.719  18.408  0.00  0.00    +0.000 C 
ATOM     26  C   UNL     1       2.308  13.228  18.460  0.00  0.00    +0.000 C 
ENDBRANCH   7  22
TORSDOF 4
ENDMDL
MODEL 3
REMARK VINA RESULT:      -6.8      0.991      1.076
REMARK  Name = 
REMARK  4 active torsions:
REMARK  status: ('A' for Active; 'I' for Inactive)
REMARK    1  A    between atoms: C_2  and  C_3
REMARK    2  A    between atoms: C_7  and  C_8
REMARK    3  A    between atoms: C_8  and  N_9
REMARK    4  A    between atoms: C_19  and  N_20
REMARK                            x       y       z     vdW  Elec       q    Type
REMARK                         _______ _______ _______ _____ _____    ______ ____
ROOT
ATOM      1  O   UNL     1       1.404   9.545  22.158  0.00  0.00    +0.000 OA
ATOM      2  C   UNL     1       0.853   9.515  21.055  0.00  0.00    +0.000 C 
ATOM      3  N   UNL     1      -0.278  10.292  20.755  0.00  0.00    +0.000 N 
ATOM      4  C   UNL     1      -1.075  10.207  19.535  0.00  0.00    +0.000 C 
ATOM      5  C   UNL     1      -0.821  11.363  18.575  0.00  0.00    +0.000 C 
ATOM      6  C   UNL     1      -1.536  12.661  18.944  0.00  0.00    +0.000 C 
ATOM      7  C   UNL     1      -1.160  13.329  20.293  0.00  0.00    +0.000 C 
ATOM      8  C   UNL     1      -1.610  12.395  21.446  0.00  0.00    +0.000 C 
ATOM      9  C   UNL     1      -0.731  11.193  21.812  0.00  0.00    +0.000 C 
ENDROOT
BRANCH   2  10
ATOM     10  C   UNL     1       1.497   8.645  20.042  0.00  0.00    +0.000 A 
ATOM     11  C   UNL     1       1.694   9.188  18.765  0.00  0.00    +0.000 A 
ATOM     12  C   UNL     1       2.342   8.450  17.772  0.00  0.00    +0.000 A 
ATOM     13  C   UNL     1       2.836   7.180  18.061  0.00  0.00    +0.000 A 
ATOM     14  C   UNL     1       2.734   6.656  19.360  0.00  0.00    +0.000 A 
ATOM     15  C   UNL     1       2.056   7.396  20.348  0.00  0.00    +0.000 A 
BRANCH  14  16
ATOM     16  C   UNL     1       3.360   5.323  19.688  0.00  0.00    +0.000 C 
BRANCH  16  17
ATOM     17  N   UNL     1       2.357   4.316  19.972  0.00  0.00    +0.000 N 
ATOM     18  C   UNL     1       1.516   3.695  19.097  0.00  0.00    +0.000 A 
ATOM     19  C   UNL     1       0.776   2.858  19.897  0.00  0.00    +0.000 A 
ATOM     20  N   UNL     1       1.209   2.958  21.188  0.00  0.00    +0.000 NA
ATOM     21  N   UNL     1       2.194   3.847  21.223  0.00  0.00    +0.000 NA
ENDBRANCH  16  17
ENDBRANCH  14  16
ENDBRANCH   2  10
BRANCH   7  22
ATOM     22  N   UNL     1       0.236  13.815  20.348  0.00  0.00    +0.000 NA
ATOM     23  C   UNL     1       0.539  14.679  21.509  0.00  0.00    +0.000 C 
ATOM     24  C   UNL     1       0.130  16.078  21.094  0.00  0.00    +0.000 C 
ATOM     25  C   UNL     1       0.505  16.130  19.627  0.00  0.00    +0.000 C 
ATOM     26  C   UNL     1       0.601  14.668  19.191  0.00  0.00    +0.000 C 
ENDBRANCH   7  22
TORSDOF 4
ENDMDL
MODEL 4
REMARK VINA RESULT:      -6.8      1.829      2.946
REMARK  Name = 
REMARK  4 active torsions:
REMARK  status: ('A' for Active; 'I' for Inactive)
REMARK    1  A    between atoms: C_2  and  C_3
REMARK    2  A    between atoms: C_7  and  C_8
REMARK    3  A    between atoms: C_8  and  N_9
REMARK    4  A    between atoms: C_19  and  N_20
REMARK                            x       y       z     vdW  Elec       q    Type
REMARK                         _______ _______ _______ _____ _____    ______ ____
ROOT
ATOM      1  O   UNL     1      -0.975  10.473  18.118  0.00  0.00    +0.000 OA
ATOM      2  C   UNL     1       0.121  10.740  18.618  0.00  0.00    +0.000 C 
ATOM      3  N   UNL     1       0.586  12.058  18.755  0.00  0.00    +0.000 N 
ATOM      4  C   UNL     1       1.921  12.452  19.194  0.00  0.00    +0.000 C 
ATOM      5  C   UNL     1       1.948  12.976  20.625  0.00  0.00    +0.000 C 
ATOM      6  C   UNL     1       1.478  14.421  20.779  0.00  0.00    +0.000 C 
ATOM      7  C   UNL     1       0.012  14.744  20.389  0.00  0.00    +0.000 C 
ATOM      8  C   UNL     1      -0.149  14.532  18.861  0.00  0.00    +0.000 C 
ATOM      9  C   UNL     1      -0.334  13.107  18.326  0.00  0.00    +0.000 C 
ENDROOT
BRANCH   2  10
ATOM     10  C   UNL     1       0.894   9.579  19.119  0.00  0.00    +0.000 A 
ATOM     11  C   UNL     1       0.667   9.184  20.445  0.00  0.00    +0.000 A 
ATOM     12  C   UNL     1       1.317   8.067  20.974  0.00  0.00    +0.000 A 
ATOM     13  C   UNL     1       2.167   7.312  20.170  0.00  0.00    +0.000 A 
ATOM     14  C   UNL     1       2.335   7.635  18.813  0.00  0.00    +0.000 A 
ATOM     15  C   UNL     1       1.696   8.778  18.295  0.00  0.00    +0.000 A 
BRANCH  14  16
ATOM     16  C   UNL     1       3.179   6.753  17.927  0.00  0.00    +0.000 C 
BRANCH  16  17
ATOM     17  N   UNL     1       2.796   5.359  18.038  0.00  0.00    +0.000 N 
ATOM     18  C   UNL     1       3.507   4.332  18.584  0.00  0.00    +0.000 A 
ATOM     19  C   UNL     1       2.689   3.242  18.409  0.00  0.00    +0.000 A 
ATOM     20  N   UNL     1       1.521   3.637  17.822  0.00  0.00    +0.000 NA
ATOM     21  N   UNL     1       1.589   4.945  17.610  0.00  0.00    +0.000 NA
ENDBRANCH  16  17
ENDBRANCH  14  16
ENDBRANCH   2  10
BRANCH   7  22
ATOM     22  N   UNL     1      -0.993  14.085  21.252  0.00  0.00    +0.000 NA
ATOM     23  C   UNL     1      -2.366  14.617  21.112  0.00  0.00    +0.000 C 
ATOM     24  C   UNL     1      -2.436  15.812  22.041  0.00  0.00    +0.000 C 
ATOM     25  C   UNL     1      -1.600  15.381  23.227  0.00  0.00    +0.000 C 
ATOM     26  C   UNL     1      -0.715  14.252  22.699  0.00  0.00    +0.000 C 
ENDBRANCH   7  22
TORSDOF 4
ENDMDL
MODEL 5
REMARK VINA RESULT:      -6.8      1.290      1.750
REMARK  Name = 
REMARK  4 active torsions:
REMARK  status: ('A' for Active; 'I' for Inactive)
REMARK    1  A    between atoms: C_2  and  C_3
REMARK    2  A    between atoms: C_7  and  C_8
REMARK    3  A    between atoms: C_8  and  N_9
REMARK    4  A    between atoms: C_19  and  N_20
REMARK                            x       y       z     vdW  Elec       q    Type
REMARK                         _______ _______ _______ _____ _____    ______ ____
ROOT
ATOM      1  O   UNL     1       1.501   9.732  21.999  0.00  0.00    +0.000 OA
ATOM      2  C   UNL     1       0.860   9.552  20.960  0.00  0.00    +0.000 C 
ATOM      3  N   UNL     1      -0.363  10.196  20.707  0.00  0.00    +0.000 N 
ATOM      4  C   UNL     1      -1.252   9.929  19.581  0.00  0.00    +0.000 C 
ATOM      5  C   UNL     1      -1.196  11.009  18.508  0.00  0.00    +0.000 C 
ATOM      6  C   UNL     1      -1.998  12.267  18.834  0.00  0.00    +0.000 C 
ATOM      7  C   UNL     1      -1.570  13.087  20.080  0.00  0.00    +0.000 C 
ATOM      8  C   UNL     1      -1.824  12.227  21.345  0.00  0.00    +0.000 C 
ATOM      9  C   UNL     1      -0.805  11.146  21.724  0.00  0.00    +0.000 C 
ENDROOT
BRANCH   2  10
ATOM     10  C   UNL     1       1.493   8.652  19.967  0.00  0.00    +0.000 A 
ATOM     11  C   UNL     1       1.816   9.204  18.719  0.00  0.00    +0.000 A 
ATOM     12  C   UNL     1       2.463   8.435  17.749  0.00  0.00    +0.000 A 
ATOM     13  C   UNL     1       2.829   7.122  18.033  0.00  0.00    +0.000 A 
ATOM     14  C   UNL     1       2.601   6.581  19.309  0.00  0.00    +0.000 A 
ATOM     15  C   UNL     1       1.925   7.354  20.273  0.00  0.00    +0.000 A 
BRANCH  14  16
ATOM     16  C   UNL     1       3.092   5.192  19.638  0.00  0.00    +0.000 C 
BRANCH  16  17
ATOM     17  N   UNL     1       4.388   4.928  19.046  0.00  0.00    +0.000 N 
ATOM     18  C   UNL     1       4.662   4.301  17.866  0.00  0.00    +0.000 A 
ATOM     19  C   UNL     1       6.035   4.309  17.807  0.00  0.00    +0.000 A 
ATOM     20  N   UNL     1       6.536   4.963  18.896  0.00  0.00    +0.000 NA
ATOM     21  N   UNL     1       5.515   5.355  19.646  0.00  0.00    +0.000 NA
ENDBRANCH  16  17
ENDBRANCH  14  16
ENDBRANCH   2  10
BRANCH   7  22
ATOM     22  N   UNL     1      -0.228  13.698  19.960  0.00  0.00    +0.000 NA
ATOM     23  C   UNL     1       0.071  14.728  20.977  0.00  0.00    +0.000 C 
ATOM     24  C   UNL     1      -0.501  16.020  20.429  0.00  0.00    +0.000 C 
ATOM     25  C   UNL     1      -0.238  15.914  18.941  0.00  0.00    +0.000 C 
ATOM     26  C   UNL     1      -0.031  14.422  18.681  0.00  0.00    +0.000 C 
ENDBRANCH   7  22
TORSDOF 4
ENDMDL
MODEL 6
REMARK VINA RESULT:      -6.7      2.656      4.159
REMARK  Name = 
REMARK  4 active torsions:
REMARK  status: ('A' for Active; 'I' for Inactive)
REMARK    1  A    between atoms: C_2  and  C_3
REMARK    2  A    between atoms: C_7  and  C_8
REMARK    3  A    between atoms: C_8  and  N_9
REMARK    4  A    between atoms: C_19  and  N_20
REMARK                            x       y       z     vdW  Elec       q    Type
REMARK                         _______ _______ _______ _____ _____    ______ ____
ROOT
ATOM      1  O   UNL     1       2.687   8.844  17.108  0.00  0.00    +0.000 OA
ATOM      2  C   UNL     1       2.245   8.687  18.249  0.00  0.00    +0.000 C 
ATOM      3  N   UNL     1       1.541   9.693  18.931  0.00  0.00    +0.000 N 
ATOM      4  C   UNL     1       1.117   9.644  20.327  0.00  0.00    +0.000 C 
ATOM      5  C   UNL     1      -0.376   9.384  20.488  0.00  0.00    +0.000 C 
ATOM      6  C   UNL     1      -1.259  10.610  20.270  0.00  0.00    +0.000 C 
ATOM      7  C   UNL     1      -1.239  11.268  18.865  0.00  0.00    +0.000 C 
ATOM      8  C   UNL     1       0.172  11.861  18.620  0.00  0.00    +0.000 C 
ATOM      9  C   UNL     1       1.305  10.925  18.183  0.00  0.00    +0.000 C 
ENDROOT
BRANCH   2  10
ATOM     10  C   UNL     1       2.456   7.342  18.836  0.00  0.00    +0.000 A 
ATOM     11  C   UNL     1       1.801   7.061  20.043  0.00  0.00    +0.000 A 
ATOM     12  C   UNL     1       1.906   5.799  20.631  0.00  0.00    +0.000 A 
ATOM     13  C   UNL     1       2.634   4.795  19.996  0.00  0.00    +0.000 A 
ATOM     14  C   UNL     1       3.218   5.027  18.740  0.00  0.00    +0.000 A 
ATOM     15  C   UNL     1       3.128   6.310  18.166  0.00  0.00    +0.000 A 
BRANCH  14  16
ATOM     16  C   UNL     1       3.918   3.904  18.014  0.00  0.00    +0.000 C 
BRANCH  16  17
ATOM     17  N   UNL     1       5.328   4.184  17.829  0.00  0.00    +0.000 N 
ATOM     18  C   UNL     1       6.009   4.338  16.657  0.00  0.00    +0.000 A 
ATOM     19  C   UNL     1       7.302   4.567  17.061  0.00  0.00    +0.000 A 
ATOM     20  N   UNL     1       7.357   4.590  18.426  0.00  0.00    +0.000 NA
ATOM     21  N   UNL     1       6.135   4.369  18.891  0.00  0.00    +0.000 NA
ENDBRANCH  16  17
ENDBRANCH  14  16
ENDBRANCH   2  10
BRANCH   7  22
ATOM     22  N   UNL     1      -1.783  10.403  17.794  0.00  0.00    +0.000 NA
ATOM     23  C   UNL     1      -2.269  11.133  16.604  0.00  0.00    +0.000 C 
ATOM     24  C   UNL     1      -3.695  11.532  16.925  0.00  0.00    +0.000 C 
ATOM     25  C   UNL     1      -4.219  10.348  17.711  0.00  0.00    +0.000 C 
ATOM     26  C   UNL     1      -2.972   9.627  18.221  0.00  0.00    +0.000 C 
ENDBRANCH   7  22
TORSDOF 4
ENDMDL
MODEL 7
REMARK VINA RESULT:      -6.7      1.921      3.128
REMARK  Name = 
REMARK  4 active torsions:
REMARK  status: ('A' for Active; 'I' for Inactive)
REMARK    1  A    between atoms: C_2  and  C_3
REMARK    2  A    between atoms: C_7  and  C_8
REMARK    3  A    between atoms: C_8  and  N_9
REMARK    4  A    between atoms: C_19  and  N_20
REMARK                            x       y       z     vdW  Elec       q    Type
REMARK                         _______ _______ _______ _____ _____    ______ ____
ROOT
ATOM      1  O   UNL     1      -0.668  10.016  17.587  0.00  0.00    +0.000 OA
ATOM      2  C   UNL     1       0.150  10.317  18.460  0.00  0.00    +0.000 C 
ATOM      3  N   UNL     1       0.244  11.614  18.990  0.00  0.00    +0.000 N 
ATOM      4  C   UNL     1       1.273  12.089  19.910  0.00  0.00    +0.000 C 
ATOM      5  C   UNL     1       0.772  12.233  21.342  0.00  0.00    +0.000 C 
ATOM      6  C   UNL     1      -0.038  13.500  21.605  0.00  0.00    +0.000 C 
ATOM      7  C   UNL     1      -1.367  13.676  20.824  0.00  0.00    +0.000 C 
ATOM      8  C   UNL     1      -1.035  13.834  19.318  0.00  0.00    +0.000 C 
ATOM      9  C   UNL     1      -0.731  12.580  18.491  0.00  0.00    +0.000 C 
ENDROOT
BRANCH   2  10
ATOM     10  C   UNL     1       0.992   9.203  18.957  0.00  0.00    +0.000 A 
ATOM     11  C   UNL     1       0.786   8.786  20.279  0.00  0.00    +0.000 A 
ATOM     12  C   UNL     1       1.502   7.708  20.804  0.00  0.00    +0.000 A 
ATOM     13  C   UNL     1       2.401   7.013  19.998  0.00  0.00    +0.000 A 
ATOM     14  C   UNL     1       2.553   7.355  18.644  0.00  0.00    +0.000 A 
ATOM     15  C   UNL     1       1.845   8.459  18.130  0.00  0.00    +0.000 A 
BRANCH  14  16
ATOM     16  C   UNL     1       3.454   6.533  17.755  0.00  0.00    +0.000 C 
BRANCH  16  17
ATOM     17  N   UNL     1       3.020   5.152  17.684  0.00  0.00    +0.000 N 
ATOM     18  C   UNL     1       3.792   4.028  17.641  0.00  0.00    +0.000 A 
ATOM     19  C   UNL     1       2.876   3.008  17.563  0.00  0.00    +0.000 A 
ATOM     20  N   UNL     1       1.612   3.524  17.608  0.00  0.00    +0.000 NA
ATOM     21  N   UNL     1       1.710   4.844  17.697  0.00  0.00    +0.000 NA
ENDBRANCH  16  17
ENDBRANCH  14  16
ENDBRANCH   2  10
BRANCH   7  22
ATOM     22  N   UNL     1      -2.398  12.672  21.168  0.00  0.00    +0.000 NA
ATOM     23  C   UNL     1      -3.748  12.975  20.646  0.00  0.00    +0.000 C 
ATOM     24  C   UNL     1      -4.384  13.893  21.670  0.00  0.00    +0.000 C 
ATOM     25  C   UNL     1      -3.871  13.353  22.989  0.00  0.00    +0.000 C 
ATOM     26  C   UNL     1      -2.623  12.547  22.629  0.00  0.00    +0.000 C 
ENDBRANCH   7  22
TORSDOF 4
ENDMDL
MODEL 8
REMARK VINA RESULT:      -6.6      2.273      3.767
REMARK  Name = 
REMARK  4 active torsions:
REMARK  status: ('A' for Active; 'I' for Inactive)
REMARK    1  A    between atoms: C_2  and  C_3
REMARK    2  A    between atoms: C_7  and  C_8
REMARK    3  A    between atoms: C_8  and  N_9
REMARK    4  A    between atoms: C_19  and  N_20
REMARK                            x       y       z     vdW  Elec       q    Type
REMARK                         _______ _______ _______ _____ _____    ______ ____
ROOT
ATOM      1  O   UNL     1      -1.366  10.569  18.226  0.00  0.00    +0.000 OA
ATOM      2  C   UNL     1      -0.550  10.834  19.113  0.00  0.00    +0.000 C 
ATOM      3  N   UNL     1      -0.559  12.056  19.806  0.00  0.00    +0.000 N 
ATOM      4  C   UNL     1       0.453  12.506  20.757  0.00  0.00    +0.000 C 
ATOM      5  C   UNL     1      -0.010  12.417  22.206  0.00  0.00    +0.000 C 
ATOM      6  C   UNL     1      -0.925  13.556  22.650  0.00  0.00    +0.000 C 
ATOM      7  C   UNL     1      -2.290  13.702  21.928  0.00  0.00    +0.000 C 
ATOM      8  C   UNL     1      -2.026  14.082  20.448  0.00  0.00    +0.000 C 
ATOM      9  C   UNL     1      -1.635  12.979  19.458  0.00  0.00    +0.000 C 
ENDROOT
BRANCH   2  10
ATOM     10  C   UNL     1       0.408   9.752  19.442  0.00  0.00    +0.000 A 
ATOM     11  C   UNL     1       0.288   9.152  20.704  0.00  0.00    +0.000 A 
ATOM     12  C   UNL     1       1.118   8.091  21.068  0.00  0.00    +0.000 A 
ATOM     13  C   UNL     1       2.048   7.593  20.158  0.00  0.00    +0.000 A 
ATOM     14  C   UNL     1       2.121   8.116  18.856  0.00  0.00    +0.000 A 
ATOM     15  C   UNL     1       1.296   9.203  18.507  0.00  0.00    +0.000 A 
BRANCH  14  16
ATOM     16  C   UNL     1       3.061   7.504  17.848  0.00  0.00    +0.000 C 
BRANCH  16  17
ATOM     17  N   UNL     1       3.317   6.106  18.135  0.00  0.00    +0.000 N 
ATOM     18  C   UNL     1       2.500   5.037  17.909  0.00  0.00    +0.000 A 
ATOM     19  C   UNL     1       3.226   3.970  18.380  0.00  0.00    +0.000 A 
ATOM     20  N   UNL     1       4.443   4.404  18.821  0.00  0.00    +0.000 NA
ATOM     21  N   UNL     1       4.498   5.718  18.652  0.00  0.00    +0.000 NA
ENDBRANCH  16  17
ENDBRANCH  14  16
ENDBRANCH   2  10
BRANCH   7  22
ATOM     22  N   UNL     1      -3.212  12.568  22.160  0.00  0.00    +0.000 NA
ATOM     23  C   UNL     1      -4.618  12.833  21.787  0.00  0.00    +0.000 C 
ATOM     24  C   UNL     1      -5.238  13.508  22.994  0.00  0.00    +0.000 C 
ATOM     25  C   UNL     1      -4.582  12.803  24.163  0.00  0.00    +0.000 C 
ATOM     26  C   UNL     1      -3.310  12.181  23.588  0.00  0.00    +0.000 C 
ENDBRANCH   7  22
TORSDOF 4
ENDMDL
MODEL 9
REMARK VINA RESULT:      -6.6      2.118      3.425
REMARK  Name = 
REMARK  4 active torsions:
REMARK  status: ('A' for Active; 'I' for Inactive)
REMARK    1  A    between atoms: C_2  and  C_3
REMARK    2  A    between atoms: C_7  and  C_8
REMARK    3  A    between atoms: C_8  and  N_9
REMARK    4  A    between atoms: C_19  and  N_20
REMARK                            x       y       z     vdW  Elec       q    Type
REMARK                         _______ _______ _______ _____ _____    ______ ____
ROOT
ATOM      1  O   UNL     1      -0.638   9.992  17.539  0.00  0.00    +0.000 OA
ATOM      2  C   UNL     1       0.208  10.303  18.381  0.00  0.00    +0.000 C 
ATOM      3  N   UNL     1       0.292  11.594  18.927  0.00  0.00    +0.000 N 
ATOM      4  C   UNL     1       1.347  12.082  19.809  0.00  0.00    +0.000 C 
ATOM      5  C   UNL     1       0.905  12.192  21.264  0.00  0.00    +0.000 C 
ATOM      6  C   UNL     1       0.074  13.434  21.581  0.00  0.00    +0.000 C 
ATOM      7  C   UNL     1      -1.291  13.586  20.860  0.00  0.00    +0.000 C 
ATOM      8  C   UNL     1      -1.029  13.774  19.344  0.00  0.00    +0.000 C 
ATOM      9  C   UNL     1      -0.728  12.540  18.485  0.00  0.00    +0.000 C 
ENDROOT
BRANCH   2  10
ATOM     10  C   UNL     1       1.100   9.205  18.824  0.00  0.00    +0.000 A 
ATOM     11  C   UNL     1       0.897   8.697  20.116  0.00  0.00    +0.000 A 
ATOM     12  C   UNL     1       1.661   7.628  20.586  0.00  0.00    +0.000 A 
ATOM     13  C   UNL     1       2.606   7.029  19.755  0.00  0.00    +0.000 A 
ATOM     14  C   UNL     1       2.758   7.460  18.427  0.00  0.00    +0.000 A 
ATOM     15  C   UNL     1       2.002   8.556  17.969  0.00  0.00    +0.000 A 
BRANCH  14  16
ATOM     16  C   UNL     1       3.712   6.740  17.505  0.00  0.00    +0.000 C 
BRANCH  16  17
ATOM     17  N   UNL     1       4.223   5.525  18.107  0.00  0.00    +0.000 N 
ATOM     18  C   UNL     1       3.663   4.281  18.098  0.00  0.00    +0.000 A 
ATOM     19  C   UNL     1       4.549   3.521  18.822  0.00  0.00    +0.000 A 
ATOM     20  N   UNL     1       5.612   4.292  19.197  0.00  0.00    +0.000 NA
ATOM     21  N   UNL     1       5.411   5.521  18.740  0.00  0.00    +0.000 NA
ENDBRANCH  16  17
ENDBRANCH  14  16
ENDBRANCH   2  10
BRANCH   7  22
ATOM     22  N   UNL     1      -2.280  12.550  21.232  0.00  0.00    +0.000 NA
ATOM     23  C   UNL     1      -3.660  12.829  20.781  0.00  0.00    +0.000 C 
ATOM     24  C   UNL     1      -4.268  13.711  21.853  0.00  0.00    +0.000 C 
ATOM     25  C   UNL     1      -3.680  13.158  23.134  0.00  0.00    +0.000 C 
ATOM     26  C   UNL     1      -2.432  12.391  22.698  0.00  0.00    +0.000 C 
ENDBRANCH   7  22
TORSDOF 4
ENDMDL
