MODEL 1
REMARK VINA RESULT:      -8.2      0.000      0.000
REMARK  Name = 
REMARK  11 active torsions:
REMARK  status: ('A' for Active; 'I' for Inactive)
REMARK    1  A    between atoms: C_1  and  O_2
REMARK    2  A    between atoms: O_2  and  C_3
REMARK    3  A    between atoms: C_5  and  O_6
REMARK    4  A    between atoms: O_6  and  C_7
REMARK    5  A    between atoms: C_9  and  N_10
REMARK    6  A    between atoms: N_10  and  C_11
REMARK    7  A    between atoms: N_10  and  C_15
REMARK    8  A    between atoms: C_11  and  C_12
REMARK    9  A    between atoms: C_21  and  C_22
REMARK   10  A    between atoms: N_25  and  C_26
REMARK   11  A    between atoms: C_26  and  C_27
REMARK                            x       y       z     vdW  Elec       q    Type
REMARK                         _______ _______ _______ _____ _____    ______ ____
ROOT
ATOM      1  C   UNL     1       0.981   9.392  19.401  0.00  0.00    +0.000 A 
ATOM      2  C   UNL     1       0.853   8.542  20.508  0.00  0.00    +0.000 A 
ATOM      3  C   UNL     1       1.557   7.342  20.587  0.00  0.00    +0.000 A 
ATOM      4  C   UNL     1       2.455   6.974  19.609  0.00  0.00    +0.000 A 
ATOM      5  N   UNL     1       3.033   5.774  19.725  0.00  0.00    +0.000 NA
ATOM      6  C   UNL     1       3.933   5.451  18.768  0.00  0.00    +0.000 A 
ATOM      7  C   UNL     1       4.302   6.311  17.738  0.00  0.00    +0.000 A 
ATOM      8  N   UNL     1       3.689   7.520  17.601  0.00  0.00    +0.000 NA
ATOM      9  C   UNL     1       2.727   7.844  18.530  0.00  0.00    +0.000 A 
ATOM     10  C   UNL     1       1.953   9.017  18.438  0.00  0.00    +0.000 A 
ENDROOT
BRANCH   7  11
ATOM     11  C   UNL     1       5.375   5.908  16.829  0.00  0.00    +0.000 A 
ATOM     12  C   UNL     1       6.768   6.167  16.924  0.00  0.00    +0.000 A 
ATOM     13  N   UNL     1       7.467   5.716  15.881  0.00  0.00    +0.000 NA
ATOM     14  N   UNL     1       6.527   5.172  15.086  0.00  0.00    +0.000 N 
ATOM     15  C   UNL     1       5.264   5.246  15.619  0.00  0.00    +0.000 A 
BRANCH  14  16
ATOM     16  C   UNL     1       6.915   4.751  13.753  0.00  0.00    +0.000 C 
BRANCH  16  17
ATOM     17  C   UNL     1       6.065   3.615  13.225  0.00  0.00    +0.000 C 
ATOM     18  F   UNL     1       6.448   3.320  11.954  0.00  0.00    +0.000 F 
ENDBRANCH  16  17
ENDBRANCH  14  16
ENDBRANCH   7  11
BRANCH   1  19
ATOM     19  N   UNL     1       0.134  10.545  19.283  0.00  0.00    +0.000 N 
BRANCH  19  24
ATOM     20  C   UNL     1      -2.568  10.085  16.703  0.00  0.00    +0.000 A 
ATOM     21  C   UNL     1      -3.617  10.795  17.268  0.00  0.00    +0.000 A 
ATOM     22  C   UNL     1      -3.428  11.527  18.435  0.00  0.00    +0.000 A 
ATOM     23  C   UNL     1      -2.184  11.469  19.085  0.00  0.00    +0.000 A 
ATOM     24  C   UNL     1      -1.112  10.683  18.596  0.00  0.00    +0.000 A 
ATOM     25  C   UNL     1      -1.330  10.068  17.346  0.00  0.00    +0.000 A 
BRANCH  20  27
ATOM     26  C   UNL     1      -3.607  10.218  14.554  0.00  0.00    +0.000 C 
ATOM     27  O   UNL     1      -2.872   9.471  15.516  0.00  0.00    +0.000 OA
ENDBRANCH  20  27
BRANCH  22  28
ATOM     28  O   UNL     1      -4.530  12.239  18.815  0.00  0.00    +0.000 OA
ATOM     29  C   UNL     1      -4.601  12.706  20.152  0.00  0.00    +0.000 C 
ENDBRANCH  22  28
ENDBRANCH  19  24
BRANCH  19  30
ATOM     30  C   UNL     1       0.593  11.682  20.129  0.00  0.00    +0.000 C 
BRANCH  30  31
ATOM     31  C   UNL     1       1.573  12.597  19.433  0.00  0.00    +0.000 C 
ATOM     32  C   UNL     1       1.146  13.688  18.480  0.00  0.00    +0.000 C 
ATOM     33  C   UNL     1       1.648  14.053  19.847  0.00  0.00    +0.000 C 
ENDBRANCH  30  31
ENDBRANCH  19  30
ENDBRANCH   1  19
TORSDOF 9
ENDMDL
MODEL 2
REMARK VINA RESULT:      -8.1      4.878     10.312
REMARK  Name = 
REMARK  11 active torsions:
REMARK  status: ('A' for Active; 'I' for Inactive)
REMARK    1  A    between atoms: C_1  and  O_2
REMARK    2  A    between atoms: O_2  and  C_3
REMARK    3  A    between atoms: C_5  and  O_6
REMARK    4  A    between atoms: O_6  and  C_7
REMARK    5  A    between atoms: C_9  and  N_10
REMARK    6  A    between atoms: N_10  and  C_11
REMARK    7  A    between atoms: N_10  and  C_15
REMARK    8  A    between atoms: C_11  and  C_12
REMARK    9  A    between atoms: C_21  and  C_22
REMARK   10  A    between atoms: N_25  and  C_26
REMARK   11  A    between atoms: C_26  and  C_27
REMARK                            x       y       z     vdW  Elec       q    Type
REMARK                         _______ _______ _______ _____ _____    ______ ____
ROOT
ATOM      1  C   UNL     1       2.455   7.324  19.191  0.00  0.00    +0.000 A 
ATOM      2  C   UNL     1       2.643   8.074  18.022  0.00  0.00    +0.000 A 
ATOM      3  C   UNL     1       1.964   9.272  17.811  0.00  0.00    +0.000 A 
ATOM      4  C   UNL     1       1.130   9.800  18.772  0.00  0.00    +0.000 A 
ATOM      5  N   UNL     1       0.460  10.915  18.459  0.00  0.00    +0.000 NA
ATOM      6  C   UNL     1      -0.328  11.427  19.431  0.00  0.00    +0.000 A 
ATOM      7  C   UNL     1      -0.423  10.887  20.710  0.00  0.00    +0.000 A 
ATOM      8  N   UNL     1       0.233   9.733  21.017  0.00  0.00    +0.000 NA
ATOM      9  C   UNL     1       0.994   9.161  20.024  0.00  0.00    +0.000 A 
ATOM     10  C   UNL     1       1.637   7.918  20.185  0.00  0.00    +0.000 A 
ENDROOT
BRANCH   7  11
ATOM     11  C   UNL     1      -1.210  11.595  21.721  0.00  0.00    +0.000 A 
ATOM     12  C   UNL     1      -1.506  11.205  23.053  0.00  0.00    +0.000 A 
ATOM     13  N   UNL     1      -2.318  12.051  23.690  0.00  0.00    +0.000 NA
ATOM     14  N   UNL     1      -2.572  12.995  22.764  0.00  0.00    +0.000 N 
ATOM     15  C   UNL     1      -1.917  12.775  21.577  0.00  0.00    +0.000 A 
BRANCH  14  16
ATOM     16  C   UNL     1      -3.591  13.986  23.056  0.00  0.00    +0.000 C 
BRANCH  16  17
ATOM     17  C   UNL     1      -4.997  13.452  22.881  0.00  0.00    +0.000 C 
ATOM     18  F   UNL     1      -4.974  12.397  22.023  0.00  0.00    +0.000 F 
ENDBRANCH  16  17
ENDBRANCH  14  16
ENDBRANCH   7  11
BRANCH   1  19
ATOM     19  N   UNL     1       3.056   6.026  19.314  0.00  0.00    +0.000 N 
BRANCH  19  24
ATOM     20  C   UNL     1       5.091   4.478  16.551  0.00  0.00    +0.000 A 
ATOM     21  C   UNL     1       6.369   4.519  17.089  0.00  0.00    +0.000 A 
ATOM     22  C   UNL     1       6.572   4.943  18.398  0.00  0.00    +0.000 A 
ATOM     23  C   UNL     1       5.478   5.413  19.142  0.00  0.00    +0.000 A 
ATOM     24  C   UNL     1       4.169   5.478  18.603  0.00  0.00    +0.000 A 
ATOM     25  C   UNL     1       4.012   4.917  17.319  0.00  0.00    +0.000 A 
BRANCH  20  27
ATOM     26  C   UNL     1       6.219   3.971  14.505  0.00  0.00    +0.000 C 
ATOM     27  O   UNL     1       5.027   3.969  15.279  0.00  0.00    +0.000 OA
ENDBRANCH  20  27
BRANCH  22  28
ATOM     28  O   UNL     1       7.871   4.844  18.806  0.00  0.00    +0.000 OA
ATOM     29  C   UNL     1       8.267   5.551  19.970  0.00  0.00    +0.000 C 
ENDBRANCH  22  28
ENDBRANCH  19  24
BRANCH  19  30
ATOM     30  C   UNL     1       2.497   5.240  20.448  0.00  0.00    +0.000 C 
BRANCH  30  31
ATOM     31  C   UNL     1       1.281   4.423  20.076  0.00  0.00    +0.000 C 
ATOM     32  C   UNL     1       1.361   3.153  19.263  0.00  0.00    +0.000 C 
ATOM     33  C   UNL     1       1.067   3.074  20.733  0.00  0.00    +0.000 C 
ENDBRANCH  30  31
ENDBRANCH  19  30
ENDBRANCH   1  19
TORSDOF 9
ENDMDL
MODEL 3
REMARK VINA RESULT:      -8.0      5.261     10.517
REMARK  Name = 
REMARK  11 active torsions:
REMARK  status: ('A' for Active; 'I' for Inactive)
REMARK    1  A    between atoms: C_1  and  O_2
REMARK    2  A    between atoms: O_2  and  C_3
REMARK    3  A    between atoms: C_5  and  O_6
REMARK    4  A    between atoms: O_6  and  C_7
REMARK    5  A    between atoms: C_9  and  N_10
REMARK    6  A    between atoms: N_10  and  C_11
REMARK    7  A    between atoms: N_10  and  C_15
REMARK    8  A    between atoms: C_11  and  C_12
REMARK    9  A    between atoms: C_21  and  C_22
REMARK   10  A    between atoms: N_25  and  C_26
REMARK   11  A    between atoms: C_26  and  C_27
REMARK                            x       y       z     vdW  Elec       q    Type
REMARK                         _______ _______ _______ _____ _____    ______ ____
ROOT
ATOM      1  C   UNL     1       2.302   7.357  19.263  0.00  0.00    +0.000 A 
ATOM      2  C   UNL     1       2.296   8.013  18.024  0.00  0.00    +0.000 A 
ATOM      3  C   UNL     1       1.611   9.212  17.840  0.00  0.00    +0.000 A 
ATOM      4  C   UNL     1       0.964   9.833  18.887  0.00  0.00    +0.000 A 
ATOM      5  N   UNL     1       0.269  10.942  18.608  0.00  0.00    +0.000 NA
ATOM      6  C   UNL     1      -0.330  11.548  19.658  0.00  0.00    +0.000 A 
ATOM      7  C   UNL     1      -0.211  11.106  20.972  0.00  0.00    +0.000 A 
ATOM      8  N   UNL     1       0.470   9.959  21.251  0.00  0.00    +0.000 NA
ATOM      9  C   UNL     1       1.038   9.293  20.189  0.00  0.00    +0.000 A 
ATOM     10  C   UNL     1       1.678   8.047  20.334  0.00  0.00    +0.000 A 
ENDROOT
BRANCH   7  11
ATOM     11  C   UNL     1      -0.799  11.909  22.045  0.00  0.00    +0.000 A 
ATOM     12  C   UNL     1      -1.907  11.606  22.880  0.00  0.00    +0.000 A 
ATOM     13  N   UNL     1      -2.232  12.595  23.715  0.00  0.00    +0.000 NA
ATOM     14  N   UNL     1      -1.344  13.561  23.416  0.00  0.00    +0.000 N 
ATOM     15  C   UNL     1      -0.455  13.190  22.436  0.00  0.00    +0.000 A 
BRANCH  14  16
ATOM     16  C   UNL     1      -1.530  14.872  24.008  0.00  0.00    +0.000 C 
BRANCH  16  17
ATOM     17  C   UNL     1      -2.707  14.926  24.958  0.00  0.00    +0.000 C 
ATOM     18  F   UNL     1      -2.775  16.164  25.519  0.00  0.00    +0.000 F 
ENDBRANCH  16  17
ENDBRANCH  14  16
ENDBRANCH   7  11
BRANCH   1  19
ATOM     19  N   UNL     1       2.894   6.055  19.381  0.00  0.00    +0.000 N 
BRANCH  19  24
ATOM     20  C   UNL     1       4.866   4.508  16.572  0.00  0.00    +0.000 A 
ATOM     21  C   UNL     1       6.149   4.507  17.099  0.00  0.00    +0.000 A 
ATOM     22  C   UNL     1       6.373   4.901  18.414  0.00  0.00    +0.000 A 
ATOM     23  C   UNL     1       5.297   5.384  19.176  0.00  0.00    +0.000 A 
ATOM     24  C   UNL     1       3.986   5.492  18.650  0.00  0.00    +0.000 A 
ATOM     25  C   UNL     1       3.804   4.959  17.357  0.00  0.00    +0.000 A 
BRANCH  20  27
ATOM     26  C   UNL     1       5.840   4.327  14.396  0.00  0.00    +0.000 C 
ATOM     27  O   UNL     1       4.777   4.025  15.292  0.00  0.00    +0.000 OA
ENDBRANCH  20  27
BRANCH  22  28
ATOM     28  O   UNL     1       7.673   4.762  18.809  0.00  0.00    +0.000 OA
ATOM     29  C   UNL     1       8.193   5.685  19.751  0.00  0.00    +0.000 C 
ENDBRANCH  22  28
ENDBRANCH  19  24
BRANCH  19  30
ATOM     30  C   UNL     1       2.351   5.280  20.531  0.00  0.00    +0.000 C 
BRANCH  30  31
ATOM     31  C   UNL     1       2.182   3.807  20.242  0.00  0.00    +0.000 C 
ATOM     32  C   UNL     1       1.512   2.852  21.201  0.00  0.00    +0.000 C 
ATOM     33  C   UNL     1       0.798   3.265  19.947  0.00  0.00    +0.000 C 
ENDBRANCH  30  31
ENDBRANCH  19  30
ENDBRANCH   1  19
TORSDOF 9
ENDMDL
MODEL 4
REMARK VINA RESULT:      -8.0      0.658      2.131
REMARK  Name = 
REMARK  11 active torsions:
REMARK  status: ('A' for Active; 'I' for Inactive)
REMARK    1  A    between atoms: C_1  and  O_2
REMARK    2  A    between atoms: O_2  and  C_3
REMARK    3  A    between atoms: C_5  and  O_6
REMARK    4  A    between atoms: O_6  and  C_7
REMARK    5  A    between atoms: C_9  and  N_10
REMARK    6  A    between atoms: N_10  and  C_11
REMARK    7  A    between atoms: N_10  and  C_15
REMARK    8  A    between atoms: C_11  and  C_12
REMARK    9  A    between atoms: C_21  and  C_22
REMARK   10  A    between atoms: N_25  and  C_26
REMARK   11  A    between atoms: C_26  and  C_27
REMARK                            x       y       z     vdW  Elec       q    Type
REMARK                         _______ _______ _______ _____ _____    ______ ____
ROOT
ATOM      1  C   UNL     1       1.071   9.556  19.168  0.00  0.00    +0.000 A 
ATOM      2  C   UNL     1       0.964   8.795  20.340  0.00  0.00    +0.000 A 
ATOM      3  C   UNL     1       1.632   7.581  20.481  0.00  0.00    +0.000 A 
ATOM      4  C   UNL     1       2.477   7.111  19.498  0.00  0.00    +0.000 A 
ATOM      5  N   UNL     1       3.021   5.903  19.681  0.00  0.00    +0.000 NA
ATOM      6  C   UNL     1       3.869   5.480  18.716  0.00  0.00    +0.000 A 
ATOM      7  C   UNL     1       4.221   6.248  17.610  0.00  0.00    +0.000 A 
ATOM      8  N   UNL     1       3.640   7.464  17.408  0.00  0.00    +0.000 NA
ATOM      9  C   UNL     1       2.730   7.889  18.347  0.00  0.00    +0.000 A 
ATOM     10  C   UNL     1       1.989   9.078  18.198  0.00  0.00    +0.000 A 
ENDROOT
BRANCH   7  11
ATOM     11  C   UNL     1       5.242   5.742  16.693  0.00  0.00    +0.000 A 
ATOM     12  C   UNL     1       6.628   6.046  16.646  0.00  0.00    +0.000 A 
ATOM     13  N   UNL     1       7.268   5.464  15.630  0.00  0.00    +0.000 NA
ATOM     14  N   UNL     1       6.294   4.787  14.994  0.00  0.00    +0.000 N 
ATOM     15  C   UNL     1       5.069   4.908  15.602  0.00  0.00    +0.000 A 
BRANCH  14  16
ATOM     16  C   UNL     1       6.602   4.185  13.711  0.00  0.00    +0.000 C 
BRANCH  16  17
ATOM     17  C   UNL     1       7.636   4.966  12.928  0.00  0.00    +0.000 C 
ATOM     18  F   UNL     1       7.551   4.630  11.612  0.00  0.00    +0.000 F 
ENDBRANCH  16  17
ENDBRANCH  14  16
ENDBRANCH   7  11
BRANCH   1  19
ATOM     19  N   UNL     1       0.257  10.726  18.997  0.00  0.00    +0.000 N 
BRANCH  19  24
ATOM     20  C   UNL     1      -3.362  11.752  18.856  0.00  0.00    +0.000 A 
ATOM     21  C   UNL     1      -3.769  11.178  17.661  0.00  0.00    +0.000 A 
ATOM     22  C   UNL     1      -2.907  10.356  16.942  0.00  0.00    +0.000 A 
ATOM     23  C   UNL     1      -1.590  10.183  17.397  0.00  0.00    +0.000 A 
ATOM     24  C   UNL     1      -1.101  10.824  18.562  0.00  0.00    +0.000 A 
ATOM     25  C   UNL     1      -2.059  11.540  19.308  0.00  0.00    +0.000 A 
BRANCH  20  27
ATOM     26  C   UNL     1      -5.660  12.397  18.992  0.00  0.00    +0.000 C 
ATOM     27  O   UNL     1      -4.333  12.477  19.497  0.00  0.00    +0.000 OA
ENDBRANCH  20  27
BRANCH  22  28
ATOM     28  O   UNL     1      -3.483   9.800  15.836  0.00  0.00    +0.000 OA
ATOM     29  C   UNL     1      -2.973  10.154  14.561  0.00  0.00    +0.000 C 
ENDBRANCH  22  28
ENDBRANCH  19  24
BRANCH  19  30
ATOM     30  C   UNL     1       0.921  11.964  19.492  0.00  0.00    +0.000 C 
BRANCH  30  31
ATOM     31  C   UNL     1       0.935  13.088  18.482  0.00  0.00    +0.000 C 
ATOM     32  C   UNL     1       0.547  14.506  18.825  0.00  0.00    +0.000 C 
ATOM     33  C   UNL     1       1.990  14.169  18.593  0.00  0.00    +0.000 C 
ENDBRANCH  30  31
ENDBRANCH  19  30
ENDBRANCH   1  19
TORSDOF 9
ENDMDL
MODEL 5
REMARK VINA RESULT:      -8.0      1.649      2.628
REMARK  Name = 
REMARK  11 active torsions:
REMARK  status: ('A' for Active; 'I' for Inactive)
REMARK    1  A    between atoms: C_1  and  O_2
REMARK    2  A    between atoms: O_2  and  C_3
REMARK    3  A    between atoms: C_5  and  O_6
REMARK    4  A    between atoms: O_6  and  C_7
REMARK    5  A    between atoms: C_9  and  N_10
REMARK    6  A    between atoms: N_10  and  C_11
REMARK    7  A    between atoms: N_10  and  C_15
REMARK    8  A    between atoms: C_11  and  C_12
REMARK    9  A    between atoms: C_21  and  C_22
REMARK   10  A    between atoms: N_25  and  C_26
REMARK   11  A    between atoms: C_26  and  C_27
REMARK                            x       y       z     vdW  Elec       q    Type
REMARK                         _______ _______ _______ _____ _____    ______ ____
ROOT
ATOM      1  C   UNL     1       1.797   8.000  19.728  0.00  0.00    +0.000 A 
ATOM      2  C   UNL     1       1.560   6.858  20.506  0.00  0.00    +0.000 A 
ATOM      3  C   UNL     1       2.070   5.614  20.140  0.00  0.00    +0.000 A 
ATOM      4  C   UNL     1       2.880   5.469  19.035  0.00  0.00    +0.000 A 
ATOM      5  N   UNL     1       3.265   4.229  18.714  0.00  0.00    +0.000 NA
ATOM      6  C   UNL     1       4.084   4.119  17.643  0.00  0.00    +0.000 A 
ATOM      7  C   UNL     1       4.562   5.210  16.925  0.00  0.00    +0.000 A 
ATOM      8  N   UNL     1       4.143   6.470  17.232  0.00  0.00    +0.000 NA
ATOM      9  C   UNL     1       3.263   6.600  18.281  0.00  0.00    +0.000 A 
ATOM     10  C   UNL     1       2.679   7.833  18.630  0.00  0.00    +0.000 A 
ENDROOT
BRANCH   7  11
ATOM     11  C   UNL     1       5.541   4.984  15.861  0.00  0.00    +0.000 A 
ATOM     12  C   UNL     1       6.824   5.569  15.692  0.00  0.00    +0.000 A 
ATOM     13  N   UNL     1       7.435   5.197  14.565  0.00  0.00    +0.000 NA
ATOM     14  N   UNL     1       6.542   4.376  13.981  0.00  0.00    +0.000 N 
ATOM     15  C   UNL     1       5.402   4.204  14.727  0.00  0.00    +0.000 A 
BRANCH  14  16
ATOM     16  C   UNL     1       6.801   3.934  12.625  0.00  0.00    +0.000 C 
BRANCH  16  17
ATOM     17  C   UNL     1       5.682   3.086  12.059  0.00  0.00    +0.000 C 
ATOM     18  F   UNL     1       6.213   2.011  11.416  0.00  0.00    +0.000 F 
ENDBRANCH  16  17
ENDBRANCH  14  16
ENDBRANCH   7  11
BRANCH   1  19
ATOM     19  N   UNL     1       1.139   9.234  20.051  0.00  0.00    +0.000 N 
BRANCH  19  24
ATOM     20  C   UNL     1      -1.376  10.310  17.465  0.00  0.00    +0.000 A 
ATOM     21  C   UNL     1      -1.389  11.685  17.643  0.00  0.00    +0.000 A 
ATOM     22  C   UNL     1      -0.499  12.292  18.523  0.00  0.00    +0.000 A 
ATOM     23  C   UNL     1       0.354  11.489  19.295  0.00  0.00    +0.000 A 
ATOM     24  C   UNL     1       0.338  10.074  19.217  0.00  0.00    +0.000 A 
ATOM     25  C   UNL     1      -0.497   9.531  18.218  0.00  0.00    +0.000 A 
BRANCH  20  27
ATOM     26  C   UNL     1      -3.557  10.417  16.491  0.00  0.00    +0.000 C 
ATOM     27  O   UNL     1      -2.252   9.852  16.515  0.00  0.00    +0.000 OA
ENDBRANCH  20  27
BRANCH  22  28
ATOM     28  O   UNL     1      -0.577  13.656  18.520  0.00  0.00    +0.000 OA
ATOM     29  C   UNL     1       0.567  14.397  18.912  0.00  0.00    +0.000 C 
ENDBRANCH  22  28
ENDBRANCH  19  24
BRANCH  19  30
ATOM     30  C   UNL     1       1.217   9.563  21.502  0.00  0.00    +0.000 C 
BRANCH  30  31
ATOM     31  C   UNL     1      -0.096   9.399  22.230  0.00  0.00    +0.000 C 
ATOM     32  C   UNL     1      -0.227   9.530  23.729  0.00  0.00    +0.000 C 
ATOM     33  C   UNL     1      -0.760  10.617  22.842  0.00  0.00    +0.000 C 
ENDBRANCH  30  31
ENDBRANCH  19  30
ENDBRANCH   1  19
TORSDOF 9
ENDMDL
MODEL 6
REMARK VINA RESULT:      -7.9      4.822      9.897
REMARK  Name = 
REMARK  11 active torsions:
REMARK  status: ('A' for Active; 'I' for Inactive)
REMARK    1  A    between atoms: C_1  and  O_2
REMARK    2  A    between atoms: O_2  and  C_3
REMARK    3  A    between atoms: C_5  and  O_6
REMARK    4  A    between atoms: O_6  and  C_7
REMARK    5  A    between atoms: C_9  and  N_10
REMARK    6  A    between atoms: N_10  and  C_11
REMARK    7  A    between atoms: N_10  and  C_15
REMARK    8  A    between atoms: C_11  and  C_12
REMARK    9  A    between atoms: C_21  and  C_22
REMARK   10  A    between atoms: N_25  and  C_26
REMARK   11  A    between atoms: C_26  and  C_27
REMARK                            x       y       z     vdW  Elec       q    Type
REMARK                         _______ _______ _______ _____ _____    ______ ____
ROOT
ATOM      1  C   UNL     1       2.544   5.973  18.561  0.00  0.00    +0.000 A 
ATOM      2  C   UNL     1       2.181   5.620  19.868  0.00  0.00    +0.000 A 
ATOM      3  C   UNL     1       1.724   6.572  20.776  0.00  0.00    +0.000 A 
ATOM      4  C   UNL     1       1.548   7.888  20.405  0.00  0.00    +0.000 A 
ATOM      5  N   UNL     1       1.176   8.750  21.357  0.00  0.00    +0.000 NA
ATOM      6  C   UNL     1       0.981  10.028  20.959  0.00  0.00    +0.000 A 
ATOM      7  C   UNL     1       1.099  10.449  19.638  0.00  0.00    +0.000 A 
ATOM      8  N   UNL     1       1.511   9.577  18.675  0.00  0.00    +0.000 NA
ATOM      9  C   UNL     1       1.772   8.286  19.069  0.00  0.00    +0.000 A 
ATOM     10  C   UNL     1       2.299   7.320  18.190  0.00  0.00    +0.000 A 
ENDROOT
BRANCH   7  11
ATOM     11  C   UNL     1       0.745  11.828  19.300  0.00  0.00    +0.000 A 
ATOM     12  C   UNL     1      -0.378  12.308  18.576  0.00  0.00    +0.000 A 
ATOM     13  N   UNL     1      -0.362  13.628  18.379  0.00  0.00    +0.000 NA
ATOM     14  N   UNL     1       0.788  14.016  18.962  0.00  0.00    +0.000 N 
ATOM     15  C   UNL     1       1.474  12.979  19.542  0.00  0.00    +0.000 A 
BRANCH  14  16
ATOM     16  C   UNL     1       1.228  15.385  18.767  0.00  0.00    +0.000 C 
BRANCH  16  17
ATOM     17  C   UNL     1       1.150  16.213  20.032  0.00  0.00    +0.000 C 
ATOM     18  F   UNL     1       2.254  15.978  20.792  0.00  0.00    +0.000 F 
ENDBRANCH  16  17
ENDBRANCH  14  16
ENDBRANCH   7  11
BRANCH   1  19
ATOM     19  N   UNL     1       3.147   4.997  17.698  0.00  0.00    +0.000 N 
BRANCH  19  24
ATOM     20  C   UNL     1       6.898   4.734  17.880  0.00  0.00    +0.000 A 
ATOM     21  C   UNL     1       7.226   4.487  16.555  0.00  0.00    +0.000 A 
ATOM     22  C   UNL     1       6.247   4.516  15.568  0.00  0.00    +0.000 A 
ATOM     23  C   UNL     1       4.907   4.713  15.939  0.00  0.00    +0.000 A 
ATOM     24  C   UNL     1       4.512   4.877  17.290  0.00  0.00    +0.000 A 
ATOM     25  C   UNL     1       5.565   4.961  18.224  0.00  0.00    +0.000 A 
BRANCH  20  27
ATOM     26  C   UNL     1       8.008   5.765  19.730  0.00  0.00    +0.000 C 
ATOM     27  O   UNL     1       7.969   4.749  18.736  0.00  0.00    +0.000 OA
ENDBRANCH  20  27
BRANCH  22  28
ATOM     28  O   UNL     1       6.741   4.340  14.307  0.00  0.00    +0.000 OA
ATOM     29  C   UNL     1       5.892   3.766  13.325  0.00  0.00    +0.000 C 
ENDBRANCH  22  28
ENDBRANCH  19  24
BRANCH  19  30
ATOM     30  C   UNL     1       2.208   3.905  17.320  0.00  0.00    +0.000 C 
BRANCH  30  31
ATOM     31  C   UNL     1       2.606   2.552  17.861  0.00  0.00    +0.000 C 
ATOM     32  C   UNL     1       3.152   2.351  19.255  0.00  0.00    +0.000 C 
ATOM     33  C   UNL     1       1.755   1.906  18.936  0.00  0.00    +0.000 C 
ENDBRANCH  30  31
ENDBRANCH  19  30
ENDBRANCH   1  19
TORSDOF 9
ENDMDL
MODEL 7
REMARK VINA RESULT:      -7.9      5.295     10.682
REMARK  Name = 
REMARK  11 active torsions:
REMARK  status: ('A' for Active; 'I' for Inactive)
REMARK    1  A    between atoms: C_1  and  O_2
REMARK    2  A    between atoms: O_2  and  C_3
REMARK    3  A    between atoms: C_5  and  O_6
REMARK    4  A    between atoms: O_6  and  C_7
REMARK    5  A    between atoms: C_9  and  N_10
REMARK    6  A    between atoms: N_10  and  C_11
REMARK    7  A    between atoms: N_10  and  C_15
REMARK    8  A    between atoms: C_11  and  C_12
REMARK    9  A    between atoms: C_21  and  C_22
REMARK   10  A    between atoms: N_25  and  C_26
REMARK   11  A    between atoms: C_26  and  C_27
REMARK                            x       y       z     vdW  Elec       q    Type
REMARK                         _______ _______ _______ _____ _____    ______ ____
ROOT
ATOM      1  C   UNL     1       2.216   7.466  19.263  0.00  0.00    +0.000 A 
ATOM      2  C   UNL     1       2.225   8.144  18.036  0.00  0.00    +0.000 A 
ATOM      3  C   UNL     1       1.550   9.352  17.869  0.00  0.00    +0.000 A 
ATOM      4  C   UNL     1       0.900   9.959  18.922  0.00  0.00    +0.000 A 
ATOM      5  N   UNL     1       0.216  11.078  18.658  0.00  0.00    +0.000 NA
ATOM      6  C   UNL     1      -0.387  11.670  19.715  0.00  0.00    +0.000 A 
ATOM      7  C   UNL     1      -0.281  11.203  21.022  0.00  0.00    +0.000 A 
ATOM      8  N   UNL     1       0.389  10.045  21.284  0.00  0.00    +0.000 NA
ATOM      9  C   UNL     1       0.960   9.395  20.215  0.00  0.00    +0.000 A 
ATOM     10  C   UNL     1       1.589   8.141  20.341  0.00  0.00    +0.000 A 
ENDROOT
BRANCH   7  11
ATOM     11  C   UNL     1      -0.871  11.990  22.105  0.00  0.00    +0.000 A 
ATOM     12  C   UNL     1      -1.888  11.621  23.023  0.00  0.00    +0.000 A 
ATOM     13  N   UNL     1      -2.250  12.608  23.845  0.00  0.00    +0.000 NA
ATOM     14  N   UNL     1      -1.478  13.639  23.453  0.00  0.00    +0.000 N 
ATOM     15  C   UNL     1      -0.625  13.313  22.428  0.00  0.00    +0.000 A 
BRANCH  14  16
ATOM     16  C   UNL     1      -1.748  14.950  24.012  0.00  0.00    +0.000 C 
BRANCH  16  17
ATOM     17  C   UNL     1      -3.141  15.066  24.594  0.00  0.00    +0.000 C 
ATOM     18  F   UNL     1      -3.146  16.025  25.559  0.00  0.00    +0.000 F 
ENDBRANCH  16  17
ENDBRANCH  14  16
ENDBRANCH   7  11
BRANCH   1  19
ATOM     19  N   UNL     1       2.796   6.157  19.361  0.00  0.00    +0.000 N 
BRANCH  19  24
ATOM     20  C   UNL     1       6.263   4.915  18.578  0.00  0.00    +0.000 A 
ATOM     21  C   UNL     1       6.087   4.375  17.312  0.00  0.00    +0.000 A 
ATOM     22  C   UNL     1       4.871   4.509  16.650  0.00  0.00    +0.000 A 
ATOM     23  C   UNL     1       3.795   5.121  17.312  0.00  0.00    +0.000 A 
ATOM     24  C   UNL     1       3.900   5.604  18.640  0.00  0.00    +0.000 A 
ATOM     25  C   UNL     1       5.190   5.550  19.205  0.00  0.00    +0.000 A 
BRANCH  20  27
ATOM     26  C   UNL     1       8.241   5.962  19.419  0.00  0.00    +0.000 C 
ATOM     27  O   UNL     1       7.530   4.777  19.082  0.00  0.00    +0.000 OA
ENDBRANCH  20  27
BRANCH  22  28
ATOM     28  O   UNL     1       4.884   4.001  15.382  0.00  0.00    +0.000 OA
ATOM     29  C   UNL     1       6.109   4.010  14.666  0.00  0.00    +0.000 C 
ENDBRANCH  22  28
ENDBRANCH  19  24
BRANCH  19  30
ATOM     30  C   UNL     1       2.225   5.359  20.480  0.00  0.00    +0.000 C 
BRANCH  30  31
ATOM     31  C   UNL     1       2.141   3.879  20.187  0.00  0.00    +0.000 C 
ATOM     32  C   UNL     1       1.559   2.879  21.158  0.00  0.00    +0.000 C 
ATOM     33  C   UNL     1       0.787   3.252  19.926  0.00  0.00    +0.000 C 
ENDBRANCH  30  31
ENDBRANCH  19  30
ENDBRANCH   1  19
TORSDOF 9
ENDMDL
MODEL 8
REMARK VINA RESULT:      -7.9      1.257      2.490
REMARK  Name = 
REMARK  11 active torsions:
REMARK  status: ('A' for Active; 'I' for Inactive)
REMARK    1  A    between atoms: C_1  and  O_2
REMARK    2  A    between atoms: O_2  and  C_3
REMARK    3  A    between atoms: C_5  and  O_6
REMARK    4  A    between atoms: O_6  and  C_7
REMARK    5  A    between atoms: C_9  and  N_10
REMARK    6  A    between atoms: N_10  and  C_11
REMARK    7  A    between atoms: N_10  and  C_15
REMARK    8  A    between atoms: C_11  and  C_12
REMARK    9  A    between atoms: C_21  and  C_22
REMARK   10  A    between atoms: N_25  and  C_26
REMARK   11  A    between atoms: C_26  and  C_27
REMARK                            x       y       z     vdW  Elec       q    Type
REMARK                         _______ _______ _______ _____ _____    ______ ____
ROOT
ATOM      1  C   UNL     1       0.112  10.352  19.394  0.00  0.00    +0.000 A 
ATOM      2  C   UNL     1       0.106   9.759  20.664  0.00  0.00    +0.000 A 
ATOM      3  C   UNL     1       0.823   8.593  20.924  0.00  0.00    +0.000 A 
ATOM      4  C   UNL     1       1.618   8.012  19.960  0.00  0.00    +0.000 A 
ATOM      5  N   UNL     1       2.214   6.855  20.269  0.00  0.00    +0.000 NA
ATOM      6  C   UNL     1       3.012   6.323  19.315  0.00  0.00    +0.000 A 
ATOM      7  C   UNL     1       3.266   6.938  18.094  0.00  0.00    +0.000 A 
ATOM      8  N   UNL     1       2.633   8.100  17.766  0.00  0.00    +0.000 NA
ATOM      9  C   UNL     1       1.770   8.628  18.698  0.00  0.00    +0.000 A 
ATOM     10  C   UNL     1       0.982   9.766  18.438  0.00  0.00    +0.000 A 
ENDROOT
BRANCH   7  11
ATOM     11  C   UNL     1       4.242   6.334  17.187  0.00  0.00    +0.000 A 
ATOM     12  C   UNL     1       5.087   6.968  16.237  0.00  0.00    +0.000 A 
ATOM     13  N   UNL     1       5.812   6.112  15.514  0.00  0.00    +0.000 NA
ATOM     14  N   UNL     1       5.429   4.908  15.978  0.00  0.00    +0.000 N 
ATOM     15  C   UNL     1       4.506   4.991  16.991  0.00  0.00    +0.000 A 
BRANCH  14  16
ATOM     16  C   UNL     1       5.882   3.725  15.272  0.00  0.00    +0.000 C 
BRANCH  16  17
ATOM     17  C   UNL     1       6.344   4.022  13.861  0.00  0.00    +0.000 C 
ATOM     18  F   UNL     1       5.384   3.628  12.981  0.00  0.00    +0.000 F 
ENDBRANCH  16  17
ENDBRANCH  14  16
ENDBRANCH   7  11
BRANCH   1  19
ATOM     19  N   UNL     1      -0.750  11.466  19.120  0.00  0.00    +0.000 N 
BRANCH  19  24
ATOM     20  C   UNL     1      -4.451  12.017  18.701  0.00  0.00    +0.000 A 
ATOM     21  C   UNL     1      -4.638  11.657  17.375  0.00  0.00    +0.000 A 
ATOM     22  C   UNL     1      -3.590  11.123  16.632  0.00  0.00    +0.000 A 
ATOM     23  C   UNL     1      -2.316  11.032  17.215  0.00  0.00    +0.000 A 
ATOM     24  C   UNL     1      -2.055  11.474  18.536  0.00  0.00    +0.000 A 
ATOM     25  C   UNL     1      -3.184  11.887  19.272  0.00  0.00    +0.000 A 
BRANCH  20  27
ATOM     26  C   UNL     1      -6.739  11.632  19.277  0.00  0.00    +0.000 C 
ATOM     27  O   UNL     1      -5.583  12.459  19.335  0.00  0.00    +0.000 OA
ENDBRANCH  20  27
BRANCH  22  28
ATOM     28  O   UNL     1      -3.956  10.740  15.373  0.00  0.00    +0.000 OA
ATOM     29  C   UNL     1      -2.991  10.092  14.560  0.00  0.00    +0.000 C 
ENDBRANCH  22  28
ENDBRANCH  19  24
BRANCH  19  30
ATOM     30  C   UNL     1      -0.225  12.747  19.671  0.00  0.00    +0.000 C 
BRANCH  30  31
ATOM     31  C   UNL     1       0.109  13.769  18.610  0.00  0.00    +0.000 C 
ATOM     32  C   UNL     1      -0.159  15.246  18.777  0.00  0.00    +0.000 C 
ATOM     33  C   UNL     1       1.251  14.736  18.849  0.00  0.00    +0.000 C 
ENDBRANCH  30  31
ENDBRANCH  19  30
ENDBRANCH   1  19
TORSDOF 9
ENDMDL
MODEL 9
REMARK VINA RESULT:      -7.8      2.145      3.893
REMARK  Name = 
REMARK  11 active torsions:
REMARK  status: ('A' for Active; 'I' for Inactive)
REMARK    1  A    between atoms: C_1  and  O_2
REMARK    2  A    between atoms: O_2  and  C_3
REMARK    3  A    between atoms: C_5  and  O_6
REMARK    4  A    between atoms: O_6  and  C_7
REMARK    5  A    between atoms: C_9  and  N_10
REMARK    6  A    between atoms: N_10  and  C_11
REMARK    7  A    between atoms: N_10  and  C_15
REMARK    8  A    between atoms: C_11  and  C_12
REMARK    9  A    between atoms: C_21  and  C_22
REMARK   10  A    between atoms: N_25  and  C_26
REMARK   11  A    between atoms: C_26  and  C_27
REMARK                            x       y       z     vdW  Elec       q    Type
REMARK                         _______ _______ _______ _____ _____    ______ ____
ROOT
ATOM      1  C   UNL     1       0.888   9.684  19.408  0.00  0.00    +0.000 A 
ATOM      2  C   UNL     1       0.910   9.100  20.682  0.00  0.00    +0.000 A 
ATOM      3  C   UNL     1       1.523   7.868  20.905  0.00  0.00    +0.000 A 
ATOM      4  C   UNL     1       2.187   7.206  19.895  0.00  0.00    +0.000 A 
ATOM      5  N   UNL     1       2.683   5.996  20.176  0.00  0.00    +0.000 NA
ATOM      6  C   UNL     1       3.355   5.382  19.175  0.00  0.00    +0.000 A 
ATOM      7  C   UNL     1       3.584   5.963  17.932  0.00  0.00    +0.000 A 
ATOM      8  N   UNL     1       3.050   7.182  17.636  0.00  0.00    +0.000 NA
ATOM      9  C   UNL     1       2.312   7.799  18.619  0.00  0.00    +0.000 A 
ATOM     10  C   UNL     1       1.626   9.009  18.402  0.00  0.00    +0.000 A 
ENDROOT
BRANCH   7  11
ATOM     11  C   UNL     1       4.430   5.261  16.967  0.00  0.00    +0.000 A 
ATOM     12  C   UNL     1       4.777   3.885  16.922  0.00  0.00    +0.000 A 
ATOM     13  N   UNL     1       5.634   3.582  15.945  0.00  0.00    +0.000 NA
ATOM     14  N   UNL     1       5.866   4.769  15.354  0.00  0.00    +0.000 N 
ATOM     15  C   UNL     1       5.154   5.799  15.919  0.00  0.00    +0.000 A 
BRANCH  14  16
ATOM     16  C   UNL     1       6.917   4.846  14.357  0.00  0.00    +0.000 C 
BRANCH  16  17
ATOM     17  C   UNL     1       6.662   3.950  13.164  0.00  0.00    +0.000 C 
ATOM     18  F   UNL     1       7.415   4.375  12.114  0.00  0.00    +0.000 F 
ENDBRANCH  16  17
ENDBRANCH  14  16
ENDBRANCH   7  11
BRANCH   1  19
ATOM     19  N   UNL     1       0.125  10.878  19.182  0.00  0.00    +0.000 N 
BRANCH  19  24
ATOM     20  C   UNL     1       2.406  13.841  18.742  0.00  0.00    +0.000 A 
ATOM     21  C   UNL     1       1.503  14.893  18.756  0.00  0.00    +0.000 A 
ATOM     22  C   UNL     1       0.157  14.666  19.023  0.00  0.00    +0.000 A 
ATOM     23  C   UNL     1      -0.294  13.347  19.193  0.00  0.00    +0.000 A 
ATOM     24  C   UNL     1       0.575  12.232  19.094  0.00  0.00    +0.000 A 
ATOM     25  C   UNL     1       1.944  12.540  18.947  0.00  0.00    +0.000 A 
BRANCH  20  27
ATOM     26  C   UNL     1       3.961  15.274  17.627  0.00  0.00    +0.000 C 
ATOM     27  O   UNL     1       3.710  14.214  18.542  0.00  0.00    +0.000 OA
ENDBRANCH  20  27
BRANCH  22  28
ATOM     28  O   UNL     1      -0.586  15.811  19.087  0.00  0.00    +0.000 OA
ATOM     29  C   UNL     1      -0.242  16.885  18.227  0.00  0.00    +0.000 C 
ENDBRANCH  22  28
ENDBRANCH  19  24
BRANCH  19  30
ATOM     30  C   UNL     1      -1.302  10.596  18.861  0.00  0.00    +0.000 C 
BRANCH  30  31
ATOM     31  C   UNL     1      -1.548  10.314  17.398  0.00  0.00    +0.000 C 
ATOM     32  C   UNL     1      -2.853   9.763  16.874  0.00  0.00    +0.000 C 
ATOM     33  C   UNL     1      -2.502  11.201  16.624  0.00  0.00    +0.000 C 
ENDBRANCH  30  31
ENDBRANCH  19  30
ENDBRANCH   1  19
TORSDOF 9
ENDMDL
