MODEL 1
REMARK VINA RESULT:      -8.8      0.000      0.000
REMARK  Name = 
REMARK  11 active torsions:
REMARK  status: ('A' for Active; 'I' for Inactive)
REMARK    1  A    between atoms: C_1  and  O_2
REMARK    2  A    between atoms: O_2  and  C_3
REMARK    3  A    between atoms: C_5  and  C_6
REMARK    4  A    between atoms: N_11  and  C_12
REMARK    5  A    between atoms: C_12  and  C_13
REMARK    6  A    between atoms: C_16  and  C_17
REMARK    7  A    between atoms: C_24  and  O_25
REMARK    8  A    between atoms: O_25  and  C_26
REMARK    9  A    between atoms: C_26  and  C_27
REMARK   10  A    between atoms: C_30  and  C_31
REMARK   11  A    between atoms: C_31  and  O_33
REMARK                            x       y       z     vdW  Elec       q    Type
REMARK                         _______ _______ _______ _____ _____    ______ ____
ROOT
ATOM      1  C   UNL     1       1.572   4.578  19.592  0.00  0.00    +0.000 A 
ATOM      2  C   UNL     1       1.487   5.527  20.619  0.00  0.00    +0.000 A 
ATOM      3  C   UNL     1       1.796   6.864  20.372  0.00  0.00    +0.000 A 
ATOM      4  C   UNL     1       2.299   7.246  19.133  0.00  0.00    +0.000 A 
ATOM      5  C   UNL     1       2.469   6.293  18.139  0.00  0.00    +0.000 A 
ATOM      6  C   UNL     1       2.139   4.944  18.358  0.00  0.00    +0.000 A 
ENDROOT
BRANCH   3   7
ATOM      7  C   UNL     1       1.370   7.891  21.318  0.00  0.00    +0.000 C 
ATOM      8  C   UNL     1       0.765   9.012  20.893  0.00  0.00    +0.000 C 
ATOM      9  S   UNL     1       0.365   9.441  19.271  0.00  0.00    +0.000 S 
ATOM     10  C   UNL     1      -0.067  11.075  19.729  0.00  0.00    +0.000 C 
ATOM     11  O   UNL     1      -0.299  11.947  18.909  0.00  0.00    +0.000 OA
ATOM     12  N   UNL     1      -0.028  11.196  21.093  0.00  0.00    +0.000 N 
ATOM     13  C   UNL     1       0.424  10.119  21.814  0.00  0.00    +0.000 C 
ATOM     14  O   UNL     1       0.591  10.070  23.022  0.00  0.00    +0.000 OA
BRANCH  12  15
ATOM     15  C   UNL     1      -0.253  12.471  21.724  0.00  0.00    +0.000 C 
BRANCH  15  16
ATOM     16  C   UNL     1      -1.693  12.698  22.117  0.00  0.00    +0.000 A 
ATOM     17  C   UNL     1      -2.211  12.129  23.287  0.00  0.00    +0.000 A 
ATOM     18  C   UNL     1      -3.507  12.435  23.709  0.00  0.00    +0.000 A 
ATOM     19  C   UNL     1      -4.311  13.302  22.960  0.00  0.00    +0.000 A 
ATOM     20  C   UNL     1      -5.674  13.703  23.441  0.00  0.00    +0.000 C 
ATOM     21  C   UNL     1      -3.811  13.828  21.763  0.00  0.00    +0.000 A 
ATOM     22  C   UNL     1      -2.518  13.522  21.340  0.00  0.00    +0.000 A 
ENDBRANCH  15  16
ENDBRANCH  12  15
ENDBRANCH   3   7
BRANCH   1  24
ATOM     23  C   UNL     1       1.787   2.507  20.711  0.00  0.00    +0.000 C 
ATOM     24  O   UNL     1       1.084   3.303  19.748  0.00  0.00    +0.000 OA
ENDBRANCH   1  24
BRANCH   6  25
ATOM     25  O   UNL     1       2.335   3.969  17.399  0.00  0.00    +0.000 OA
BRANCH  25  26
ATOM     26  C   UNL     1       3.613   3.323  17.495  0.00  0.00    +0.000 C 
BRANCH  26  27
ATOM     27  C   UNL     1       4.788   4.257  17.648  0.00  0.00    +0.000 A 
ATOM     28  C   UNL     1       5.131   5.082  16.561  0.00  0.00    +0.000 A 
ATOM     29  C   UNL     1       6.126   6.049  16.689  0.00  0.00    +0.000 A 
ATOM     30  C   UNL     1       6.792   6.206  17.907  0.00  0.00    +0.000 A 
ATOM     31  C   UNL     1       6.431   5.411  19.005  0.00  0.00    +0.000 A 
ATOM     32  C   UNL     1       5.437   4.438  18.871  0.00  0.00    +0.000 A 
BRANCH  30  33
ATOM     33  C   UNL     1       7.830   7.263  17.999  0.00  0.00    +0.000 C 
ATOM     34  O   UNL     1       8.583   7.375  18.947  0.00  0.00    +0.000 OA
BRANCH  33  35
ATOM     35  O   UNL     1       7.826   8.119  16.952  0.00  0.00    +0.000 OA
ATOM     36  H   UNL     1       7.080   8.009  16.335  0.00  0.00    +0.000 HD
ENDBRANCH  33  35
ENDBRANCH  30  33
ENDBRANCH  26  27
ENDBRANCH  25  26
ENDBRANCH   6  25
TORSDOF 9
ENDMDL
MODEL 2
REMARK VINA RESULT:      -8.7      1.817      2.336
REMARK  Name = 
REMARK  11 active torsions:
REMARK  status: ('A' for Active; 'I' for Inactive)
REMARK    1  A    between atoms: C_1  and  O_2
REMARK    2  A    between atoms: O_2  and  C_3
REMARK    3  A    between atoms: C_5  and  C_6
REMARK    4  A    between atoms: N_11  and  C_12
REMARK    5  A    between atoms: C_12  and  C_13
REMARK    6  A    between atoms: C_16  and  C_17
REMARK    7  A    between atoms: C_24  and  O_25
REMARK    8  A    between atoms: O_25  and  C_26
REMARK    9  A    between atoms: C_26  and  C_27
REMARK   10  A    between atoms: C_30  and  C_31
REMARK   11  A    between atoms: C_31  and  O_33
REMARK                            x       y       z     vdW  Elec       q    Type
REMARK                         _______ _______ _______ _____ _____    ______ ____
ROOT
ATOM      1  C   UNL     1       1.800   4.707  19.134  0.00  0.00    +0.000 A 
ATOM      2  C   UNL     1       1.553   5.578  20.203  0.00  0.00    +0.000 A 
ATOM      3  C   UNL     1       2.084   6.867  20.199  0.00  0.00    +0.000 A 
ATOM      4  C   UNL     1       2.956   7.261  19.189  0.00  0.00    +0.000 A 
ATOM      5  C   UNL     1       3.274   6.370  18.174  0.00  0.00    +0.000 A 
ATOM      6  C   UNL     1       2.730   5.074  18.143  0.00  0.00    +0.000 A 
ENDROOT
BRANCH   3   7
ATOM      7  C   UNL     1       1.545   7.873  21.110  0.00  0.00    +0.000 C 
ATOM      8  C   UNL     1       1.027   9.021  20.641  0.00  0.00    +0.000 C 
ATOM      9  S   UNL     1       0.874   9.510  18.995  0.00  0.00    +0.000 S 
ATOM     10  C   UNL     1       0.410  11.138  19.442  0.00  0.00    +0.000 C 
ATOM     11  O   UNL     1       0.315  12.041  18.629  0.00  0.00    +0.000 OA
ATOM     12  N   UNL     1       0.253  11.215  20.802  0.00  0.00    +0.000 N 
ATOM     13  C   UNL     1       0.577  10.105  21.542  0.00  0.00    +0.000 C 
ATOM     14  O   UNL     1       0.567  10.013  22.759  0.00  0.00    +0.000 OA
BRANCH  12  15
ATOM     15  C   UNL     1      -0.038  12.473  21.437  0.00  0.00    +0.000 C 
BRANCH  15  16
ATOM     16  C   UNL     1      -1.509  12.686  21.699  0.00  0.00    +0.000 A 
ATOM     17  C   UNL     1      -2.354  13.148  20.682  0.00  0.00    +0.000 A 
ATOM     18  C   UNL     1      -3.733  13.232  20.892  0.00  0.00    +0.000 A 
ATOM     19  C   UNL     1      -4.286  12.873  22.125  0.00  0.00    +0.000 A 
ATOM     20  C   UNL     1      -5.771  12.881  22.341  0.00  0.00    +0.000 C 
ATOM     21  C   UNL     1      -3.435  12.462  23.158  0.00  0.00    +0.000 A 
ATOM     22  C   UNL     1      -2.058  12.379  22.950  0.00  0.00    +0.000 A 
ENDBRANCH  15  16
ENDBRANCH  12  15
ENDBRANCH   3   7
BRANCH   1  24
ATOM     23  C   UNL     1       1.592   2.476  19.888  0.00  0.00    +0.000 C 
ATOM     24  O   UNL     1       1.133   3.512  19.009  0.00  0.00    +0.000 OA
ENDBRANCH   1  24
BRANCH   6  25
ATOM     25  O   UNL     1       3.060   4.155  17.166  0.00  0.00    +0.000 OA
BRANCH  25  26
ATOM     26  C   UNL     1       4.363   3.581  17.340  0.00  0.00    +0.000 C 
BRANCH  26  27
ATOM     27  C   UNL     1       5.367   3.947  16.275  0.00  0.00    +0.000 A 
ATOM     28  C   UNL     1       5.105   3.561  14.948  0.00  0.00    +0.000 A 
ATOM     29  C   UNL     1       5.934   3.978  13.908  0.00  0.00    +0.000 A 
ATOM     30  C   UNL     1       7.038   4.790  14.182  0.00  0.00    +0.000 A 
ATOM     31  C   UNL     1       7.286   5.207  15.498  0.00  0.00    +0.000 A 
ATOM     32  C   UNL     1       6.456   4.781  16.538  0.00  0.00    +0.000 A 
BRANCH  30  33
ATOM     33  C   UNL     1       7.879   5.224  13.039  0.00  0.00    +0.000 C 
ATOM     34  O   UNL     1       8.780   6.032  13.146  0.00  0.00    +0.000 OA
BRANCH  33  35
ATOM     35  O   UNL     1       7.515   4.675  11.858  0.00  0.00    +0.000 OA
ATOM     36  H   UNL     1       8.232   4.595  11.204  0.00  0.00    +0.000 HD
ENDBRANCH  33  35
ENDBRANCH  30  33
ENDBRANCH  26  27
ENDBRANCH  25  26
ENDBRANCH   6  25
TORSDOF 9
ENDMDL
MODEL 3
REMARK VINA RESULT:      -8.5      1.882      2.403
REMARK  Name = 
REMARK  11 active torsions:
REMARK  status: ('A' for Active; 'I' for Inactive)
REMARK    1  A    between atoms: C_1  and  O_2
REMARK    2  A    between atoms: O_2  and  C_3
REMARK    3  A    between atoms: C_5  and  C_6
REMARK    4  A    between atoms: N_11  and  C_12
REMARK    5  A    between atoms: C_12  and  C_13
REMARK    6  A    between atoms: C_16  and  C_17
REMARK    7  A    between atoms: C_24  and  O_25
REMARK    8  A    between atoms: O_25  and  C_26
REMARK    9  A    between atoms: C_26  and  C_27
REMARK   10  A    between atoms: C_30  and  C_31
REMARK   11  A    between atoms: C_31  and  O_33
REMARK                            x       y       z     vdW  Elec       q    Type
REMARK                         _______ _______ _______ _____ _____    ______ ____
ROOT
ATOM      1  C   UNL     1       2.073   5.580  20.040  0.00  0.00    +0.000 A 
ATOM      2  C   UNL     1       1.760   6.534  21.016  0.00  0.00    +0.000 A 
ATOM      3  C   UNL     1       1.621   7.878  20.669  0.00  0.00    +0.000 A 
ATOM      4  C   UNL     1       1.901   8.297  19.372  0.00  0.00    +0.000 A 
ATOM      5  C   UNL     1       2.298   7.367  18.423  0.00  0.00    +0.000 A 
ATOM      6  C   UNL     1       2.420   6.003  18.743  0.00  0.00    +0.000 A 
ENDROOT
BRANCH   3   7
ATOM      7  C   UNL     1       0.956   8.797  21.589  0.00  0.00    +0.000 C 
ATOM      8  C   UNL     1       0.134   9.756  21.131  0.00  0.00    +0.000 C 
ATOM      9  S   UNL     1      -0.303  10.073  19.494  0.00  0.00    +0.000 S 
ATOM     10  C   UNL     1      -1.092  11.578  19.916  0.00  0.00    +0.000 C 
ATOM     11  O   UNL     1      -1.484  12.372  19.078  0.00  0.00    +0.000 OA
ATOM     12  N   UNL     1      -1.120  11.717  21.279  0.00  0.00    +0.000 N 
ATOM     13  C   UNL     1      -0.465  10.770  22.027  0.00  0.00    +0.000 C 
ATOM     14  O   UNL     1      -0.325  10.769  23.240  0.00  0.00    +0.000 OA
BRANCH  12  15
ATOM     15  C   UNL     1      -1.634  12.918  21.885  0.00  0.00    +0.000 C 
BRANCH  15  16
ATOM     16  C   UNL     1      -3.035  12.763  22.424  0.00  0.00    +0.000 A 
ATOM     17  C   UNL     1      -3.260  12.647  23.801  0.00  0.00    +0.000 A 
ATOM     18  C   UNL     1      -4.563  12.622  24.305  0.00  0.00    +0.000 A 
ATOM     19  C   UNL     1      -5.660  12.696  23.440  0.00  0.00    +0.000 A 
ATOM     20  C   UNL     1      -7.062  12.751  23.971  0.00  0.00    +0.000 C 
ATOM     21  C   UNL     1      -5.434  12.759  22.060  0.00  0.00    +0.000 A 
ATOM     22  C   UNL     1      -4.134  12.783  21.555  0.00  0.00    +0.000 A 
ENDBRANCH  15  16
ENDBRANCH  12  15
ENDBRANCH   3   7
BRANCH   1  24
ATOM     23  C   UNL     1       0.715   3.650  20.179  0.00  0.00    +0.000 C 
ATOM     24  O   UNL     1       2.018   4.233  20.307  0.00  0.00    +0.000 OA
ENDBRANCH   1  24
BRANCH   6  25
ATOM     25  O   UNL     1       2.850   5.063  17.827  0.00  0.00    +0.000 OA
BRANCH  25  26
ATOM     26  C   UNL     1       4.249   4.764  17.932  0.00  0.00    +0.000 C 
BRANCH  26  27
ATOM     27  C   UNL     1       4.998   4.763  16.622  0.00  0.00    +0.000 A 
ATOM     28  C   UNL     1       5.403   5.997  16.083  0.00  0.00    +0.000 A 
ATOM     29  C   UNL     1       6.203   6.048  14.942  0.00  0.00    +0.000 A 
ATOM     30  C   UNL     1       6.611   4.862  14.326  0.00  0.00    +0.000 A 
ATOM     31  C   UNL     1       6.240   3.627  14.878  0.00  0.00    +0.000 A 
ATOM     32  C   UNL     1       5.433   3.581  16.018  0.00  0.00    +0.000 A 
BRANCH  30  33
ATOM     33  C   UNL     1       7.478   4.968  13.126  0.00  0.00    +0.000 C 
ATOM     34  O   UNL     1       7.299   4.315  12.117  0.00  0.00    +0.000 OA
BRANCH  33  35
ATOM     35  O   UNL     1       8.516   5.821  13.281  0.00  0.00    +0.000 OA
ATOM     36  H   UNL     1       9.392   5.398  13.331  0.00  0.00    +0.000 HD
ENDBRANCH  33  35
ENDBRANCH  30  33
ENDBRANCH  26  27
ENDBRANCH  25  26
ENDBRANCH   6  25
TORSDOF 9
ENDMDL
MODEL 4
REMARK VINA RESULT:      -8.4      0.575      1.417
REMARK  Name = 
REMARK  11 active torsions:
REMARK  status: ('A' for Active; 'I' for Inactive)
REMARK    1  A    between atoms: C_1  and  O_2
REMARK    2  A    between atoms: O_2  and  C_3
REMARK    3  A    between atoms: C_5  and  C_6
REMARK    4  A    between atoms: N_11  and  C_12
REMARK    5  A    between atoms: C_12  and  C_13
REMARK    6  A    between atoms: C_16  and  C_17
REMARK    7  A    between atoms: C_24  and  O_25
REMARK    8  A    between atoms: O_25  and  C_26
REMARK    9  A    between atoms: C_26  and  C_27
REMARK   10  A    between atoms: C_30  and  C_31
REMARK   11  A    between atoms: C_31  and  O_33
REMARK                            x       y       z     vdW  Elec       q    Type
REMARK                         _______ _______ _______ _____ _____    ______ ____
ROOT
ATOM      1  C   UNL     1       1.444   4.544  19.461  0.00  0.00    +0.000 A 
ATOM      2  C   UNL     1       1.457   5.506  20.478  0.00  0.00    +0.000 A 
ATOM      3  C   UNL     1       1.782   6.832  20.191  0.00  0.00    +0.000 A 
ATOM      4  C   UNL     1       2.205   7.186  18.914  0.00  0.00    +0.000 A 
ATOM      5  C   UNL     1       2.279   6.217  17.924  0.00  0.00    +0.000 A 
ATOM      6  C   UNL     1       1.932   4.880  18.184  0.00  0.00    +0.000 A 
ENDROOT
BRANCH   3   7
ATOM      7  C   UNL     1       1.451   7.881  21.151  0.00  0.00    +0.000 C 
ATOM      8  C   UNL     1       0.835   9.007  20.757  0.00  0.00    +0.000 C 
ATOM      9  S   UNL     1       0.317   9.421  19.165  0.00  0.00    +0.000 S 
ATOM     10  C   UNL     1      -0.047  11.069  19.629  0.00  0.00    +0.000 C 
ATOM     11  O   UNL     1      -0.326  11.933  18.816  0.00  0.00    +0.000 OA
ATOM     12  N   UNL     1       0.101  11.209  20.984  0.00  0.00    +0.000 N 
ATOM     13  C   UNL     1       0.588  10.134  21.684  0.00  0.00    +0.000 C 
ATOM     14  O   UNL     1       0.850  10.099  22.876  0.00  0.00    +0.000 OA
BRANCH  12  15
ATOM     15  C   UNL     1      -0.050  12.497  21.609  0.00  0.00    +0.000 C 
BRANCH  15  16
ATOM     16  C   UNL     1      -1.462  12.781  22.062  0.00  0.00    +0.000 A 
ATOM     17  C   UNL     1      -2.319  13.564  21.278  0.00  0.00    +0.000 A 
ATOM     18  C   UNL     1      -3.658  13.727  21.641  0.00  0.00    +0.000 A 
ATOM     19  C   UNL     1      -4.157  13.125  22.801  0.00  0.00    +0.000 A 
ATOM     20  C   UNL     1      -5.610  13.225  23.161  0.00  0.00    +0.000 C 
ATOM     21  C   UNL     1      -3.287  12.387  23.612  0.00  0.00    +0.000 A 
ATOM     22  C   UNL     1      -1.950  12.224  23.251  0.00  0.00    +0.000 A 
ENDBRANCH  15  16
ENDBRANCH  12  15
ENDBRANCH   3   7
BRANCH   1  24
ATOM     23  C   UNL     1       1.614   2.525  20.679  0.00  0.00    +0.000 C 
ATOM     24  O   UNL     1       0.937   3.284  19.668  0.00  0.00    +0.000 OA
ENDBRANCH   1  24
BRANCH   6  25
ATOM     25  O   UNL     1       2.034   3.889  17.227  0.00  0.00    +0.000 OA
BRANCH  25  26
ATOM     26  C   UNL     1       3.311   3.236  17.216  0.00  0.00    +0.000 C 
BRANCH  26  27
ATOM     27  C   UNL     1       4.469   4.096  17.660  0.00  0.00    +0.000 A 
ATOM     28  C   UNL     1       4.841   4.068  19.016  0.00  0.00    +0.000 A 
ATOM     29  C   UNL     1       5.976   4.745  19.457  0.00  0.00    +0.000 A 
ATOM     30  C   UNL     1       6.758   5.459  18.544  0.00  0.00    +0.000 A 
ATOM     31  C   UNL     1       6.412   5.463  17.185  0.00  0.00    +0.000 A 
ATOM     32  C   UNL     1       5.269   4.788  16.749  0.00  0.00    +0.000 A 
BRANCH  30  33
ATOM     33  C   UNL     1       7.969   6.147  19.058  0.00  0.00    +0.000 C 
ATOM     34  O   UNL     1       8.367   7.208  18.620  0.00  0.00    +0.000 OA
BRANCH  33  35
ATOM     35  O   UNL     1       8.614   5.456  20.025  0.00  0.00    +0.000 OA
ATOM     36  H   UNL     1       8.251   5.569  20.922  0.00  0.00    +0.000 HD
ENDBRANCH  33  35
ENDBRANCH  30  33
ENDBRANCH  26  27
ENDBRANCH  25  26
ENDBRANCH   6  25
TORSDOF 9
ENDMDL
MODEL 5
REMARK VINA RESULT:      -8.4      1.823      2.339
REMARK  Name = 
REMARK  11 active torsions:
REMARK  status: ('A' for Active; 'I' for Inactive)
REMARK    1  A    between atoms: C_1  and  O_2
REMARK    2  A    between atoms: O_2  and  C_3
REMARK    3  A    between atoms: C_5  and  C_6
REMARK    4  A    between atoms: N_11  and  C_12
REMARK    5  A    between atoms: C_12  and  C_13
REMARK    6  A    between atoms: C_16  and  C_17
REMARK    7  A    between atoms: C_24  and  O_25
REMARK    8  A    between atoms: O_25  and  C_26
REMARK    9  A    between atoms: C_26  and  C_27
REMARK   10  A    between atoms: C_30  and  C_31
REMARK   11  A    between atoms: C_31  and  O_33
REMARK                            x       y       z     vdW  Elec       q    Type
REMARK                         _______ _______ _______ _____ _____    ______ ____
ROOT
ATOM      1  C   UNL     1       1.695   4.423  19.320  0.00  0.00    +0.000 A 
ATOM      2  C   UNL     1       1.320   5.274  20.367  0.00  0.00    +0.000 A 
ATOM      3  C   UNL     1       1.851   6.560  20.455  0.00  0.00    +0.000 A 
ATOM      4  C   UNL     1       2.843   6.969  19.569  0.00  0.00    +0.000 A 
ATOM      5  C   UNL     1       3.282   6.095  18.584  0.00  0.00    +0.000 A 
ATOM      6  C   UNL     1       2.741   4.804  18.460  0.00  0.00    +0.000 A 
ENDROOT
BRANCH   3   7
ATOM      7  C   UNL     1       1.206   7.552  21.311  0.00  0.00    +0.000 C 
ATOM      8  C   UNL     1       0.826   8.744  20.821  0.00  0.00    +0.000 C 
ATOM      9  S   UNL     1       0.980   9.311  19.200  0.00  0.00    +0.000 S 
ATOM     10  C   UNL     1       0.515  10.940  19.645  0.00  0.00    +0.000 C 
ATOM     11  O   UNL     1       0.600  11.881  18.875  0.00  0.00    +0.000 OA
ATOM     12  N   UNL     1       0.130  10.965  20.960  0.00  0.00    +0.000 N 
ATOM     13  C   UNL     1       0.274   9.809  21.686  0.00  0.00    +0.000 C 
ATOM     14  O   UNL     1       0.051   9.665  22.879  0.00  0.00    +0.000 OA
BRANCH  12  15
ATOM     15  C   UNL     1      -0.212  12.208  21.601  0.00  0.00    +0.000 C 
BRANCH  15  16
ATOM     16  C   UNL     1      -1.691  12.358  21.866  0.00  0.00    +0.000 A 
ATOM     17  C   UNL     1      -2.196  12.252  23.168  0.00  0.00    +0.000 A 
ATOM     18  C   UNL     1      -3.545  12.507  23.426  0.00  0.00    +0.000 A 
ATOM     19  C   UNL     1      -4.414  12.853  22.386  0.00  0.00    +0.000 A 
ATOM     20  C   UNL     1      -5.846  13.207  22.658  0.00  0.00    +0.000 C 
ATOM     21  C   UNL     1      -3.919  12.906  21.077  0.00  0.00    +0.000 A 
ATOM     22  C   UNL     1      -2.572  12.651  20.818  0.00  0.00    +0.000 A 
ENDBRANCH  15  16
ENDBRANCH  12  15
ENDBRANCH   3   7
BRANCH   1  24
ATOM     23  C   UNL     1       1.481   2.144  19.913  0.00  0.00    +0.000 C 
ATOM     24  O   UNL     1       1.044   3.234  19.091  0.00  0.00    +0.000 OA
ENDBRANCH   1  24
BRANCH   6  25
ATOM     25  O   UNL     1       3.187   3.902  17.513  0.00  0.00    +0.000 OA
BRANCH  25  26
ATOM     26  C   UNL     1       4.606   3.694  17.548  0.00  0.00    +0.000 C 
BRANCH  26  27
ATOM     27  C   UNL     1       5.346   4.147  16.312  0.00  0.00    +0.000 A 
ATOM     28  C   UNL     1       6.652   4.645  16.461  0.00  0.00    +0.000 A 
ATOM     29  C   UNL     1       7.424   4.962  15.345  0.00  0.00    +0.000 A 
ATOM     30  C   UNL     1       6.899   4.782  14.062  0.00  0.00    +0.000 A 
ATOM     31  C   UNL     1       5.610   4.254  13.906  0.00  0.00    +0.000 A 
ATOM     32  C   UNL     1       4.836   3.944  15.028  0.00  0.00    +0.000 A 
BRANCH  30  33
ATOM     33  C   UNL     1       7.767   5.114  12.905  0.00  0.00    +0.000 C 
ATOM     34  O   UNL     1       7.587   4.669  11.789  0.00  0.00    +0.000 OA
BRANCH  33  35
ATOM     35  O   UNL     1       8.807   5.919  13.221  0.00  0.00    +0.000 OA
ATOM     36  H   UNL     1       8.875   6.151  14.165  0.00  0.00    +0.000 HD
ENDBRANCH  33  35
ENDBRANCH  30  33
ENDBRANCH  26  27
ENDBRANCH  25  26
ENDBRANCH   6  25
TORSDOF 9
ENDMDL
MODEL 6
REMARK VINA RESULT:      -8.3      1.962      2.644
REMARK  Name = 
REMARK  11 active torsions:
REMARK  status: ('A' for Active; 'I' for Inactive)
REMARK    1  A    between atoms: C_1  and  O_2
REMARK    2  A    between atoms: O_2  and  C_3
REMARK    3  A    between atoms: C_5  and  C_6
REMARK    4  A    between atoms: N_11  and  C_12
REMARK    5  A    between atoms: C_12  and  C_13
REMARK    6  A    between atoms: C_16  and  C_17
REMARK    7  A    between atoms: C_24  and  O_25
REMARK    8  A    between atoms: O_25  and  C_26
REMARK    9  A    between atoms: C_26  and  C_27
REMARK   10  A    between atoms: C_30  and  C_31
REMARK   11  A    between atoms: C_31  and  O_33
REMARK                            x       y       z     vdW  Elec       q    Type
REMARK                         _______ _______ _______ _____ _____    ______ ____
ROOT
ATOM      1  C   UNL     1       1.642   6.029  20.015  0.00  0.00    +0.000 A 
ATOM      2  C   UNL     1       1.416   7.132  20.849  0.00  0.00    +0.000 A 
ATOM      3  C   UNL     1       1.568   8.429  20.359  0.00  0.00    +0.000 A 
ATOM      4  C   UNL     1       2.053   8.638  19.072  0.00  0.00    +0.000 A 
ATOM      5  C   UNL     1       2.363   7.547  18.272  0.00  0.00    +0.000 A 
ATOM      6  C   UNL     1       2.193   6.231  18.736  0.00  0.00    +0.000 A 
ENDROOT
BRANCH   3   7
ATOM      7  C   UNL     1       0.996   9.552  21.097  0.00  0.00    +0.000 C 
ATOM      8  C   UNL     1      -0.041  10.247  20.602  0.00  0.00    +0.000 C 
ATOM      9  S   UNL     1      -0.876   9.975  19.118  0.00  0.00    +0.000 S 
ATOM     10  C   UNL     1      -1.767  11.476  19.256  0.00  0.00    +0.000 C 
ATOM     11  O   UNL     1      -2.450  11.920  18.349  0.00  0.00    +0.000 OA
ATOM     12  N   UNL     1      -1.508  12.055  20.471  0.00  0.00    +0.000 N 
ATOM     13  C   UNL     1      -0.568  11.456  21.272  0.00  0.00    +0.000 C 
ATOM     14  O   UNL     1      -0.161  11.865  22.348  0.00  0.00    +0.000 OA
BRANCH  12  15
ATOM     15  C   UNL     1      -2.046  13.350  20.796  0.00  0.00    +0.000 C 
BRANCH  15  16
ATOM     16  C   UNL     1      -3.331  13.283  21.586  0.00  0.00    +0.000 A 
ATOM     17  C   UNL     1      -4.569  13.417  20.945  0.00  0.00    +0.000 A 
ATOM     18  C   UNL     1      -5.758  13.238  21.658  0.00  0.00    +0.000 A 
ATOM     19  C   UNL     1      -5.727  12.938  23.024  0.00  0.00    +0.000 A 
ATOM     20  C   UNL     1      -6.991  12.665  23.785  0.00  0.00    +0.000 C 
ATOM     21  C   UNL     1      -4.491  12.857  23.674  0.00  0.00    +0.000 A 
ATOM     22  C   UNL     1      -3.303  13.037  22.964  0.00  0.00    +0.000 A 
ENDBRANCH  15  16
ENDBRANCH  12  15
ENDBRANCH   3   7
BRANCH   1  24
ATOM     23  C   UNL     1       2.195   4.171  21.367  0.00  0.00    +0.000 C 
ATOM     24  O   UNL     1       1.309   4.754  20.403  0.00  0.00    +0.000 OA
ENDBRANCH   1  24
BRANCH   6  25
ATOM     25  O   UNL     1       2.530   5.128  17.975  0.00  0.00    +0.000 OA
BRANCH  25  26
ATOM     26  C   UNL     1       3.869   4.666  18.202  0.00  0.00    +0.000 C 
BRANCH  26  27
ATOM     27  C   UNL     1       4.789   4.772  17.011  0.00  0.00    +0.000 A 
ATOM     28  C   UNL     1       5.255   3.585  16.418  0.00  0.00    +0.000 A 
ATOM     29  C   UNL     1       6.005   3.622  15.244  0.00  0.00    +0.000 A 
ATOM     30  C   UNL     1       6.299   4.850  14.645  0.00  0.00    +0.000 A 
ATOM     31  C   UNL     1       5.809   6.035  15.211  0.00  0.00    +0.000 A 
ATOM     32  C   UNL     1       5.062   5.994  16.392  0.00  0.00    +0.000 A 
BRANCH  30  33
ATOM     33  C   UNL     1       7.083   4.835  13.385  0.00  0.00    +0.000 C 
ATOM     34  O   UNL     1       7.948   5.651  13.131  0.00  0.00    +0.000 OA
BRANCH  33  35
ATOM     35  O   UNL     1       6.711   3.860  12.526  0.00  0.00    +0.000 OA
ATOM     36  H   UNL     1       6.471   4.169  11.633  0.00  0.00    +0.000 HD
ENDBRANCH  33  35
ENDBRANCH  30  33
ENDBRANCH  26  27
ENDBRANCH  25  26
ENDBRANCH   6  25
TORSDOF 9
ENDMDL
MODEL 7
REMARK VINA RESULT:      -8.3      2.492      3.553
REMARK  Name = 
REMARK  11 active torsions:
REMARK  status: ('A' for Active; 'I' for Inactive)
REMARK    1  A    between atoms: C_1  and  O_2
REMARK    2  A    between atoms: O_2  and  C_3
REMARK    3  A    between atoms: C_5  and  C_6
REMARK    4  A    between atoms: N_11  and  C_12
REMARK    5  A    between atoms: C_12  and  C_13
REMARK    6  A    between atoms: C_16  and  C_17
REMARK    7  A    between atoms: C_24  and  O_25
REMARK    8  A    between atoms: O_25  and  C_26
REMARK    9  A    between atoms: C_26  and  C_27
REMARK   10  A    between atoms: C_30  and  C_31
REMARK   11  A    between atoms: C_31  and  O_33
REMARK                            x       y       z     vdW  Elec       q    Type
REMARK                         _______ _______ _______ _____ _____    ______ ____
ROOT
ATOM      1  C   UNL     1       2.574   6.151  19.789  0.00  0.00    +0.000 A 
ATOM      2  C   UNL     1       1.923   7.381  19.948  0.00  0.00    +0.000 A 
ATOM      3  C   UNL     1       1.993   8.351  18.949  0.00  0.00    +0.000 A 
ATOM      4  C   UNL     1       2.802   8.149  17.835  0.00  0.00    +0.000 A 
ATOM      5  C   UNL     1       3.520   6.967  17.715  0.00  0.00    +0.000 A 
ATOM      6  C   UNL     1       3.444   5.965  18.697  0.00  0.00    +0.000 A 
ENDROOT
BRANCH   3   7
ATOM      7  C   UNL     1       1.043   9.460  18.950  0.00  0.00    +0.000 C 
ATOM      8  C   UNL     1       0.602   9.989  20.103  0.00  0.00    +0.000 C 
ATOM      9  S   UNL     1       1.042   9.531  21.706  0.00  0.00    +0.000 S 
ATOM     10  C   UNL     1      -0.209  10.528  22.417  0.00  0.00    +0.000 C 
ATOM     11  O   UNL     1      -0.493  10.481  23.601  0.00  0.00    +0.000 OA
ATOM     12  N   UNL     1      -0.817  11.270  21.438  0.00  0.00    +0.000 N 
ATOM     13  C   UNL     1      -0.443  11.036  20.139  0.00  0.00    +0.000 C 
ATOM     14  O   UNL     1      -0.922  11.548  19.139  0.00  0.00    +0.000 OA
BRANCH  12  15
ATOM     15  C   UNL     1      -1.947  12.107  21.747  0.00  0.00    +0.000 C 
BRANCH  15  16
ATOM     16  C   UNL     1      -1.563  13.519  22.118  0.00  0.00    +0.000 A 
ATOM     17  C   UNL     1      -1.497  14.520  21.141  0.00  0.00    +0.000 A 
ATOM     18  C   UNL     1      -1.255  15.848  21.505  0.00  0.00    +0.000 A 
ATOM     19  C   UNL     1      -1.060  16.192  22.846  0.00  0.00    +0.000 A 
ATOM     20  C   UNL     1      -0.879  17.623  23.260  0.00  0.00    +0.000 C 
ATOM     21  C   UNL     1      -1.073  15.182  23.816  0.00  0.00    +0.000 A 
ATOM     22  C   UNL     1      -1.313  13.856  23.455  0.00  0.00    +0.000 A 
ENDBRANCH  15  16
ENDBRANCH  12  15
ENDBRANCH   3   7
BRANCH   1  24
ATOM     23  C   UNL     1       1.195   4.321  20.370  0.00  0.00    +0.000 C 
ATOM     24  O   UNL     1       2.361   5.106  20.655  0.00  0.00    +0.000 OA
ENDBRANCH   1  24
BRANCH   6  25
ATOM     25  O   UNL     1       4.177   4.797  18.622  0.00  0.00    +0.000 OA
BRANCH  25  26
ATOM     26  C   UNL     1       5.557   5.010  18.292  0.00  0.00    +0.000 C 
BRANCH  26  27
ATOM     27  C   UNL     1       5.938   4.639  16.880  0.00  0.00    +0.000 A 
ATOM     28  C   UNL     1       5.056   3.830  16.140  0.00  0.00    +0.000 A 
ATOM     29  C   UNL     1       5.297   3.559  14.795  0.00  0.00    +0.000 A 
ATOM     30  C   UNL     1       6.425   4.096  14.169  0.00  0.00    +0.000 A 
ATOM     31  C   UNL     1       7.290   4.931  14.890  0.00  0.00    +0.000 A 
ATOM     32  C   UNL     1       7.049   5.195  16.241  0.00  0.00    +0.000 A 
BRANCH  30  33
ATOM     33  C   UNL     1       6.628   3.795  12.730  0.00  0.00    +0.000 C 
ATOM     34  O   UNL     1       7.308   4.486  11.995  0.00  0.00    +0.000 OA
BRANCH  33  35
ATOM     35  O   UNL     1       5.944   2.710  12.301  0.00  0.00    +0.000 OA
ATOM     36  H   UNL     1       5.444   2.840  11.475  0.00  0.00    +0.000 HD
ENDBRANCH  33  35
ENDBRANCH  30  33
ENDBRANCH  26  27
ENDBRANCH  25  26
ENDBRANCH   6  25
TORSDOF 9
ENDMDL
MODEL 8
REMARK VINA RESULT:      -8.0      2.547      3.486
REMARK  Name = 
REMARK  11 active torsions:
REMARK  status: ('A' for Active; 'I' for Inactive)
REMARK    1  A    between atoms: C_1  and  O_2
REMARK    2  A    between atoms: O_2  and  C_3
REMARK    3  A    between atoms: C_5  and  C_6
REMARK    4  A    between atoms: N_11  and  C_12
REMARK    5  A    between atoms: C_12  and  C_13
REMARK    6  A    between atoms: C_16  and  C_17
REMARK    7  A    between atoms: C_24  and  O_25
REMARK    8  A    between atoms: O_25  and  C_26
REMARK    9  A    between atoms: C_26  and  C_27
REMARK   10  A    between atoms: C_30  and  C_31
REMARK   11  A    between atoms: C_31  and  O_33
REMARK                            x       y       z     vdW  Elec       q    Type
REMARK                         _______ _______ _______ _____ _____    ______ ____
ROOT
ATOM      1  C   UNL     1       2.627   6.139  19.745  0.00  0.00    +0.000 A 
ATOM      2  C   UNL     1       1.895   7.325  19.882  0.00  0.00    +0.000 A 
ATOM      3  C   UNL     1       1.986   8.327  18.917  0.00  0.00    +0.000 A 
ATOM      4  C   UNL     1       2.891   8.205  17.867  0.00  0.00    +0.000 A 
ATOM      5  C   UNL     1       3.684   7.070  17.776  0.00  0.00    +0.000 A 
ATOM      6  C   UNL     1       3.590   6.035  18.723  0.00  0.00    +0.000 A 
ENDROOT
BRANCH   3   7
ATOM      7  C   UNL     1       0.976   9.380  18.870  0.00  0.00    +0.000 C 
ATOM      8  C   UNL     1       0.549   9.978  19.995  0.00  0.00    +0.000 C 
ATOM      9  S   UNL     1       1.075   9.677  21.609  0.00  0.00    +0.000 S 
ATOM     10  C   UNL     1      -0.204  10.661  22.290  0.00  0.00    +0.000 C 
ATOM     11  O   UNL     1      -0.439  10.696  23.485  0.00  0.00    +0.000 OA
ATOM     12  N   UNL     1      -0.889  11.287  21.282  0.00  0.00    +0.000 N 
ATOM     13  C   UNL     1      -0.551  10.967  19.991  0.00  0.00    +0.000 C 
ATOM     14  O   UNL     1      -1.096  11.369  18.974  0.00  0.00    +0.000 OA
BRANCH  12  15
ATOM     15  C   UNL     1      -2.052  12.085  21.570  0.00  0.00    +0.000 C 
BRANCH  15  16
ATOM     16  C   UNL     1      -1.743  13.324  22.374  0.00  0.00    +0.000 A 
ATOM     17  C   UNL     1      -2.437  13.596  23.560  0.00  0.00    +0.000 A 
ATOM     18  C   UNL     1      -2.069  14.680  24.362  0.00  0.00    +0.000 A 
ATOM     19  C   UNL     1      -1.015  15.518  23.983  0.00  0.00    +0.000 A 
ATOM     20  C   UNL     1      -0.558  16.637  24.871  0.00  0.00    +0.000 C 
ATOM     21  C   UNL     1      -0.358  15.277  22.771  0.00  0.00    +0.000 A 
ATOM     22  C   UNL     1      -0.724  14.196  21.969  0.00  0.00    +0.000 A 
ENDBRANCH  15  16
ENDBRANCH  12  15
ENDBRANCH   3   7
BRANCH   1  24
ATOM     23  C   UNL     1       1.184   4.355  20.312  0.00  0.00    +0.000 C 
ATOM     24  O   UNL     1       2.407   5.058  20.564  0.00  0.00    +0.000 OA
ENDBRANCH   1  24
BRANCH   6  25
ATOM     25  O   UNL     1       4.394   4.913  18.678  0.00  0.00    +0.000 OA
BRANCH  25  26
ATOM     26  C   UNL     1       5.688   5.162  18.109  0.00  0.00    +0.000 C 
BRANCH  26  27
ATOM     27  C   UNL     1       5.807   4.850  16.638  0.00  0.00    +0.000 A 
ATOM     28  C   UNL     1       6.920   5.348  15.937  0.00  0.00    +0.000 A 
ATOM     29  C   UNL     1       7.144   4.988  14.609  0.00  0.00    +0.000 A 
ATOM     30  C   UNL     1       6.256   4.123  13.964  0.00  0.00    +0.000 A 
ATOM     31  C   UNL     1       5.163   3.596  14.666  0.00  0.00    +0.000 A 
ATOM     32  C   UNL     1       4.939   3.963  15.996  0.00  0.00    +0.000 A 
BRANCH  30  33
ATOM     33  C   UNL     1       6.548   3.755  12.556  0.00  0.00    +0.000 C 
ATOM     34  O   UNL     1       6.022   2.815  11.992  0.00  0.00    +0.000 OA
BRANCH  33  35
ATOM     35  O   UNL     1       7.491   4.531  11.977  0.00  0.00    +0.000 OA
ATOM     36  H   UNL     1       7.247   4.892  11.106  0.00  0.00    +0.000 HD
ENDBRANCH  33  35
ENDBRANCH  30  33
ENDBRANCH  26  27
ENDBRANCH  25  26
ENDBRANCH   6  25
TORSDOF 9
ENDMDL
MODEL 9
REMARK VINA RESULT:      -8.0      2.466      3.489
REMARK  Name = 
REMARK  11 active torsions:
REMARK  status: ('A' for Active; 'I' for Inactive)
REMARK    1  A    between atoms: C_1  and  O_2
REMARK    2  A    between atoms: O_2  and  C_3
REMARK    3  A    between atoms: C_5  and  C_6
REMARK    4  A    between atoms: N_11  and  C_12
REMARK    5  A    between atoms: C_12  and  C_13
REMARK    6  A    between atoms: C_16  and  C_17
REMARK    7  A    between atoms: C_24  and  O_25
REMARK    8  A    between atoms: O_25  and  C_26
REMARK    9  A    between atoms: C_26  and  C_27
REMARK   10  A    between atoms: C_30  and  C_31
REMARK   11  A    between atoms: C_31  and  O_33
REMARK                            x       y       z     vdW  Elec       q    Type
REMARK                         _______ _______ _______ _____ _____    ______ ____
ROOT
ATOM      1  C   UNL     1       1.916   5.155  19.543  0.00  0.00    +0.000 A 
ATOM      2  C   UNL     1       1.663   6.177  20.466  0.00  0.00    +0.000 A 
ATOM      3  C   UNL     1       1.906   7.508  20.130  0.00  0.00    +0.000 A 
ATOM      4  C   UNL     1       2.508   7.823  18.916  0.00  0.00    +0.000 A 
ATOM      5  C   UNL     1       2.842   6.805  18.034  0.00  0.00    +0.000 A 
ATOM      6  C   UNL     1       2.582   5.459  18.340  0.00  0.00    +0.000 A 
ENDROOT
BRANCH   3   7
ATOM      7  C   UNL     1       1.318   8.576  20.934  0.00  0.00    +0.000 C 
ATOM      8  C   UNL     1       0.521   9.502  20.374  0.00  0.00    +0.000 C 
ATOM      9  S   UNL     1       0.036   9.612  18.723  0.00  0.00    +0.000 S 
ATOM     10  C   UNL     1      -0.670  11.197  18.956  0.00  0.00    +0.000 C 
ATOM     11  O   UNL     1      -1.058  11.886  18.029  0.00  0.00    +0.000 OA
ATOM     12  N   UNL     1      -0.638  11.523  20.287  0.00  0.00    +0.000 N 
ATOM     13  C   UNL     1       0.002  10.658  21.138  0.00  0.00    +0.000 C 
ATOM     14  O   UNL     1       0.189  10.817  22.334  0.00  0.00    +0.000 OA
BRANCH  12  15
ATOM     15  C   UNL     1      -1.076  12.820  20.735  0.00  0.00    +0.000 C 
BRANCH  15  16
ATOM     16  C   UNL     1      -0.182  13.945  20.275  0.00  0.00    +0.000 A 
ATOM     17  C   UNL     1       1.191  13.923  20.551  0.00  0.00    +0.000 A 
ATOM     18  C   UNL     1       2.035  14.905  20.024  0.00  0.00    +0.000 A 
ATOM     19  C   UNL     1       1.517  15.932  19.228  0.00  0.00    +0.000 A 
ATOM     20  C   UNL     1       2.419  16.947  18.589  0.00  0.00    +0.000 C 
ATOM     21  C   UNL     1       0.137  15.983  18.996  0.00  0.00    +0.000 A 
ATOM     22  C   UNL     1      -0.706  15.004  19.523  0.00  0.00    +0.000 A 
ENDBRANCH  15  16
ENDBRANCH  12  15
ENDBRANCH   3   7
BRANCH   1  24
ATOM     23  C   UNL     1       1.663   3.409  21.116  0.00  0.00    +0.000 C 
ATOM     24  O   UNL     1       1.501   3.864  19.766  0.00  0.00    +0.000 OA
ENDBRANCH   1  24
BRANCH   6  25
ATOM     25  O   UNL     1       2.940   4.424  17.498  0.00  0.00    +0.000 OA
BRANCH  25  26
ATOM     26  C   UNL     1       4.261   3.920  17.743  0.00  0.00    +0.000 C 
BRANCH  26  27
ATOM     27  C   UNL     1       5.272   4.238  16.669  0.00  0.00    +0.000 A 
ATOM     28  C   UNL     1       5.297   3.434  15.515  0.00  0.00    +0.000 A 
ATOM     29  C   UNL     1       6.124   3.756  14.441  0.00  0.00    +0.000 A 
ATOM     30  C   UNL     1       6.938   4.890  14.505  0.00  0.00    +0.000 A 
ATOM     31  C   UNL     1       6.893   5.716  15.637  0.00  0.00    +0.000 A 
ATOM     32  C   UNL     1       6.067   5.386  16.716  0.00  0.00    +0.000 A 
BRANCH  30  33
ATOM     33  C   UNL     1       7.786   5.203  13.328  0.00  0.00    +0.000 C 
ATOM     34  O   UNL     1       8.760   5.928  13.383  0.00  0.00    +0.000 OA
BRANCH  33  35
ATOM     35  O   UNL     1       7.344   4.645  12.178  0.00  0.00    +0.000 OA
ATOM     36  H   UNL     1       7.711   3.764  11.982  0.00  0.00    +0.000 HD
ENDBRANCH  33  35
ENDBRANCH  30  33
ENDBRANCH  26  27
ENDBRANCH  25  26
ENDBRANCH   6  25
TORSDOF 9
ENDMDL
