MODEL 1
REMARK VINA RESULT:      -7.6      0.000      0.000
REMARK  Name = 
REMARK  9 active torsions:
REMARK  status: ('A' for Active; 'I' for Inactive)
REMARK    1  A    between atoms: C_2  and  C_3
REMARK    2  A    between atoms: C_3  and  S_4
REMARK    3  A    between atoms: S_4  and  C_5
REMARK    4  A    between atoms: C_5  and  C_6
REMARK    5  A    between atoms: N_12  and  N_13
REMARK    6  A    between atoms: C_14  and  C_15
REMARK    7  A    between atoms: C_18  and  O_19
REMARK    8  A    between atoms: O_19  and  C_20
REMARK    9  A    between atoms: C_20  and  C_21
REMARK                            x       y       z     vdW  Elec       q    Type
REMARK                         _______ _______ _______ _____ _____    ______ ____
ROOT
ATOM      1  C   UNL     1       3.047   7.784  18.069  0.00  0.00    +0.000 A 
ATOM      2  C   UNL     1       2.325   8.965  17.920  0.00  0.00    +0.000 A 
ATOM      3  C   UNL     1       1.396   9.337  18.893  0.00  0.00    +0.000 A 
ATOM      4  C   UNL     1       1.171   8.523  20.006  0.00  0.00    +0.000 A 
ATOM      5  C   UNL     1       1.924   7.360  20.171  0.00  0.00    +0.000 A 
ATOM      6  C   UNL     1       2.859   6.986  19.201  0.00  0.00    +0.000 A 
ENDROOT
BRANCH   1   8
ATOM      7  N   UNL     1       5.248   7.088  17.307  0.00  0.00    +0.000 NA
ATOM      8  C   UNL     1       4.004   7.349  17.034  0.00  0.00    +0.000 C 
BRANCH   7  11
ATOM      9  O   UNL     1       7.402   5.348  15.153  0.00  0.00    +0.000 OA
ATOM     10  C   UNL     1       6.768   5.591  16.185  0.00  0.00    +0.000 C 
ATOM     11  N   UNL     1       5.996   6.729  16.228  0.00  0.00    +0.000 N 
ATOM     12  H   UNL     1       6.013   7.308  15.395  0.00  0.00    +0.000 HD
BRANCH  10  13
ATOM     13  C   UNL     1       6.765   4.697  17.416  0.00  0.00    +0.000 C 
BRANCH  13  14
ATOM     14  S   UNL     1       5.316   3.579  17.476  0.00  0.00    +0.000 S 
BRANCH  14  15
ATOM     15  C   UNL     1       4.810   3.843  19.205  0.00  0.00    +0.000 C 
BRANCH  15  16
ATOM     16  C   UNL     1       3.343   3.547  19.414  0.00  0.00    +0.000 A 
ATOM     17  C   UNL     1       2.857   3.212  20.687  0.00  0.00    +0.000 A 
ATOM     18  C   UNL     1       1.503   2.937  20.883  0.00  0.00    +0.000 A 
ATOM     19  C   UNL     1       0.617   2.986  19.806  0.00  0.00    +0.000 A 
ATOM     20  C   UNL     1       1.088   3.310  18.536  0.00  0.00    +0.000 A 
ATOM     21  C   UNL     1       2.443   3.588  18.337  0.00  0.00    +0.000 A 
ENDBRANCH  15  16
ENDBRANCH  14  15
ENDBRANCH  13  14
ENDBRANCH  10  13
ENDBRANCH   7  11
ENDBRANCH   1   8
BRANCH   4  22
ATOM     22  O   UNL     1       0.210   8.979  20.862  0.00  0.00    +0.000 OA
BRANCH  22  23
ATOM     23  C   UNL     1      -0.045  10.378  20.850  0.00  0.00    +0.000 C 
BRANCH  23  24
ATOM     24  C   UNL     1      -0.562  10.936  22.180  0.00  0.00    +0.000 C 
ATOM     25  O   UNL     1      -0.186  10.429  23.240  0.00  0.00    +0.000 OA
ATOM     26  N   UNL     1      -1.452  12.000  22.138  0.00  0.00    +0.000 N 
ATOM     27  C   UNL     1      -1.834  12.667  23.382  0.00  0.00    +0.000 C 
ATOM     28  C   UNL     1      -3.349  12.805  23.499  0.00  0.00    +0.000 C 
ATOM     29  C   UNL     1      -3.959  13.425  22.242  0.00  0.00    +0.000 C 
ATOM     30  C   UNL     1      -3.513  12.672  20.993  0.00  0.00    +0.000 C 
ATOM     31  C   UNL     1      -1.992  12.593  20.915  0.00  0.00    +0.000 C 
ENDBRANCH  23  24
ENDBRANCH  22  23
ENDBRANCH   4  22
TORSDOF 9
ENDMDL
MODEL 2
REMARK VINA RESULT:      -7.5      1.629      2.061
REMARK  Name = 
REMARK  9 active torsions:
REMARK  status: ('A' for Active; 'I' for Inactive)
REMARK    1  A    between atoms: C_2  and  C_3
REMARK    2  A    between atoms: C_3  and  S_4
REMARK    3  A    between atoms: S_4  and  C_5
REMARK    4  A    between atoms: C_5  and  C_6
REMARK    5  A    between atoms: N_12  and  N_13
REMARK    6  A    between atoms: C_14  and  C_15
REMARK    7  A    between atoms: C_18  and  O_19
REMARK    8  A    between atoms: O_19  and  C_20
REMARK    9  A    between atoms: C_20  and  C_21
REMARK                            x       y       z     vdW  Elec       q    Type
REMARK                         _______ _______ _______ _____ _____    ______ ____
ROOT
ATOM      1  C   UNL     1       3.154   7.639  17.994  0.00  0.00    +0.000 A 
ATOM      2  C   UNL     1       2.432   8.814  17.806  0.00  0.00    +0.000 A 
ATOM      3  C   UNL     1       1.508   9.221  18.769  0.00  0.00    +0.000 A 
ATOM      4  C   UNL     1       1.289   8.449  19.912  0.00  0.00    +0.000 A 
ATOM      5  C   UNL     1       2.042   7.292  20.115  0.00  0.00    +0.000 A 
ATOM      6  C   UNL     1       2.972   6.883  19.155  0.00  0.00    +0.000 A 
ENDROOT
BRANCH   1   8
ATOM      7  N   UNL     1       5.385   7.100  17.192  0.00  0.00    +0.000 NA
ATOM      8  C   UNL     1       4.106   7.166  16.970  0.00  0.00    +0.000 C 
BRANCH   7  11
ATOM      9  O   UNL     1       7.408   5.161  15.082  0.00  0.00    +0.000 OA
ATOM     10  C   UNL     1       6.779   5.464  16.100  0.00  0.00    +0.000 C 
ATOM     11  N   UNL     1       6.118   6.670  16.129  0.00  0.00    +0.000 N 
ATOM     12  H   UNL     1       6.208   7.245  15.297  0.00  0.00    +0.000 HD
BRANCH  10  13
ATOM     13  C   UNL     1       6.665   4.575  17.331  0.00  0.00    +0.000 C 
BRANCH  13  14
ATOM     14  S   UNL     1       5.126   3.584  17.349  0.00  0.00    +0.000 S 
BRANCH  14  15
ATOM     15  C   UNL     1       4.784   3.601  19.137  0.00  0.00    +0.000 C 
BRANCH  15  16
ATOM     16  C   UNL     1       3.312   3.433  19.430  0.00  0.00    +0.000 A 
ATOM     17  C   UNL     1       2.393   3.254  18.385  0.00  0.00    +0.000 A 
ATOM     18  C   UNL     1       1.031   3.099  18.652  0.00  0.00    +0.000 A 
ATOM     19  C   UNL     1       0.570   3.127  19.968  0.00  0.00    +0.000 A 
ATOM     20  C   UNL     1       1.471   3.311  21.015  0.00  0.00    +0.000 A 
ATOM     21  C   UNL     1       2.834   3.464  20.750  0.00  0.00    +0.000 A 
ENDBRANCH  15  16
ENDBRANCH  14  15
ENDBRANCH  13  14
ENDBRANCH  10  13
ENDBRANCH   7  11
ENDBRANCH   1   8
BRANCH   4  22
ATOM     22  O   UNL     1       0.333   8.935  20.756  0.00  0.00    +0.000 OA
BRANCH  22  23
ATOM     23  C   UNL     1      -0.353  10.109  20.336  0.00  0.00    +0.000 C 
BRANCH  23  24
ATOM     24  C   UNL     1      -0.026  11.358  21.160  0.00  0.00    +0.000 C 
ATOM     25  O   UNL     1      -0.139  11.325  22.388  0.00  0.00    +0.000 OA
ATOM     26  N   UNL     1       0.384  12.498  20.481  0.00  0.00    +0.000 N 
ATOM     27  C   UNL     1       0.866  13.651  21.238  0.00  0.00    +0.000 C 
ATOM     28  C   UNL     1       0.181  14.940  20.790  0.00  0.00    +0.000 C 
ATOM     29  C   UNL     1       0.244  15.115  19.273  0.00  0.00    +0.000 C 
ATOM     30  C   UNL     1      -0.277  13.871  18.561  0.00  0.00    +0.000 C 
ATOM     31  C   UNL     1       0.465  12.622  19.026  0.00  0.00    +0.000 C 
ENDBRANCH  23  24
ENDBRANCH  22  23
ENDBRANCH   4  22
TORSDOF 9
ENDMDL
MODEL 3
REMARK VINA RESULT:      -7.4      4.643      7.769
REMARK  Name = 
REMARK  9 active torsions:
REMARK  status: ('A' for Active; 'I' for Inactive)
REMARK    1  A    between atoms: C_2  and  C_3
REMARK    2  A    between atoms: C_3  and  S_4
REMARK    3  A    between atoms: S_4  and  C_5
REMARK    4  A    between atoms: C_5  and  C_6
REMARK    5  A    between atoms: N_12  and  N_13
REMARK    6  A    between atoms: C_14  and  C_15
REMARK    7  A    between atoms: C_18  and  O_19
REMARK    8  A    between atoms: O_19  and  C_20
REMARK    9  A    between atoms: C_20  and  C_21
REMARK                            x       y       z     vdW  Elec       q    Type
REMARK                         _______ _______ _______ _____ _____    ______ ____
ROOT
ATOM      1  C   UNL     1       6.103   5.575  17.658  0.00  0.00    +0.000 A 
ATOM      2  C   UNL     1       6.092   6.769  16.942  0.00  0.00    +0.000 A 
ATOM      3  C   UNL     1       7.030   7.761  17.233  0.00  0.00    +0.000 A 
ATOM      4  C   UNL     1       7.968   7.571  18.251  0.00  0.00    +0.000 A 
ATOM      5  C   UNL     1       8.001   6.358  18.939  0.00  0.00    +0.000 A 
ATOM      6  C   UNL     1       7.066   5.360  18.648  0.00  0.00    +0.000 A 
ENDROOT
BRANCH   1   8
ATOM      7  N   UNL     1       4.437   3.948  18.353  0.00  0.00    +0.000 NA
ATOM      8  C   UNL     1       5.096   4.529  17.396  0.00  0.00    +0.000 C 
BRANCH   7  11
ATOM      9  O   UNL     1       1.820   1.614  18.243  0.00  0.00    +0.000 OA
ATOM     10  C   UNL     1       2.562   2.477  18.722  0.00  0.00    +0.000 C 
ATOM     11  N   UNL     1       3.569   2.987  17.934  0.00  0.00    +0.000 N 
ATOM     12  H   UNL     1       3.639   2.599  16.999  0.00  0.00    +0.000 HD
BRANCH  10  13
ATOM     13  C   UNL     1       2.425   3.036  20.130  0.00  0.00    +0.000 C 
BRANCH  13  14
ATOM     14  S   UNL     1       1.381   4.538  20.197  0.00  0.00    +0.000 S 
BRANCH  14  15
ATOM     15  C   UNL     1       2.686   5.802  20.329  0.00  0.00    +0.000 C 
BRANCH  15  16
ATOM     16  C   UNL     1       2.278   7.102  19.678  0.00  0.00    +0.000 A 
ATOM     17  C   UNL     1       1.504   8.039  20.381  0.00  0.00    +0.000 A 
ATOM     18  C   UNL     1       1.124   9.241  19.782  0.00  0.00    +0.000 A 
ATOM     19  C   UNL     1       1.508   9.521  18.471  0.00  0.00    +0.000 A 
ATOM     20  C   UNL     1       2.271   8.597  17.761  0.00  0.00    +0.000 A 
ATOM     21  C   UNL     1       2.654   7.393  18.358  0.00  0.00    +0.000 A 
ENDBRANCH  15  16
ENDBRANCH  14  15
ENDBRANCH  13  14
ENDBRANCH  10  13
ENDBRANCH   7  11
ENDBRANCH   1   8
BRANCH   4  22
ATOM     22  O   UNL     1       8.804   8.630  18.463  0.00  0.00    +0.000 OA
BRANCH  22  23
ATOM     23  C   UNL     1       8.302   9.917  18.122  0.00  0.00    +0.000 C 
BRANCH  23  24
ATOM     24  C   UNL     1       9.228  11.076  18.507  0.00  0.00    +0.000 C 
ATOM     25  O   UNL     1      10.176  10.871  19.269  0.00  0.00    +0.000 OA
ATOM     26  N   UNL     1       8.954  12.331  17.981  0.00  0.00    +0.000 N 
ATOM     27  C   UNL     1       9.907  13.420  18.187  0.00  0.00    +0.000 C 
ATOM     28  C   UNL     1       9.215  14.676  18.709  0.00  0.00    +0.000 C 
ATOM     29  C   UNL     1       8.007  15.054  17.853  0.00  0.00    +0.000 C 
ATOM     30  C   UNL     1       7.065  13.866  17.689  0.00  0.00    +0.000 C 
ATOM     31  C   UNL     1       7.805  12.653  17.135  0.00  0.00    +0.000 C 
ENDBRANCH  23  24
ENDBRANCH  22  23
ENDBRANCH   4  22
TORSDOF 9
ENDMDL
MODEL 4
REMARK VINA RESULT:      -7.4      0.808      1.227
REMARK  Name = 
REMARK  9 active torsions:
REMARK  status: ('A' for Active; 'I' for Inactive)
REMARK    1  A    between atoms: C_2  and  C_3
REMARK    2  A    between atoms: C_3  and  S_4
REMARK    3  A    between atoms: S_4  and  C_5
REMARK    4  A    between atoms: C_5  and  C_6
REMARK    5  A    between atoms: N_12  and  N_13
REMARK    6  A    between atoms: C_14  and  C_15
REMARK    7  A    between atoms: C_18  and  O_19
REMARK    8  A    between atoms: O_19  and  C_20
REMARK    9  A    between atoms: C_20  and  C_21
REMARK                            x       y       z     vdW  Elec       q    Type
REMARK                         _______ _______ _______ _____ _____    ______ ____
ROOT
ATOM      1  C   UNL     1       2.697   7.703  18.312  0.00  0.00    +0.000 A 
ATOM      2  C   UNL     1       2.460   7.050  19.519  0.00  0.00    +0.000 A 
ATOM      3  C   UNL     1       1.632   7.640  20.475  0.00  0.00    +0.000 A 
ATOM      4  C   UNL     1       1.053   8.889  20.237  0.00  0.00    +0.000 A 
ATOM      5  C   UNL     1       1.261   9.521  19.010  0.00  0.00    +0.000 A 
ATOM      6  C   UNL     1       2.086   8.932  18.048  0.00  0.00    +0.000 A 
ENDROOT
BRANCH   1   8
ATOM      7  N   UNL     1       4.892   7.248  17.373  0.00  0.00    +0.000 NA
ATOM      8  C   UNL     1       3.601   7.119  17.303  0.00  0.00    +0.000 C 
BRANCH   7  11
ATOM      9  O   UNL     1       7.301   5.516  15.501  0.00  0.00    +0.000 OA
ATOM     10  C   UNL     1       6.770   6.015  16.498  0.00  0.00    +0.000 C 
ATOM     11  N   UNL     1       5.571   6.672  16.343  0.00  0.00    +0.000 N 
ATOM     12  H   UNL     1       5.206   6.710  15.397  0.00  0.00    +0.000 HD
BRANCH  10  13
ATOM     13  C   UNL     1       7.348   5.936  17.903  0.00  0.00    +0.000 C 
BRANCH  13  14
ATOM     14  S   UNL     1       6.149   5.286  19.125  0.00  0.00    +0.000 S 
BRANCH  14  15
ATOM     15  C   UNL     1       5.420   3.941  18.138  0.00  0.00    +0.000 C 
BRANCH  15  16
ATOM     16  C   UNL     1       3.960   3.730  18.466  0.00  0.00    +0.000 A 
ATOM     17  C   UNL     1       3.559   3.442  19.780  0.00  0.00    +0.000 A 
ATOM     18  C   UNL     1       2.211   3.246  20.086  0.00  0.00    +0.000 A 
ATOM     19  C   UNL     1       1.247   3.328  19.081  0.00  0.00    +0.000 A 
ATOM     20  C   UNL     1       1.633   3.606  17.772  0.00  0.00    +0.000 A 
ATOM     21  C   UNL     1       2.981   3.805  17.463  0.00  0.00    +0.000 A 
ENDBRANCH  15  16
ENDBRANCH  14  15
ENDBRANCH  13  14
ENDBRANCH  10  13
ENDBRANCH   7  11
ENDBRANCH   1   8
BRANCH   4  22
ATOM     22  O   UNL     1       0.297   9.374  21.265  0.00  0.00    +0.000 OA
BRANCH  22  23
ATOM     23  C   UNL     1      -0.433  10.569  21.012  0.00  0.00    +0.000 C 
BRANCH  23  24
ATOM     24  C   UNL     1      -0.930  11.281  22.274  0.00  0.00    +0.000 C 
ATOM     25  O   UNL     1      -0.510  10.928  23.379  0.00  0.00    +0.000 OA
ATOM     26  N   UNL     1      -1.854  12.306  22.122  0.00  0.00    +0.000 N 
ATOM     27  C   UNL     1      -2.223  13.119  23.280  0.00  0.00    +0.000 C 
ATOM     28  C   UNL     1      -3.738  13.229  23.425  0.00  0.00    +0.000 C 
ATOM     29  C   UNL     1      -4.401  13.663  22.119  0.00  0.00    +0.000 C 
ATOM     30  C   UNL     1      -3.966  12.765  20.965  0.00  0.00    +0.000 C 
ATOM     31  C   UNL     1      -2.446  12.719  20.850  0.00  0.00    +0.000 C 
ENDBRANCH  23  24
ENDBRANCH  22  23
ENDBRANCH   4  22
TORSDOF 9
ENDMDL
MODEL 5
REMARK VINA RESULT:      -7.4      0.559      1.345
REMARK  Name = 
REMARK  9 active torsions:
REMARK  status: ('A' for Active; 'I' for Inactive)
REMARK    1  A    between atoms: C_2  and  C_3
REMARK    2  A    between atoms: C_3  and  S_4
REMARK    3  A    between atoms: S_4  and  C_5
REMARK    4  A    between atoms: C_5  and  C_6
REMARK    5  A    between atoms: N_12  and  N_13
REMARK    6  A    between atoms: C_14  and  C_15
REMARK    7  A    between atoms: C_18  and  O_19
REMARK    8  A    between atoms: O_19  and  C_20
REMARK    9  A    between atoms: C_20  and  C_21
REMARK                            x       y       z     vdW  Elec       q    Type
REMARK                         _______ _______ _______ _____ _____    ______ ____
ROOT
ATOM      1  C   UNL     1       2.949   7.868  17.970  0.00  0.00    +0.000 A 
ATOM      2  C   UNL     1       2.700   7.351  19.239  0.00  0.00    +0.000 A 
ATOM      3  C   UNL     1       1.718   7.930  20.043  0.00  0.00    +0.000 A 
ATOM      4  C   UNL     1       0.993   9.036  19.591  0.00  0.00    +0.000 A 
ATOM      5  C   UNL     1       1.218   9.526  18.304  0.00  0.00    +0.000 A 
ATOM      6  C   UNL     1       2.199   8.946  17.493  0.00  0.00    +0.000 A 
ENDROOT
BRANCH   1   8
ATOM      7  N   UNL     1       5.272   7.503  17.356  0.00  0.00    +0.000 NA
ATOM      8  C   UNL     1       4.011   7.299  17.119  0.00  0.00    +0.000 C 
BRANCH   7  11
ATOM      9  O   UNL     1       7.625   5.384  15.846  0.00  0.00    +0.000 OA
ATOM     10  C   UNL     1       6.904   5.839  16.739  0.00  0.00    +0.000 C 
ATOM     11  N   UNL     1       6.113   6.928  16.453  0.00  0.00    +0.000 N 
ATOM     12  H   UNL     1       6.191   7.297  15.510  0.00  0.00    +0.000 HD
BRANCH  10  13
ATOM     13  C   UNL     1       6.813   5.258  18.142  0.00  0.00    +0.000 C 
BRANCH  13  14
ATOM     14  S   UNL     1       5.580   3.910  18.272  0.00  0.00    +0.000 S 
BRANCH  14  15
ATOM     15  C   UNL     1       4.556   4.575  19.624  0.00  0.00    +0.000 C 
BRANCH  15  16
ATOM     16  C   UNL     1       3.166   3.984  19.619  0.00  0.00    +0.000 A 
ATOM     17  C   UNL     1       2.543   3.636  18.410  0.00  0.00    +0.000 A 
ATOM     18  C   UNL     1       1.259   3.091  18.402  0.00  0.00    +0.000 A 
ATOM     19  C   UNL     1       0.576   2.891  19.603  0.00  0.00    +0.000 A 
ATOM     20  C   UNL     1       1.181   3.239  20.808  0.00  0.00    +0.000 A 
ATOM     21  C   UNL     1       2.467   3.783  20.820  0.00  0.00    +0.000 A 
ENDBRANCH  15  16
ENDBRANCH  14  15
ENDBRANCH  13  14
ENDBRANCH  10  13
ENDBRANCH   7  11
ENDBRANCH   1   8
BRANCH   4  22
ATOM     22  O   UNL     1       0.089   9.533  20.486  0.00  0.00    +0.000 OA
BRANCH  22  23
ATOM     23  C   UNL     1       0.524  10.619  21.295  0.00  0.00    +0.000 C 
BRANCH  23  24
ATOM     24  C   UNL     1      -0.435  10.977  22.435  0.00  0.00    +0.000 C 
ATOM     25  O   UNL     1      -0.358  10.373  23.508  0.00  0.00    +0.000 OA
ATOM     26  N   UNL     1      -1.372  11.976  22.209  0.00  0.00    +0.000 N 
ATOM     27  C   UNL     1      -2.188  12.461  23.321  0.00  0.00    +0.000 C 
ATOM     28  C   UNL     1      -3.671  12.481  22.959  0.00  0.00    +0.000 C 
ATOM     29  C   UNL     1      -3.920  13.205  21.636  0.00  0.00    +0.000 C 
ATOM     30  C   UNL     1      -3.033  12.639  20.532  0.00  0.00    +0.000 C 
ATOM     31  C   UNL     1      -1.564  12.673  20.938  0.00  0.00    +0.000 C 
ENDBRANCH  23  24
ENDBRANCH  22  23
ENDBRANCH   4  22
TORSDOF 9
ENDMDL
MODEL 6
REMARK VINA RESULT:      -7.3      0.615      1.073
REMARK  Name = 
REMARK  9 active torsions:
REMARK  status: ('A' for Active; 'I' for Inactive)
REMARK    1  A    between atoms: C_2  and  C_3
REMARK    2  A    between atoms: C_3  and  S_4
REMARK    3  A    between atoms: S_4  and  C_5
REMARK    4  A    between atoms: C_5  and  C_6
REMARK    5  A    between atoms: N_12  and  N_13
REMARK    6  A    between atoms: C_14  and  C_15
REMARK    7  A    between atoms: C_18  and  O_19
REMARK    8  A    between atoms: O_19  and  C_20
REMARK    9  A    between atoms: C_20  and  C_21
REMARK                            x       y       z     vdW  Elec       q    Type
REMARK                         _______ _______ _______ _____ _____    ______ ____
ROOT
ATOM      1  C   UNL     1       2.850   7.799  18.003  0.00  0.00    +0.000 A 
ATOM      2  C   UNL     1       2.757   6.922  19.081  0.00  0.00    +0.000 A 
ATOM      3  C   UNL     1       1.935   7.239  20.163  0.00  0.00    +0.000 A 
ATOM      4  C   UNL     1       1.219   8.439  20.182  0.00  0.00    +0.000 A 
ATOM      5  C   UNL     1       1.285   9.296  19.083  0.00  0.00    +0.000 A 
ATOM      6  C   UNL     1       2.103   8.980  17.994  0.00  0.00    +0.000 A 
ENDROOT
BRANCH   1   8
ATOM      7  N   UNL     1       4.810   6.774  16.996  0.00  0.00    +0.000 NA
ATOM      8  C   UNL     1       3.743   7.505  16.867  0.00  0.00    +0.000 C 
BRANCH   7  11
ATOM      9  O   UNL     1       6.925   5.490  14.509  0.00  0.00    +0.000 OA
ATOM     10  C   UNL     1       6.316   5.530  15.582  0.00  0.00    +0.000 C 
ATOM     11  N   UNL     1       5.533   6.629  15.852  0.00  0.00    +0.000 N 
ATOM     12  H   UNL     1       5.522   7.351  15.138  0.00  0.00    +0.000 HD
BRANCH  10  13
ATOM     13  C   UNL     1       6.356   4.427  16.628  0.00  0.00    +0.000 C 
BRANCH  13  14
ATOM     14  S   UNL     1       4.743   3.585  16.831  0.00  0.00    +0.000 S 
BRANCH  14  15
ATOM     15  C   UNL     1       4.714   3.432  18.645  0.00  0.00    +0.000 C 
BRANCH  15  16
ATOM     16  C   UNL     1       3.304   3.413  19.186  0.00  0.00    +0.000 A 
ATOM     17  C   UNL     1       3.059   3.648  20.548  0.00  0.00    +0.000 A 
ATOM     18  C   UNL     1       1.757   3.631  21.051  0.00  0.00    +0.000 A 
ATOM     19  C   UNL     1       0.682   3.373  20.200  0.00  0.00    +0.000 A 
ATOM     20  C   UNL     1       0.912   3.131  18.847  0.00  0.00    +0.000 A 
ATOM     21  C   UNL     1       2.214   3.150  18.341  0.00  0.00    +0.000 A 
ENDBRANCH  15  16
ENDBRANCH  14  15
ENDBRANCH  13  14
ENDBRANCH  10  13
ENDBRANCH   7  11
ENDBRANCH   1   8
BRANCH   4  22
ATOM     22  O   UNL     1       0.484   8.649  21.313  0.00  0.00    +0.000 OA
BRANCH  22  23
ATOM     23  C   UNL     1      -0.549   9.624  21.231  0.00  0.00    +0.000 C 
BRANCH  23  24
ATOM     24  C   UNL     1      -0.511  10.676  22.344  0.00  0.00    +0.000 C 
ATOM     25  O   UNL     1       0.072  10.424  23.402  0.00  0.00    +0.000 OA
ATOM     26  N   UNL     1      -1.149  11.888  22.117  0.00  0.00    +0.000 N 
ATOM     27  C   UNL     1      -0.991  12.975  23.081  0.00  0.00    +0.000 C 
ATOM     28  C   UNL     1      -2.340  13.570  23.478  0.00  0.00    +0.000 C 
ATOM     29  C   UNL     1      -3.179  13.934  22.254  0.00  0.00    +0.000 C 
ATOM     30  C   UNL     1      -3.296  12.748  21.303  0.00  0.00    +0.000 C 
ATOM     31  C   UNL     1      -1.919  12.217  20.918  0.00  0.00    +0.000 C 
ENDBRANCH  23  24
ENDBRANCH  22  23
ENDBRANCH   4  22
TORSDOF 9
ENDMDL
MODEL 7
REMARK VINA RESULT:      -7.3      3.139      4.874
REMARK  Name = 
REMARK  9 active torsions:
REMARK  status: ('A' for Active; 'I' for Inactive)
REMARK    1  A    between atoms: C_2  and  C_3
REMARK    2  A    between atoms: C_3  and  S_4
REMARK    3  A    between atoms: S_4  and  C_5
REMARK    4  A    between atoms: C_5  and  C_6
REMARK    5  A    between atoms: N_12  and  N_13
REMARK    6  A    between atoms: C_14  and  C_15
REMARK    7  A    between atoms: C_18  and  O_19
REMARK    8  A    between atoms: O_19  and  C_20
REMARK    9  A    between atoms: C_20  and  C_21
REMARK                            x       y       z     vdW  Elec       q    Type
REMARK                         _______ _______ _______ _____ _____    ______ ____
ROOT
ATOM      1  C   UNL     1       1.296   8.367  20.215  0.00  0.00    +0.000 A 
ATOM      2  C   UNL     1       0.378   9.157  20.903  0.00  0.00    +0.000 A 
ATOM      3  C   UNL     1      -0.193  10.263  20.272  0.00  0.00    +0.000 A 
ATOM      4  C   UNL     1       0.163  10.595  18.963  0.00  0.00    +0.000 A 
ATOM      5  C   UNL     1       1.054   9.778  18.265  0.00  0.00    +0.000 A 
ATOM      6  C   UNL     1       1.625   8.667  18.891  0.00  0.00    +0.000 A 
ENDROOT
BRANCH   1   8
ATOM      7  N   UNL     1       1.669   5.989  20.551  0.00  0.00    +0.000 NA
ATOM      8  C   UNL     1       1.944   7.217  20.874  0.00  0.00    +0.000 C 
BRANCH   7  11
ATOM      9  O   UNL     1       2.760   2.934  21.888  0.00  0.00    +0.000 OA
ATOM     10  C   UNL     1       2.090   3.703  21.191  0.00  0.00    +0.000 C 
ATOM     11  N   UNL     1       2.337   5.053  21.280  0.00  0.00    +0.000 N 
ATOM     12  H   UNL     1       3.060   5.329  21.938  0.00  0.00    +0.000 HD
BRANCH  10  13
ATOM     13  C   UNL     1       1.014   3.252  20.214  0.00  0.00    +0.000 C 
BRANCH  13  14
ATOM     14  S   UNL     1       1.352   3.781  18.495  0.00  0.00    +0.000 S 
BRANCH  14  15
ATOM     15  C   UNL     1       3.133   3.406  18.414  0.00  0.00    +0.000 C 
BRANCH  15  16
ATOM     16  C   UNL     1       3.877   4.394  17.548  0.00  0.00    +0.000 A 
ATOM     17  C   UNL     1       3.721   5.775  17.746  0.00  0.00    +0.000 A 
ATOM     18  C   UNL     1       4.407   6.691  16.947  0.00  0.00    +0.000 A 
ATOM     19  C   UNL     1       5.254   6.239  15.934  0.00  0.00    +0.000 A 
ATOM     20  C   UNL     1       5.412   4.872  15.723  0.00  0.00    +0.000 A 
ATOM     21  C   UNL     1       4.728   3.952  16.523  0.00  0.00    +0.000 A 
ENDBRANCH  15  16
ENDBRANCH  14  15
ENDBRANCH  13  14
ENDBRANCH  10  13
ENDBRANCH   7  11
ENDBRANCH   1   8
BRANCH   4  22
ATOM     22  O   UNL     1      -0.436  11.720  18.475  0.00  0.00    +0.000 OA
BRANCH  22  23
ATOM     23  C   UNL     1      -1.754  11.992  18.934  0.00  0.00    +0.000 C 
BRANCH  23  24
ATOM     24  C   UNL     1      -2.854  11.670  17.918  0.00  0.00    +0.000 C 
ATOM     25  O   UNL     1      -2.545  11.340  16.770  0.00  0.00    +0.000 OA
ATOM     26  N   UNL     1      -4.175  11.770  18.334  0.00  0.00    +0.000 N 
ATOM     27  C   UNL     1      -5.244  11.309  17.449  0.00  0.00    +0.000 C 
ATOM     28  C   UNL     1      -6.340  12.361  17.302  0.00  0.00    +0.000 C 
ATOM     29  C   UNL     1      -6.824  12.866  18.660  0.00  0.00    +0.000 C 
ATOM     30  C   UNL     1      -5.651  13.328  19.518  0.00  0.00    +0.000 C 
ATOM     31  C   UNL     1      -4.606  12.227  19.655  0.00  0.00    +0.000 C 
ENDBRANCH  23  24
ENDBRANCH  22  23
ENDBRANCH   4  22
TORSDOF 9
ENDMDL
MODEL 8
REMARK VINA RESULT:      -7.2      5.012      8.041
REMARK  Name = 
REMARK  9 active torsions:
REMARK  status: ('A' for Active; 'I' for Inactive)
REMARK    1  A    between atoms: C_2  and  C_3
REMARK    2  A    between atoms: C_3  and  S_4
REMARK    3  A    between atoms: S_4  and  C_5
REMARK    4  A    between atoms: C_5  and  C_6
REMARK    5  A    between atoms: N_12  and  N_13
REMARK    6  A    between atoms: C_14  and  C_15
REMARK    7  A    between atoms: C_18  and  O_19
REMARK    8  A    between atoms: O_19  and  C_20
REMARK    9  A    between atoms: C_20  and  C_21
REMARK                            x       y       z     vdW  Elec       q    Type
REMARK                         _______ _______ _______ _____ _____    ______ ____
ROOT
ATOM      1  C   UNL     1       6.897   5.907  17.931  0.00  0.00    +0.000 A 
ATOM      2  C   UNL     1       7.860   5.999  18.932  0.00  0.00    +0.000 A 
ATOM      3  C   UNL     1       8.523   7.209  19.146  0.00  0.00    +0.000 A 
ATOM      4  C   UNL     1       8.240   8.322  18.352  0.00  0.00    +0.000 A 
ATOM      5  C   UNL     1       7.247   8.236  17.376  0.00  0.00    +0.000 A 
ATOM      6  C   UNL     1       6.577   7.028  17.161  0.00  0.00    +0.000 A 
ENDROOT
BRANCH   1   8
ATOM      7  N   UNL     1       5.178   4.238  18.341  0.00  0.00    +0.000 NA
ATOM      8  C   UNL     1       6.213   4.628  17.659  0.00  0.00    +0.000 C 
BRANCH   7  11
ATOM      9  O   UNL     1       3.357   1.240  18.274  0.00  0.00    +0.000 OA
ATOM     10  C   UNL     1       3.742   2.334  18.698  0.00  0.00    +0.000 C 
ATOM     11  N   UNL     1       4.691   3.021  17.975  0.00  0.00    +0.000 N 
ATOM     12  H   UNL     1       5.023   2.562  17.133  0.00  0.00    +0.000 HD
BRANCH  10  13
ATOM     13  C   UNL     1       3.219   2.991  19.967  0.00  0.00    +0.000 C 
BRANCH  13  14
ATOM     14  S   UNL     1       1.747   4.038  19.667  0.00  0.00    +0.000 S 
BRANCH  14  15
ATOM     15  C   UNL     1       2.256   5.531  20.576  0.00  0.00    +0.000 C 
BRANCH  15  16
ATOM     16  C   UNL     1       2.227   6.761  19.699  0.00  0.00    +0.000 A 
ATOM     17  C   UNL     1       1.568   7.925  20.125  0.00  0.00    +0.000 A 
ATOM     18  C   UNL     1       1.539   9.062  19.316  0.00  0.00    +0.000 A 
ATOM     19  C   UNL     1       2.163   9.050  18.069  0.00  0.00    +0.000 A 
ATOM     20  C   UNL     1       2.814   7.899  17.632  0.00  0.00    +0.000 A 
ATOM     21  C   UNL     1       2.847   6.759  18.440  0.00  0.00    +0.000 A 
ENDBRANCH  15  16
ENDBRANCH  14  15
ENDBRANCH  13  14
ENDBRANCH  10  13
ENDBRANCH   7  11
ENDBRANCH   1   8
BRANCH   4  22
ATOM     22  O   UNL     1       8.984   9.431  18.636  0.00  0.00    +0.000 OA
BRANCH  22  23
ATOM     23  C   UNL     1       8.678  10.610  17.900  0.00  0.00    +0.000 C 
BRANCH  23  24
ATOM     24  C   UNL     1       9.778  11.677  17.936  0.00  0.00    +0.000 C 
ATOM     25  O   UNL     1      10.958  11.332  18.036  0.00  0.00    +0.000 OA
ATOM     26  N   UNL     1       9.395  13.009  17.861  0.00  0.00    +0.000 N 
ATOM     27  C   UNL     1      10.419  14.044  17.722  0.00  0.00    +0.000 C 
ATOM     28  C   UNL     1      10.223  15.164  18.740  0.00  0.00    +0.000 C 
ATOM     29  C   UNL     1       8.789  15.694  18.727  0.00  0.00    +0.000 C 
ATOM     30  C   UNL     1       7.787  14.554  18.879  0.00  0.00    +0.000 C 
ATOM     31  C   UNL     1       8.012  13.483  17.818  0.00  0.00    +0.000 C 
ENDBRANCH  23  24
ENDBRANCH  22  23
ENDBRANCH   4  22
TORSDOF 9
ENDMDL
MODEL 9
REMARK VINA RESULT:      -7.2      1.382      1.881
REMARK  Name = 
REMARK  9 active torsions:
REMARK  status: ('A' for Active; 'I' for Inactive)
REMARK    1  A    between atoms: C_2  and  C_3
REMARK    2  A    between atoms: C_3  and  S_4
REMARK    3  A    between atoms: S_4  and  C_5
REMARK    4  A    between atoms: C_5  and  C_6
REMARK    5  A    between atoms: N_12  and  N_13
REMARK    6  A    between atoms: C_14  and  C_15
REMARK    7  A    between atoms: C_18  and  O_19
REMARK    8  A    between atoms: O_19  and  C_20
REMARK    9  A    between atoms: C_20  and  C_21
REMARK                            x       y       z     vdW  Elec       q    Type
REMARK                         _______ _______ _______ _____ _____    ______ ____
ROOT
ATOM      1  C   UNL     1       1.691   8.785  18.816  0.00  0.00    +0.000 A 
ATOM      2  C   UNL     1       0.835   9.879  18.715  0.00  0.00    +0.000 A 
ATOM      3  C   UNL     1       0.094  10.284  19.826  0.00  0.00    +0.000 A 
ATOM      4  C   UNL     1       0.190   9.589  21.034  0.00  0.00    +0.000 A 
ATOM      5  C   UNL     1       1.078   8.517  21.142  0.00  0.00    +0.000 A 
ATOM      6  C   UNL     1       1.825   8.110  20.033  0.00  0.00    +0.000 A 
ENDROOT
BRANCH   1   8
ATOM      7  N   UNL     1       3.408   7.438  17.747  0.00  0.00    +0.000 NA
ATOM      8  C   UNL     1       2.453   8.313  17.645  0.00  0.00    +0.000 C 
BRANCH   7  11
ATOM      9  O   UNL     1       5.725   6.291  15.375  0.00  0.00    +0.000 OA
ATOM     10  C   UNL     1       5.257   6.531  16.492  0.00  0.00    +0.000 C 
ATOM     11  N   UNL     1       4.024   7.138  16.571  0.00  0.00    +0.000 N 
ATOM     12  H   UNL     1       3.583   7.362  15.684  0.00  0.00    +0.000 HD
BRANCH  10  13
ATOM     13  C   UNL     1       5.947   6.179  17.801  0.00  0.00    +0.000 C 
BRANCH  13  14
ATOM     14  S   UNL     1       5.634   4.452  18.324  0.00  0.00    +0.000 S 
BRANCH  14  15
ATOM     15  C   UNL     1       4.508   4.766  19.721  0.00  0.00    +0.000 C 
BRANCH  15  16
ATOM     16  C   UNL     1       3.181   4.066  19.543  0.00  0.00    +0.000 A 
ATOM     17  C   UNL     1       2.079   4.413  20.339  0.00  0.00    +0.000 A 
ATOM     18  C   UNL     1       0.852   3.768  20.177  0.00  0.00    +0.000 A 
ATOM     19  C   UNL     1       0.713   2.761  19.221  0.00  0.00    +0.000 A 
ATOM     20  C   UNL     1       1.801   2.402  18.430  0.00  0.00    +0.000 A 
ATOM     21  C   UNL     1       3.030   3.048  18.588  0.00  0.00    +0.000 A 
ENDBRANCH  15  16
ENDBRANCH  14  15
ENDBRANCH  13  14
ENDBRANCH  10  13
ENDBRANCH   7  11
ENDBRANCH   1   8
BRANCH   4  22
ATOM     22  O   UNL     1      -0.614  10.060  22.031  0.00  0.00    +0.000 OA
BRANCH  22  23
ATOM     23  C   UNL     1      -0.794  11.470  22.094  0.00  0.00    +0.000 C 
BRANCH  23  24
ATOM     24  C   UNL     1      -2.214  11.908  22.466  0.00  0.00    +0.000 C 
ATOM     25  O   UNL     1      -2.612  11.762  23.625  0.00  0.00    +0.000 OA
ATOM     26  N   UNL     1      -3.010  12.453  21.468  0.00  0.00    +0.000 N 
ATOM     27  C   UNL     1      -4.304  13.036  21.820  0.00  0.00    +0.000 C 
ATOM     28  C   UNL     1      -5.419  12.502  20.924  0.00  0.00    +0.000 C 
ATOM     29  C   UNL     1      -5.060  12.620  19.443  0.00  0.00    +0.000 C 
ATOM     30  C   UNL     1      -3.700  11.988  19.162  0.00  0.00    +0.000 C 
ATOM     31  C   UNL     1      -2.623  12.582  20.064  0.00  0.00    +0.000 C 
ENDBRANCH  23  24
ENDBRANCH  22  23
ENDBRANCH   4  22
TORSDOF 9
ENDMDL
