MODEL 1
REMARK VINA RESULT:      -8.1      0.000      0.000
REMARK  Name = 
REMARK  10 active torsions:
REMARK  status: ('A' for Active; 'I' for Inactive)
REMARK    1  A    between atoms: C_2  and  O_3
REMARK    2  A    between atoms: C_2  and  C_15
REMARK    3  A    between atoms: O_3  and  C_4
REMARK    4  A    between atoms: C_5  and  O_6
REMARK    5  A    between atoms: C_7  and  O_8
REMARK    6  A    between atoms: C_10  and  C_11
REMARK    7  A    between atoms: C_11  and  O_12
REMARK    8  A    between atoms: C_13  and  O_14
REMARK    9  A    between atoms: N_17  and  C_18
REMARK   10  A    between atoms: C_18  and  C_19
REMARK                            x       y       z     vdW  Elec       q    Type
REMARK                         _______ _______ _______ _____ _____    ______ ____
ROOT
ATOM      1  O   UNL     1       1.680   8.372  22.224  0.00  0.00    +0.000 OA
ATOM      2  C   UNL     1       1.349   8.401  21.041  0.00  0.00    +0.000 C 
ENDROOT
BRANCH   2   3
ATOM      3  C   UNL     1       1.970   7.548  20.007  0.00  0.00    +0.000 A 
ATOM      4  N   UNL     1       2.681   8.049  18.978  0.00  0.00    +0.000 NA
ATOM      5  N   UNL     1       2.969   6.977  18.208  0.00  0.00    +0.000 N 
ATOM      6  C   UNL     1       2.472   5.791  18.695  0.00  0.00    +0.000 A 
ATOM      7  C   UNL     1       2.494   4.479  18.195  0.00  0.00    +0.000 A 
ATOM      8  C   UNL     1       1.859   3.485  18.944  0.00  0.00    +0.000 A 
ATOM      9  C   UNL     1       1.235   3.788  20.152  0.00  0.00    +0.000 A 
ATOM     10  C   UNL     1       1.216   5.102  20.635  0.00  0.00    +0.000 A 
ATOM     11  C   UNL     1       1.836   6.126  19.890  0.00  0.00    +0.000 A 
BRANCH   5  12
ATOM     12  C   UNL     1       3.604   7.182  16.912  0.00  0.00    +0.000 C 
BRANCH  12  13
ATOM     13  C   UNL     1       4.908   6.433  16.758  0.00  0.00    +0.000 A 
ATOM     14  C   UNL     1       5.839   6.388  17.808  0.00  0.00    +0.000 A 
ATOM     15  C   UNL     1       7.001   5.620  17.690  0.00  0.00    +0.000 A 
ATOM     16 CL   UNL     1       8.115   5.559  19.001  0.00  0.00    +0.000 Cl
ATOM     17  C   UNL     1       7.257   4.889  16.534  0.00  0.00    +0.000 A 
ATOM     18  C   UNL     1       6.343   4.937  15.487  0.00  0.00    +0.000 A 
ATOM     19 CL   UNL     1       6.639   4.025  14.058  0.00  0.00    +0.000 Cl
ATOM     20  C   UNL     1       5.178   5.700  15.591  0.00  0.00    +0.000 A 
ENDBRANCH  12  13
ENDBRANCH   5  12
ENDBRANCH   2   3
BRANCH   2  21
ATOM     21  O   UNL     1       0.300   9.162  20.580  0.00  0.00    +0.000 OA
BRANCH  21  22
ATOM     22  C   UNL     1       0.502  10.595  20.658  0.00  0.00    +0.000 C 
ATOM     23  C   UNL     1      -0.401  11.145  21.778  0.00  0.00    +0.000 C 
ATOM     24  C   UNL     1      -0.319  12.684  21.799  0.00  0.00    +0.000 C 
ATOM     25  O   UNL     1      -0.692  13.227  20.541  0.00  0.00    +0.000 OA
ATOM     26  C   UNL     1       0.174  12.802  19.479  0.00  0.00    +0.000 C 
ATOM     27  C   UNL     1       0.145  11.269  19.317  0.00  0.00    +0.000 C 
BRANCH  23  28
ATOM     28  O   UNL     1      -0.066  10.585  23.053  0.00  0.00    +0.000 OA
ATOM     29  H   UNL     1      -0.888  10.379  23.537  0.00  0.00    +0.000 HD
ENDBRANCH  23  28
BRANCH  24  30
ATOM     30  O   UNL     1      -1.178  13.242  22.780  0.00  0.00    +0.000 OA
ATOM     31  H   UNL     1      -2.001  13.490  22.329  0.00  0.00    +0.000 HD
ENDBRANCH  24  30
BRANCH  27  32
ATOM     32  O   UNL     1       1.048  10.857  18.287  0.00  0.00    +0.000 OA
ATOM     33  H   UNL     1       0.687  10.077  17.829  0.00  0.00    +0.000 HD
ENDBRANCH  27  32
BRANCH  26  34
ATOM     34  C   UNL     1      -0.285  13.526  18.207  0.00  0.00    +0.000 C 
BRANCH  34  35
ATOM     35  O   UNL     1      -1.159  12.670  17.465  0.00  0.00    +0.000 OA
ATOM     36  H   UNL     1      -0.585  12.152  16.869  0.00  0.00    +0.000 HD
ENDBRANCH  34  35
ENDBRANCH  26  34
ENDBRANCH  21  22
ENDBRANCH   2  21
TORSDOF 10
ENDMDL
MODEL 2
REMARK VINA RESULT:      -7.8      0.799      2.246
REMARK  Name = 
REMARK  10 active torsions:
REMARK  status: ('A' for Active; 'I' for Inactive)
REMARK    1  A    between atoms: C_2  and  O_3
REMARK    2  A    between atoms: C_2  and  C_15
REMARK    3  A    between atoms: O_3  and  C_4
REMARK    4  A    between atoms: C_5  and  O_6
REMARK    5  A    between atoms: C_7  and  O_8
REMARK    6  A    between atoms: C_10  and  C_11
REMARK    7  A    between atoms: C_11  and  O_12
REMARK    8  A    between atoms: C_13  and  O_14
REMARK    9  A    between atoms: N_17  and  C_18
REMARK   10  A    between atoms: C_18  and  C_19
REMARK                            x       y       z     vdW  Elec       q    Type
REMARK                         _______ _______ _______ _____ _____    ______ ____
ROOT
ATOM      1  O   UNL     1       0.567   8.133  21.849  0.00  0.00    +0.000 OA
ATOM      2  C   UNL     1       1.176   8.563  20.872  0.00  0.00    +0.000 C 
ENDROOT
BRANCH   2   3
ATOM      3  C   UNL     1       1.888   7.692  19.915  0.00  0.00    +0.000 A 
ATOM      4  N   UNL     1       2.596   8.175  18.875  0.00  0.00    +0.000 NA
ATOM      5  N   UNL     1       2.983   7.079  18.187  0.00  0.00    +0.000 N 
ATOM      6  C   UNL     1       2.554   5.894  18.738  0.00  0.00    +0.000 A 
ATOM      7  C   UNL     1       2.685   4.557  18.326  0.00  0.00    +0.000 A 
ATOM      8  C   UNL     1       2.095   3.571  19.122  0.00  0.00    +0.000 A 
ATOM      9  C   UNL     1       1.412   3.906  20.288  0.00  0.00    +0.000 A 
ATOM     10  C   UNL     1       1.286   5.244  20.682  0.00  0.00    +0.000 A 
ATOM     11  C   UNL     1       1.858   6.259  19.889  0.00  0.00    +0.000 A 
BRANCH   5  12
ATOM     12  C   UNL     1       3.645   7.245  16.899  0.00  0.00    +0.000 C 
BRANCH  12  13
ATOM     13  C   UNL     1       4.925   6.450  16.775  0.00  0.00    +0.000 A 
ATOM     14  C   UNL     1       5.861   6.428  17.821  0.00  0.00    +0.000 A 
ATOM     15  C   UNL     1       6.998   5.620  17.736  0.00  0.00    +0.000 A 
ATOM     16 CL   UNL     1       8.118   5.588  19.043  0.00  0.00    +0.000 Cl
ATOM     17  C   UNL     1       7.225   4.826  16.616  0.00  0.00    +0.000 A 
ATOM     18  C   UNL     1       6.306   4.851  15.572  0.00  0.00    +0.000 A 
ATOM     19 CL   UNL     1       6.565   3.862  14.187  0.00  0.00    +0.000 Cl
ATOM     20  C   UNL     1       5.166   5.653  15.644  0.00  0.00    +0.000 A 
ENDBRANCH  12  13
ENDBRANCH   5  12
ENDBRANCH   2   3
BRANCH   2  21
ATOM     21  O   UNL     1       1.172   9.892  20.518  0.00  0.00    +0.000 OA
BRANCH  21  22
ATOM     22  C   UNL     1      -0.134  10.439  20.208  0.00  0.00    +0.000 C 
ATOM     23  C   UNL     1      -0.058  11.107  18.822  0.00  0.00    +0.000 C 
ATOM     24  C   UNL     1      -1.388  11.821  18.518  0.00  0.00    +0.000 C 
ATOM     25  O   UNL     1      -1.687  12.781  19.521  0.00  0.00    +0.000 OA
ATOM     26  C   UNL     1      -1.847  12.189  20.819  0.00  0.00    +0.000 C 
ATOM     27  C   UNL     1      -0.554  11.478  21.268  0.00  0.00    +0.000 C 
BRANCH  23  28
ATOM     28  O   UNL     1       0.278  10.164  17.796  0.00  0.00    +0.000 OA
ATOM     29  H   UNL     1       0.892   9.500  18.161  0.00  0.00    +0.000 HD
ENDBRANCH  23  28
BRANCH  24  30
ATOM     30  O   UNL     1      -1.348  12.499  17.273  0.00  0.00    +0.000 OA
ATOM     31  H   UNL     1      -0.431  12.461  16.958  0.00  0.00    +0.000 HD
ENDBRANCH  24  30
BRANCH  27  32
ATOM     32  O   UNL     1      -0.744  10.854  22.541  0.00  0.00    +0.000 OA
ATOM     33  H   UNL     1      -1.445  10.183  22.476  0.00  0.00    +0.000 HD
ENDBRANCH  27  32
BRANCH  26  34
ATOM     34  C   UNL     1      -2.251  13.315  21.780  0.00  0.00    +0.000 C 
BRANCH  34  35
ATOM     35  O   UNL     1      -1.090  13.787  22.470  0.00  0.00    +0.000 OA
ATOM     36  H   UNL     1      -0.880  14.657  22.078  0.00  0.00    +0.000 HD
ENDBRANCH  34  35
ENDBRANCH  26  34
ENDBRANCH  21  22
ENDBRANCH   2  21
TORSDOF 10
ENDMDL
MODEL 3
REMARK VINA RESULT:      -7.7      0.706      2.723
REMARK  Name = 
REMARK  10 active torsions:
REMARK  status: ('A' for Active; 'I' for Inactive)
REMARK    1  A    between atoms: C_2  and  O_3
REMARK    2  A    between atoms: C_2  and  C_15
REMARK    3  A    between atoms: O_3  and  C_4
REMARK    4  A    between atoms: C_5  and  O_6
REMARK    5  A    between atoms: C_7  and  O_8
REMARK    6  A    between atoms: C_10  and  C_11
REMARK    7  A    between atoms: C_11  and  O_12
REMARK    8  A    between atoms: C_13  and  O_14
REMARK    9  A    between atoms: N_17  and  C_18
REMARK   10  A    between atoms: C_18  and  C_19
REMARK                            x       y       z     vdW  Elec       q    Type
REMARK                         _______ _______ _______ _____ _____    ______ ____
ROOT
ATOM      1  O   UNL     1       0.259   8.137  21.697  0.00  0.00    +0.000 OA
ATOM      2  C   UNL     1       1.063   8.555  20.866  0.00  0.00    +0.000 C 
ENDROOT
BRANCH   2   3
ATOM      3  C   UNL     1       1.818   7.670  19.956  0.00  0.00    +0.000 A 
ATOM      4  N   UNL     1       2.547   8.138  18.923  0.00  0.00    +0.000 NA
ATOM      5  N   UNL     1       2.974   7.030  18.278  0.00  0.00    +0.000 N 
ATOM      6  C   UNL     1       2.552   5.853  18.851  0.00  0.00    +0.000 A 
ATOM      7  C   UNL     1       2.719   4.508  18.483  0.00  0.00    +0.000 A 
ATOM      8  C   UNL     1       2.126   3.534  19.290  0.00  0.00    +0.000 A 
ATOM      9  C   UNL     1       1.404   3.888  20.427  0.00  0.00    +0.000 A 
ATOM     10  C   UNL     1       1.240   5.234  20.778  0.00  0.00    +0.000 A 
ATOM     11  C   UNL     1       1.816   6.238  19.971  0.00  0.00    +0.000 A 
BRANCH   5  12
ATOM     12  C   UNL     1       3.670   7.172  17.005  0.00  0.00    +0.000 C 
BRANCH  12  13
ATOM     13  C   UNL     1       4.896   6.296  16.891  0.00  0.00    +0.000 A 
ATOM     14  C   UNL     1       5.143   5.553  15.726  0.00  0.00    +0.000 A 
ATOM     15  C   UNL     1       6.324   4.816  15.594  0.00  0.00    +0.000 A 
ATOM     16 CL   UNL     1       6.617   3.934  14.145  0.00  0.00    +0.000 Cl
ATOM     17  C   UNL     1       7.274   4.805  16.611  0.00  0.00    +0.000 A 
ATOM     18  C   UNL     1       7.031   5.532  17.771  0.00  0.00    +0.000 A 
ATOM     19 CL   UNL     1       8.203   5.541  19.031  0.00  0.00    +0.000 Cl
ATOM     20  C   UNL     1       5.856   6.272  17.917  0.00  0.00    +0.000 A 
ENDBRANCH  12  13
ENDBRANCH   5  12
ENDBRANCH   2   3
BRANCH   2  21
ATOM     21  O   UNL     1       1.266   9.896  20.635  0.00  0.00    +0.000 OA
BRANCH  21  22
ATOM     22  C   UNL     1       0.059  10.668  20.415  0.00  0.00    +0.000 C 
ATOM     23  C   UNL     1       0.151  11.314  19.020  0.00  0.00    +0.000 C 
ATOM     24  C   UNL     1      -1.049  12.255  18.805  0.00  0.00    +0.000 C 
ATOM     25  O   UNL     1      -1.097  13.251  19.817  0.00  0.00    +0.000 OA
ATOM     26  C   UNL     1      -1.264  12.696  21.129  0.00  0.00    +0.000 C 
ATOM     27  C   UNL     1      -0.089  11.763  21.491  0.00  0.00    +0.000 C 
BRANCH  23  28
ATOM     28  O   UNL     1       0.236  10.328  17.983  0.00  0.00    +0.000 OA
ATOM     29  H   UNL     1       0.948  10.575  17.366  0.00  0.00    +0.000 HD
ENDBRANCH  23  28
BRANCH  24  30
ATOM     30  O   UNL     1      -0.981  12.917  17.553  0.00  0.00    +0.000 OA
ATOM     31  H   UNL     1      -1.881  12.932  17.189  0.00  0.00    +0.000 HD
ENDBRANCH  24  30
BRANCH  27  32
ATOM     32  O   UNL     1      -0.292  11.181  22.782  0.00  0.00    +0.000 OA
ATOM     33  H   UNL     1      -1.088  10.622  22.767  0.00  0.00    +0.000 HD
ENDBRANCH  27  32
BRANCH  26  34
ATOM     34  C   UNL     1      -1.387  13.874  22.104  0.00  0.00    +0.000 C 
BRANCH  34  35
ATOM     35  O   UNL     1      -0.136  14.073  22.767  0.00  0.00    +0.000 OA
ATOM     36  H   UNL     1      -0.030  13.316  23.375  0.00  0.00    +0.000 HD
ENDBRANCH  34  35
ENDBRANCH  26  34
ENDBRANCH  21  22
ENDBRANCH   2  21
TORSDOF 10
ENDMDL
MODEL 4
REMARK VINA RESULT:      -7.5      4.778      8.793
REMARK  Name = 
REMARK  10 active torsions:
REMARK  status: ('A' for Active; 'I' for Inactive)
REMARK    1  A    between atoms: C_2  and  O_3
REMARK    2  A    between atoms: C_2  and  C_15
REMARK    3  A    between atoms: O_3  and  C_4
REMARK    4  A    between atoms: C_5  and  O_6
REMARK    5  A    between atoms: C_7  and  O_8
REMARK    6  A    between atoms: C_10  and  C_11
REMARK    7  A    between atoms: C_11  and  O_12
REMARK    8  A    between atoms: C_13  and  O_14
REMARK    9  A    between atoms: N_17  and  C_18
REMARK   10  A    between atoms: C_18  and  C_19
REMARK                            x       y       z     vdW  Elec       q    Type
REMARK                         _______ _______ _______ _____ _____    ______ ____
ROOT
ATOM      1  O   UNL     1       2.608   8.115  17.701  0.00  0.00    +0.000 OA
ATOM      2  C   UNL     1       2.169   8.199  18.846  0.00  0.00    +0.000 C 
ENDROOT
BRANCH   2   3
ATOM      3  C   UNL     1       1.141   9.179  19.248  0.00  0.00    +0.000 A 
ATOM      4  N   UNL     1       0.595  10.060  18.387  0.00  0.00    +0.000 NA
ATOM      5  N   UNL     1      -0.195  10.842  19.153  0.00  0.00    +0.000 N 
ATOM      6  C   UNL     1      -0.188  10.506  20.487  0.00  0.00    +0.000 A 
ATOM      7  C   UNL     1      -0.810  11.077  21.610  0.00  0.00    +0.000 A 
ATOM      8  C   UNL     1      -0.568  10.491  22.855  0.00  0.00    +0.000 A 
ATOM      9  C   UNL     1       0.253   9.372  22.973  0.00  0.00    +0.000 A 
ATOM     10  C   UNL     1       0.871   8.818  21.845  0.00  0.00    +0.000 A 
ATOM     11  C   UNL     1       0.656   9.400  20.579  0.00  0.00    +0.000 A 
BRANCH   5  12
ATOM     12  C   UNL     1      -0.825  12.016  18.560  0.00  0.00    +0.000 C 
BRANCH  12  13
ATOM     13  C   UNL     1      -2.205  11.741  18.008  0.00  0.00    +0.000 A 
ATOM     14  C   UNL     1      -2.372  11.212  16.719  0.00  0.00    +0.000 A 
ATOM     15  C   UNL     1      -3.646  10.877  16.251  0.00  0.00    +0.000 A 
ATOM     16 CL   UNL     1      -3.823  10.204  14.676  0.00  0.00    +0.000 Cl
ATOM     17  C   UNL     1      -4.770  11.063  17.050  0.00  0.00    +0.000 A 
ATOM     18  C   UNL     1      -4.612  11.596  18.325  0.00  0.00    +0.000 A 
ATOM     19 CL   UNL     1      -5.991  11.816  19.331  0.00  0.00    +0.000 Cl
ATOM     20  C   UNL     1      -3.346  11.934  18.806  0.00  0.00    +0.000 A 
ENDBRANCH  12  13
ENDBRANCH   5  12
ENDBRANCH   2   3
BRANCH   2  21
ATOM     21  O   UNL     1       2.522   7.320  19.844  0.00  0.00    +0.000 OA
BRANCH  21  22
ATOM     22  C   UNL     1       2.446   5.919  19.481  0.00  0.00    +0.000 C 
ATOM     23  C   UNL     1       1.623   5.189  20.559  0.00  0.00    +0.000 C 
ATOM     24  C   UNL     1       1.637   3.673  20.283  0.00  0.00    +0.000 C 
ATOM     25  O   UNL     1       2.969   3.179  20.247  0.00  0.00    +0.000 OA
ATOM     26  C   UNL     1       3.750   3.776  19.202  0.00  0.00    +0.000 C 
ATOM     27  C   UNL     1       3.857   5.303  19.392  0.00  0.00    +0.000 C 
BRANCH  23  28
ATOM     28  O   UNL     1       0.285   5.694  20.638  0.00  0.00    +0.000 OA
ATOM     29  H   UNL     1       0.082   5.916  21.566  0.00  0.00    +0.000 HD
ENDBRANCH  23  28
BRANCH  24  30
ATOM     30  O   UNL     1       0.937   2.950  21.282  0.00  0.00    +0.000 OA
ATOM     31  H   UNL     1       0.390   3.590  21.765  0.00  0.00    +0.000 HD
ENDBRANCH  24  30
BRANCH  27  32
ATOM     32  O   UNL     1       4.599   5.889  18.319  0.00  0.00    +0.000 OA
ATOM     33  H   UNL     1       5.424   6.275  18.663  0.00  0.00    +0.000 HD
ENDBRANCH  27  32
BRANCH  26  34
ATOM     34  C   UNL     1       5.124   3.094  19.222  0.00  0.00    +0.000 C 
BRANCH  34  35
ATOM     35  O   UNL     1       5.018   1.834  19.891  0.00  0.00    +0.000 OA
ATOM     36  H   UNL     1       5.316   1.162  19.247  0.00  0.00    +0.000 HD
ENDBRANCH  34  35
ENDBRANCH  26  34
ENDBRANCH  21  22
ENDBRANCH   2  21
TORSDOF 10
ENDMDL
MODEL 5
REMARK VINA RESULT:      -7.5      2.223      3.336
REMARK  Name = 
REMARK  10 active torsions:
REMARK  status: ('A' for Active; 'I' for Inactive)
REMARK    1  A    between atoms: C_2  and  O_3
REMARK    2  A    between atoms: C_2  and  C_15
REMARK    3  A    between atoms: O_3  and  C_4
REMARK    4  A    between atoms: C_5  and  O_6
REMARK    5  A    between atoms: C_7  and  O_8
REMARK    6  A    between atoms: C_10  and  C_11
REMARK    7  A    between atoms: C_11  and  O_12
REMARK    8  A    between atoms: C_13  and  O_14
REMARK    9  A    between atoms: N_17  and  C_18
REMARK   10  A    between atoms: C_18  and  C_19
REMARK                            x       y       z     vdW  Elec       q    Type
REMARK                         _______ _______ _______ _____ _____    ______ ____
ROOT
ATOM      1  O   UNL     1       3.501   8.414  17.092  0.00  0.00    +0.000 OA
ATOM      2  C   UNL     1       2.990   7.435  17.631  0.00  0.00    +0.000 C 
ENDROOT
BRANCH   2   3
ATOM      3  C   UNL     1       3.590   6.086  17.593  0.00  0.00    +0.000 A 
ATOM      4  N   UNL     1       4.859   5.862  17.196  0.00  0.00    +0.000 NA
ATOM      5  N   UNL     1       4.981   4.517  17.190  0.00  0.00    +0.000 N 
ATOM      6  C   UNL     1       3.839   3.851  17.569  0.00  0.00    +0.000 A 
ATOM      7  C   UNL     1       3.524   2.484  17.649  0.00  0.00    +0.000 A 
ATOM      8  C   UNL     1       2.233   2.138  18.057  0.00  0.00    +0.000 A 
ATOM      9  C   UNL     1       1.298   3.117  18.384  0.00  0.00    +0.000 A 
ATOM     10  C   UNL     1       1.626   4.475  18.293  0.00  0.00    +0.000 A 
ATOM     11  C   UNL     1       2.917   4.852  17.869  0.00  0.00    +0.000 A 
BRANCH   5  12
ATOM     12  C   UNL     1       6.196   3.916  16.652  0.00  0.00    +0.000 C 
BRANCH  12  13
ATOM     13  C   UNL     1       6.382   4.163  15.172  0.00  0.00    +0.000 A 
ATOM     14  C   UNL     1       7.446   4.950  14.703  0.00  0.00    +0.000 A 
ATOM     15  C   UNL     1       7.663   5.100  13.330  0.00  0.00    +0.000 A 
ATOM     16 CL   UNL     1       8.990   6.048  12.779  0.00  0.00    +0.000 Cl
ATOM     17  C   UNL     1       6.832   4.475  12.405  0.00  0.00    +0.000 A 
ATOM     18  C   UNL     1       5.770   3.702  12.864  0.00  0.00    +0.000 A 
ATOM     19 CL   UNL     1       4.743   2.911  11.733  0.00  0.00    +0.000 Cl
ATOM     20  C   UNL     1       5.541   3.544  14.232  0.00  0.00    +0.000 A 
ENDBRANCH  12  13
ENDBRANCH   5  12
ENDBRANCH   2   3
BRANCH   2  21
ATOM     21  O   UNL     1       1.858   7.520  18.407  0.00  0.00    +0.000 OA
BRANCH  21  22
ATOM     22  C   UNL     1       1.793   8.682  19.271  0.00  0.00    +0.000 C 
ATOM     23  C   UNL     1       1.151   8.254  20.603  0.00  0.00    +0.000 C 
ATOM     24  C   UNL     1       0.937   9.491  21.496  0.00  0.00    +0.000 C 
ATOM     25  O   UNL     1       0.129  10.455  20.837  0.00  0.00    +0.000 OA
ATOM     26  C   UNL     1       0.729  10.943  19.629  0.00  0.00    +0.000 C 
ATOM     27  C   UNL     1       0.952   9.798  18.619  0.00  0.00    +0.000 C 
BRANCH  23  28
ATOM     28  O   UNL     1       1.931   7.254  21.271  0.00  0.00    +0.000 OA
ATOM     29  H   UNL     1       1.759   6.387  20.860  0.00  0.00    +0.000 HD
ENDBRANCH  23  28
BRANCH  24  30
ATOM     30  O   UNL     1       0.296   9.154  22.716  0.00  0.00    +0.000 OA
ATOM     31  H   UNL     1      -0.307   8.418  22.527  0.00  0.00    +0.000 HD
ENDBRANCH  24  30
BRANCH  27  32
ATOM     32  O   UNL     1       1.592  10.291  17.438  0.00  0.00    +0.000 OA
ATOM     33  H   UNL     1       2.222   9.627  17.106  0.00  0.00    +0.000 HD
ENDBRANCH  27  32
BRANCH  26  34
ATOM     34  C   UNL     1      -0.199  12.030  19.072  0.00  0.00    +0.000 C 
BRANCH  34  35
ATOM     35  O   UNL     1       0.502  12.794  18.087  0.00  0.00    +0.000 OA
ATOM     36  H   UNL     1       0.707  13.651  18.507  0.00  0.00    +0.000 HD
ENDBRANCH  34  35
ENDBRANCH  26  34
ENDBRANCH  21  22
ENDBRANCH   2  21
TORSDOF 10
ENDMDL
MODEL 6
REMARK VINA RESULT:      -7.5      4.878      8.794
REMARK  Name = 
REMARK  10 active torsions:
REMARK  status: ('A' for Active; 'I' for Inactive)
REMARK    1  A    between atoms: C_2  and  O_3
REMARK    2  A    between atoms: C_2  and  C_15
REMARK    3  A    between atoms: O_3  and  C_4
REMARK    4  A    between atoms: C_5  and  O_6
REMARK    5  A    between atoms: C_7  and  O_8
REMARK    6  A    between atoms: C_10  and  C_11
REMARK    7  A    between atoms: C_11  and  O_12
REMARK    8  A    between atoms: C_13  and  O_14
REMARK    9  A    between atoms: N_17  and  C_18
REMARK   10  A    between atoms: C_18  and  C_19
REMARK                            x       y       z     vdW  Elec       q    Type
REMARK                         _______ _______ _______ _____ _____    ______ ____
ROOT
ATOM      1  O   UNL     1       2.714   8.009  17.027  0.00  0.00    +0.000 OA
ATOM      2  C   UNL     1       2.465   8.116  18.226  0.00  0.00    +0.000 C 
ENDROOT
BRANCH   2   3
ATOM      3  C   UNL     1       1.442   9.038  18.761  0.00  0.00    +0.000 A 
ATOM      4  N   UNL     1       0.849   9.986  18.009  0.00  0.00    +0.000 NA
ATOM      5  N   UNL     1       0.082  10.680  18.877  0.00  0.00    +0.000 N 
ATOM      6  C   UNL     1       0.151  10.221  20.172  0.00  0.00    +0.000 A 
ATOM      7  C   UNL     1      -0.430  10.674  21.369  0.00  0.00    +0.000 A 
ATOM      8  C   UNL     1      -0.128   9.979  22.542  0.00  0.00    +0.000 A 
ATOM      9  C   UNL     1       0.711   8.867  22.521  0.00  0.00    +0.000 A 
ATOM     10  C   UNL     1       1.287   8.432  21.321  0.00  0.00    +0.000 A 
ATOM     11  C   UNL     1       1.012   9.125  20.125  0.00  0.00    +0.000 A 
BRANCH   5  12
ATOM     12  C   UNL     1      -0.587  11.893  18.423  0.00  0.00    +0.000 C 
BRANCH  12  13
ATOM     13  C   UNL     1      -2.004  11.657  17.955  0.00  0.00    +0.000 A 
ATOM     14  C   UNL     1      -2.262  11.127  16.681  0.00  0.00    +0.000 A 
ATOM     15  C   UNL     1      -3.570  10.828  16.291  0.00  0.00    +0.000 A 
ATOM     16 CL   UNL     1      -3.859  10.153  14.733  0.00  0.00    +0.000 Cl
ATOM     17  C   UNL     1      -4.640  11.050  17.153  0.00  0.00    +0.000 A 
ATOM     18  C   UNL     1      -4.392  11.584  18.414  0.00  0.00    +0.000 A 
ATOM     19 CL   UNL     1      -5.702  11.849  19.497  0.00  0.00    +0.000 Cl
ATOM     20  C   UNL     1      -3.090  11.887  18.817  0.00  0.00    +0.000 A 
ENDBRANCH  12  13
ENDBRANCH   5  12
ENDBRANCH   2   3
BRANCH   2  21
ATOM     21  O   UNL     1       3.046   7.314  19.181  0.00  0.00    +0.000 OA
BRANCH  21  22
ATOM     22  C   UNL     1       3.534   6.039  18.695  0.00  0.00    +0.000 C 
ATOM     23  C   UNL     1       3.244   4.974  19.769  0.00  0.00    +0.000 C 
ATOM     24  C   UNL     1       3.873   3.631  19.350  0.00  0.00    +0.000 C 
ATOM     25  O   UNL     1       5.272   3.771  19.146  0.00  0.00    +0.000 OA
ATOM     26  C   UNL     1       5.586   4.696  18.096  0.00  0.00    +0.000 C 
ATOM     27  C   UNL     1       5.051   6.106  18.420  0.00  0.00    +0.000 C 
BRANCH  23  28
ATOM     28  O   UNL     1       1.839   4.840  20.017  0.00  0.00    +0.000 OA
ATOM     29  H   UNL     1       1.550   3.951  19.739  0.00  0.00    +0.000 HD
ENDBRANCH  23  28
BRANCH  24  30
ATOM     30  O   UNL     1       3.679   2.630  20.335  0.00  0.00    +0.000 OA
ATOM     31  H   UNL     1       3.918   3.022  21.190  0.00  0.00    +0.000 HD
ENDBRANCH  24  30
BRANCH  27  32
ATOM     32  O   UNL     1       5.331   7.007  17.344  0.00  0.00    +0.000 OA
ATOM     33  H   UNL     1       4.513   7.192  16.851  0.00  0.00    +0.000 HD
ENDBRANCH  27  32
BRANCH  26  34
ATOM     34  C   UNL     1       7.111   4.683  17.926  0.00  0.00    +0.000 C 
BRANCH  34  35
ATOM     35  O   UNL     1       7.456   5.322  16.694  0.00  0.00    +0.000 OA
ATOM     36  H   UNL     1       8.424   5.450  16.720  0.00  0.00    +0.000 HD
ENDBRANCH  34  35
ENDBRANCH  26  34
ENDBRANCH  21  22
ENDBRANCH   2  21
TORSDOF 10
ENDMDL
MODEL 7
REMARK VINA RESULT:      -7.5      4.971      8.758
REMARK  Name = 
REMARK  10 active torsions:
REMARK  status: ('A' for Active; 'I' for Inactive)
REMARK    1  A    between atoms: C_2  and  O_3
REMARK    2  A    between atoms: C_2  and  C_15
REMARK    3  A    between atoms: O_3  and  C_4
REMARK    4  A    between atoms: C_5  and  O_6
REMARK    5  A    between atoms: C_7  and  O_8
REMARK    6  A    between atoms: C_10  and  C_11
REMARK    7  A    between atoms: C_11  and  O_12
REMARK    8  A    between atoms: C_13  and  O_14
REMARK    9  A    between atoms: N_17  and  C_18
REMARK   10  A    between atoms: C_18  and  C_19
REMARK                            x       y       z     vdW  Elec       q    Type
REMARK                         _______ _______ _______ _____ _____    ______ ____
ROOT
ATOM      1  O   UNL     1       2.818   8.259  17.010  0.00  0.00    +0.000 OA
ATOM      2  C   UNL     1       2.429   8.183  18.173  0.00  0.00    +0.000 C 
ENDROOT
BRANCH   2   3
ATOM      3  C   UNL     1       1.392   9.069  18.738  0.00  0.00    +0.000 A 
ATOM      4  N   UNL     1       0.735   9.988  18.002  0.00  0.00    +0.000 NA
ATOM      5  N   UNL     1      -0.026  10.659  18.894  0.00  0.00    +0.000 N 
ATOM      6  C   UNL     1       0.107  10.214  20.188  0.00  0.00    +0.000 A 
ATOM      7  C   UNL     1      -0.447  10.654  21.402  0.00  0.00    +0.000 A 
ATOM      8  C   UNL     1      -0.075   9.980  22.568  0.00  0.00    +0.000 A 
ATOM      9  C   UNL     1       0.805   8.902  22.523  0.00  0.00    +0.000 A 
ATOM     10  C   UNL     1       1.354   8.479  21.307  0.00  0.00    +0.000 A 
ATOM     11  C   UNL     1       1.008   9.151  20.116  0.00  0.00    +0.000 A 
BRANCH   5  12
ATOM     12  C   UNL     1      -0.757  11.842  18.456  0.00  0.00    +0.000 C 
BRANCH  12  13
ATOM     13  C   UNL     1      -2.153  11.535  17.963  0.00  0.00    +0.000 A 
ATOM     14  C   UNL     1      -3.275  11.821  18.758  0.00  0.00    +0.000 A 
ATOM     15  C   UNL     1      -4.565  11.617  18.260  0.00  0.00    +0.000 A 
ATOM     16 CL   UNL     1      -5.925  12.000  19.243  0.00  0.00    +0.000 Cl
ATOM     17  C   UNL     1      -4.762  11.128  16.972  0.00  0.00    +0.000 A 
ATOM     18  C   UNL     1      -3.655  10.835  16.183  0.00  0.00    +0.000 A 
ATOM     19 CL   UNL     1      -3.883  10.244  14.583  0.00  0.00    +0.000 Cl
ATOM     20  C   UNL     1      -2.361  11.033  16.668  0.00  0.00    +0.000 A 
ENDBRANCH  12  13
ENDBRANCH   5  12
ENDBRANCH   2   3
BRANCH   2  21
ATOM     21  O   UNL     1       2.851   7.199  19.036  0.00  0.00    +0.000 OA
BRANCH  21  22
ATOM     22  C   UNL     1       3.354   5.999  18.396  0.00  0.00    +0.000 C 
ATOM     23  C   UNL     1       2.919   4.787  19.242  0.00  0.00    +0.000 C 
ATOM     24  C   UNL     1       3.552   3.504  18.671  0.00  0.00    +0.000 C 
ATOM     25  O   UNL     1       4.968   3.610  18.638  0.00  0.00    +0.000 OA
ATOM     26  C   UNL     1       5.420   4.679  17.795  0.00  0.00    +0.000 C 
ATOM     27  C   UNL     1       4.892   6.041  18.293  0.00  0.00    +0.000 C 
BRANCH  23  28
ATOM     28  O   UNL     1       1.492   4.678  19.319  0.00  0.00    +0.000 OA
ATOM     29  H   UNL     1       1.142   4.448  18.438  0.00  0.00    +0.000 HD
ENDBRANCH  23  28
BRANCH  24  30
ATOM     30  O   UNL     1       3.225   2.365  19.450  0.00  0.00    +0.000 OA
ATOM     31  H   UNL     1       2.270   2.219  19.354  0.00  0.00    +0.000 HD
ENDBRANCH  24  30
BRANCH  27  32
ATOM     32  O   UNL     1       5.312   7.091  17.417  0.00  0.00    +0.000 OA
ATOM     33  H   UNL     1       6.168   6.859  17.016  0.00  0.00    +0.000 HD
ENDBRANCH  27  32
BRANCH  26  34
ATOM     34  C   UNL     1       6.953   4.625  17.782  0.00  0.00    +0.000 C 
BRANCH  34  35
ATOM     35  O   UNL     1       7.435   5.128  16.534  0.00  0.00    +0.000 OA
ATOM     36  H   UNL     1       8.374   4.863  16.481  0.00  0.00    +0.000 HD
ENDBRANCH  34  35
ENDBRANCH  26  34
ENDBRANCH  21  22
ENDBRANCH   2  21
TORSDOF 10
ENDMDL
MODEL 8
REMARK VINA RESULT:      -7.4      4.953      8.935
REMARK  Name = 
REMARK  10 active torsions:
REMARK  status: ('A' for Active; 'I' for Inactive)
REMARK    1  A    between atoms: C_2  and  O_3
REMARK    2  A    between atoms: C_2  and  C_15
REMARK    3  A    between atoms: O_3  and  C_4
REMARK    4  A    between atoms: C_5  and  O_6
REMARK    5  A    between atoms: C_7  and  O_8
REMARK    6  A    between atoms: C_10  and  C_11
REMARK    7  A    between atoms: C_11  and  O_12
REMARK    8  A    between atoms: C_13  and  O_14
REMARK    9  A    between atoms: N_17  and  C_18
REMARK   10  A    between atoms: C_18  and  C_19
REMARK                            x       y       z     vdW  Elec       q    Type
REMARK                         _______ _______ _______ _____ _____    ______ ____
ROOT
ATOM      1  O   UNL     1       2.981   8.475  16.985  0.00  0.00    +0.000 OA
ATOM      2  C   UNL     1       2.320   8.166  17.973  0.00  0.00    +0.000 C 
ENDROOT
BRANCH   2   3
ATOM      3  C   UNL     1       1.332   9.067  18.600  0.00  0.00    +0.000 A 
ATOM      4  N   UNL     1       0.680  10.026  17.914  0.00  0.00    +0.000 NA
ATOM      5  N   UNL     1      -0.027  10.695  18.851  0.00  0.00    +0.000 N 
ATOM      6  C   UNL     1       0.139  10.209  20.127  0.00  0.00    +0.000 A 
ATOM      7  C   UNL     1      -0.357  10.632  21.372  0.00  0.00    +0.000 A 
ATOM      8  C   UNL     1       0.034   9.914  22.505  0.00  0.00    +0.000 A 
ATOM      9  C   UNL     1       0.877   8.811  22.399  0.00  0.00    +0.000 A 
ATOM     10  C   UNL     1       1.368   8.406  21.151  0.00  0.00    +0.000 A 
ATOM     11  C   UNL     1       1.001   9.122  19.993  0.00  0.00    +0.000 A 
BRANCH   5  12
ATOM     12  C   UNL     1      -0.735  11.912  18.473  0.00  0.00    +0.000 C 
BRANCH  12  13
ATOM     13  C   UNL     1      -2.132  11.656  17.954  0.00  0.00    +0.000 A 
ATOM     14  C   UNL     1      -2.337  11.155  16.659  0.00  0.00    +0.000 A 
ATOM     15  C   UNL     1      -3.626  10.837  16.220  0.00  0.00    +0.000 A 
ATOM     16 CL   UNL     1      -3.850  10.198  14.637  0.00  0.00    +0.000 Cl
ATOM     17  C   UNL     1      -4.726  11.011  17.054  0.00  0.00    +0.000 A 
ATOM     18  C   UNL     1      -4.530  11.516  18.335  0.00  0.00    +0.000 A 
ATOM     19 CL   UNL     1      -5.879  11.722  19.383  0.00  0.00    +0.000 Cl
ATOM     20  C   UNL     1      -3.249  11.838  18.787  0.00  0.00    +0.000 A 
ENDBRANCH  12  13
ENDBRANCH   5  12
ENDBRANCH   2   3
BRANCH   2  21
ATOM     21  O   UNL     1       2.363   6.910  18.534  0.00  0.00    +0.000 OA
BRANCH  21  22
ATOM     22  C   UNL     1       3.086   5.919  17.761  0.00  0.00    +0.000 C 
ATOM     23  C   UNL     1       2.414   4.552  17.987  0.00  0.00    +0.000 C 
ATOM     24  C   UNL     1       3.237   3.450  17.293  0.00  0.00    +0.000 C 
ATOM     25  O   UNL     1       4.573   3.438  17.776  0.00  0.00    +0.000 OA
ATOM     26  C   UNL     1       5.264   4.668  17.514  0.00  0.00    +0.000 C 
ATOM     27  C   UNL     1       4.562   5.857  18.202  0.00  0.00    +0.000 C 
BRANCH  23  28
ATOM     28  O   UNL     1       1.052   4.549  17.539  0.00  0.00    +0.000 OA
ATOM     29  H   UNL     1       1.035   4.648  16.569  0.00  0.00    +0.000 HD
ENDBRANCH  23  28
BRANCH  24  30
ATOM     30  O   UNL     1       2.687   2.162  17.519  0.00  0.00    +0.000 OA
ATOM     31  H   UNL     1       1.726   2.274  17.602  0.00  0.00    +0.000 HD
ENDBRANCH  24  30
BRANCH  27  32
ATOM     32  O   UNL     1       5.235   7.081  17.894  0.00  0.00    +0.000 OA
ATOM     33  H   UNL     1       5.786   7.351  18.650  0.00  0.00    +0.000 HD
ENDBRANCH  27  32
BRANCH  26  34
ATOM     34  C   UNL     1       6.706   4.487  18.003  0.00  0.00    +0.000 C 
BRANCH  34  35
ATOM     35  O   UNL     1       6.826   5.010  19.328  0.00  0.00    +0.000 OA
ATOM     36  H   UNL     1       6.974   5.970  19.226  0.00  0.00    +0.000 HD
ENDBRANCH  34  35
ENDBRANCH  26  34
ENDBRANCH  21  22
ENDBRANCH   2  21
TORSDOF 10
ENDMDL
MODEL 9
REMARK VINA RESULT:      -7.4      0.972      1.913
REMARK  Name = 
REMARK  10 active torsions:
REMARK  status: ('A' for Active; 'I' for Inactive)
REMARK    1  A    between atoms: C_2  and  O_3
REMARK    2  A    between atoms: C_2  and  C_15
REMARK    3  A    between atoms: O_3  and  C_4
REMARK    4  A    between atoms: C_5  and  O_6
REMARK    5  A    between atoms: C_7  and  O_8
REMARK    6  A    between atoms: C_10  and  C_11
REMARK    7  A    between atoms: C_11  and  O_12
REMARK    8  A    between atoms: C_13  and  O_14
REMARK    9  A    between atoms: N_17  and  C_18
REMARK   10  A    between atoms: C_18  and  C_19
REMARK                            x       y       z     vdW  Elec       q    Type
REMARK                         _______ _______ _______ _____ _____    ______ ____
ROOT
ATOM      1  O   UNL     1      -0.252   7.677  21.380  0.00  0.00    +0.000 OA
ATOM      2  C   UNL     1       0.927   7.907  21.120  0.00  0.00    +0.000 C 
ENDROOT
BRANCH   2   3
ATOM      3  C   UNL     1       1.700   7.140  20.122  0.00  0.00    +0.000 A 
ATOM      4  N   UNL     1       2.474   7.729  19.189  0.00  0.00    +0.000 NA
ATOM      5  N   UNL     1       2.905   6.711  18.412  0.00  0.00    +0.000 N 
ATOM      6  C   UNL     1       2.442   5.476  18.802  0.00  0.00    +0.000 A 
ATOM      7  C   UNL     1       2.599   4.191  18.256  0.00  0.00    +0.000 A 
ATOM      8  C   UNL     1       1.960   3.129  18.900  0.00  0.00    +0.000 A 
ATOM      9  C   UNL     1       1.203   3.339  20.050  0.00  0.00    +0.000 A 
ATOM     10  C   UNL     1       1.050   4.627  20.578  0.00  0.00    +0.000 A 
ATOM     11  C   UNL     1       1.672   5.719  19.939  0.00  0.00    +0.000 A 
BRANCH   5  12
ATOM     12  C   UNL     1       3.650   7.012  17.195  0.00  0.00    +0.000 C 
BRANCH  12  13
ATOM     13  C   UNL     1       4.903   6.182  17.038  0.00  0.00    +0.000 A 
ATOM     14  C   UNL     1       5.166   5.497  15.841  0.00  0.00    +0.000 A 
ATOM     15  C   UNL     1       6.369   4.805  15.672  0.00  0.00    +0.000 A 
ATOM     16 CL   UNL     1       6.681   3.996  14.185  0.00  0.00    +0.000 Cl
ATOM     17  C   UNL     1       7.325   4.780  16.683  0.00  0.00    +0.000 A 
ATOM     18  C   UNL     1       7.065   5.448  17.875  0.00  0.00    +0.000 A 
ATOM     19 CL   UNL     1       8.244   5.439  19.128  0.00  0.00    +0.000 Cl
ATOM     20  C   UNL     1       5.868   6.144  18.058  0.00  0.00    +0.000 A 
ENDBRANCH  12  13
ENDBRANCH   5  12
ENDBRANCH   2   3
BRANCH   2  21
ATOM     21  O   UNL     1       1.616   8.966  21.664  0.00  0.00    +0.000 OA
BRANCH  21  22
ATOM     22  C   UNL     1       0.931  10.241  21.596  0.00  0.00    +0.000 C 
ATOM     23  C   UNL     1      -0.278  10.187  22.549  0.00  0.00    +0.000 C 
ATOM     24  C   UNL     1      -1.112  11.473  22.400  0.00  0.00    +0.000 C 
ATOM     25  O   UNL     1      -1.539  11.646  21.057  0.00  0.00    +0.000 OA
ATOM     26  C   UNL     1      -0.442  11.782  20.143  0.00  0.00    +0.000 C 
ATOM     27  C   UNL     1       0.452  10.525  20.158  0.00  0.00    +0.000 C 
BRANCH  23  28
ATOM     28  O   UNL     1       0.126   9.978  23.908  0.00  0.00    +0.000 OA
ATOM     29  H   UNL     1       0.788   9.263  23.938  0.00  0.00    +0.000 HD
ENDBRANCH  23  28
BRANCH  24  30
ATOM     30  O   UNL     1      -2.270  11.447  23.219  0.00  0.00    +0.000 OA
ATOM     31  H   UNL     1      -2.467  12.366  23.462  0.00  0.00    +0.000 HD
ENDBRANCH  24  30
BRANCH  27  32
ATOM     32  O   UNL     1       1.567  10.694  19.277  0.00  0.00    +0.000 OA
ATOM     33  H   UNL     1       1.631  11.626  19.005  0.00  0.00    +0.000 HD
ENDBRANCH  27  32
BRANCH  26  34
ATOM     34  C   UNL     1      -1.041  12.048  18.756  0.00  0.00    +0.000 C 
BRANCH  34  35
ATOM     35  O   UNL     1      -0.894  10.879  17.945  0.00  0.00    +0.000 OA
ATOM     36  H   UNL     1      -0.234  10.320  18.397  0.00  0.00    +0.000 HD
ENDBRANCH  34  35
ENDBRANCH  26  34
ENDBRANCH  21  22
ENDBRANCH   2  21
TORSDOF 10
ENDMDL
