MODEL 1
REMARK VINA RESULT:      -6.4      0.000      0.000
REMARK  Name = 
REMARK  5 active torsions:
REMARK  status: ('A' for Active; 'I' for Inactive)
REMARK    1  A    between atoms: C_1  and  C_2
REMARK    2  A    between atoms: C_3  and  C_4
REMARK    3  A    between atoms: N_6  and  N_7
REMARK    4  A    between atoms: N_10  and  C_11
REMARK    5  A    between atoms: C_17  and  N_18
REMARK                            x       y       z     vdW  Elec       q    Type
REMARK                         _______ _______ _______ _____ _____    ______ ____
ROOT
ATOM      1  C   UNL     1       2.298   7.726  18.617  0.00  0.00    +0.000 C 
ATOM      2  O   UNL     1       2.173   7.787  19.838  0.00  0.00    +0.000 OA
ATOM      3  N   UNL     1       1.836   8.710  17.740  0.00  0.00    +0.000 N 
ATOM      4  H   UNL     1       1.876   8.605  16.731  0.00  0.00    +0.000 HD
ENDROOT
BRANCH   1   7
ATOM      5  C   UNL     1       1.519   4.809  19.177  0.00  0.00    +0.000 C 
ATOM      6  C   UNL     1       2.681   5.220  18.306  0.00  0.00    +0.000 A 
ATOM      7  C   UNL     1       3.012   6.566  18.011  0.00  0.00    +0.000 A 
ATOM      8  C   UNL     1       4.130   6.862  17.204  0.00  0.00    +0.000 A 
ATOM      9  C   UNL     1       4.922   5.846  16.664  0.00  0.00    +0.000 A 
ATOM     10  C   UNL     1       4.611   4.521  16.923  0.00  0.00    +0.000 A 
ATOM     11  C   UNL     1       3.502   4.224  17.727  0.00  0.00    +0.000 A 
BRANCH  11  12
ATOM     12  N   UNL     1       3.238   2.808  17.961  0.00  0.00    +0.000 N 
ATOM     13  O   UNL     1       2.403   2.261  17.229  0.00  0.00    +0.000 OA
ATOM     14  O   UNL     1       3.897   2.253  18.849  0.00  0.00    +0.000 OA
ENDBRANCH  11  12
ENDBRANCH   1   7
BRANCH   3  15
ATOM     15  N   UNL     1       1.153   9.769  18.304  0.00  0.00    +0.000 NA
ATOM     16  C   UNL     1       1.838  11.047  18.431  0.00  0.00    +0.000 C 
ATOM     17  C   UNL     1       1.240  11.792  19.644  0.00  0.00    +0.000 C 
ATOM     18  N   UNL     1      -0.235  11.943  19.566  0.00  0.00    +0.000 NA
ATOM     19  C   UNL     1      -0.740  12.510  20.818  0.00  0.00    +0.000 C 
ATOM     20  C   UNL     1      -0.870  10.626  19.319  0.00  0.00    +0.000 C 
ATOM     21  C   UNL     1      -0.278   9.887  18.098  0.00  0.00    +0.000 C 
ENDBRANCH   3  15
TORSDOF 3
ENDMDL
MODEL 2
REMARK VINA RESULT:      -6.3      1.670      2.243
REMARK  Name = 
REMARK  5 active torsions:
REMARK  status: ('A' for Active; 'I' for Inactive)
REMARK    1  A    between atoms: C_1  and  C_2
REMARK    2  A    between atoms: C_3  and  C_4
REMARK    3  A    between atoms: N_6  and  N_7
REMARK    4  A    between atoms: N_10  and  C_11
REMARK    5  A    between atoms: C_17  and  N_18
REMARK                            x       y       z     vdW  Elec       q    Type
REMARK                         _______ _______ _______ _____ _____    ______ ____
ROOT
ATOM      1  C   UNL     1       2.276   7.438  18.592  0.00  0.00    +0.000 C 
ATOM      2  O   UNL     1       2.236   7.658  19.800  0.00  0.00    +0.000 OA
ATOM      3  N   UNL     1       1.881   8.362  17.621  0.00  0.00    +0.000 N 
ATOM      4  H   UNL     1       1.845   8.134  16.633  0.00  0.00    +0.000 HD
ENDROOT
BRANCH   1   7
ATOM      5  C   UNL     1       5.033   7.151  17.272  0.00  0.00    +0.000 C 
ATOM      6  C   UNL     1       4.061   6.011  17.453  0.00  0.00    +0.000 A 
ATOM      7  C   UNL     1       2.808   6.134  18.103  0.00  0.00    +0.000 A 
ATOM      8  C   UNL     1       1.950   5.020  18.209  0.00  0.00    +0.000 A 
ATOM      9  C   UNL     1       2.318   3.773  17.699  0.00  0.00    +0.000 A 
ATOM     10  C   UNL     1       3.544   3.621  17.073  0.00  0.00    +0.000 A 
ATOM     11  C   UNL     1       4.397   4.727  16.963  0.00  0.00    +0.000 A 
BRANCH  11  12
ATOM     12  N   UNL     1       5.670   4.493  16.289  0.00  0.00    +0.000 N 
ATOM     13  O   UNL     1       5.671   4.543  15.052  0.00  0.00    +0.000 OA
ATOM     14  O   UNL     1       6.659   4.301  17.007  0.00  0.00    +0.000 OA
ENDBRANCH  11  12
ENDBRANCH   1   7
BRANCH   3  15
ATOM     15  N   UNL     1       1.366   9.557  18.080  0.00  0.00    +0.000 NA
ATOM     16  C   UNL     1       2.154  10.768  17.898  0.00  0.00    +0.000 C 
ATOM     17  C   UNL     1       1.792  11.750  19.034  0.00  0.00    +0.000 C 
ATOM     18  N   UNL     1       0.336  12.028  19.121  0.00  0.00    +0.000 NA
ATOM     19  C   UNL     1       0.058  12.832  20.313  0.00  0.00    +0.000 C 
ATOM     20  C   UNL     1      -0.423  10.755  19.186  0.00  0.00    +0.000 C 
ATOM     21  C   UNL     1      -0.068   9.778  18.042  0.00  0.00    +0.000 C 
ENDBRANCH   3  15
TORSDOF 3
ENDMDL
MODEL 3
REMARK VINA RESULT:      -6.1      2.503      3.078
REMARK  Name = 
REMARK  5 active torsions:
REMARK  status: ('A' for Active; 'I' for Inactive)
REMARK    1  A    between atoms: C_1  and  C_2
REMARK    2  A    between atoms: C_3  and  C_4
REMARK    3  A    between atoms: N_6  and  N_7
REMARK    4  A    between atoms: N_10  and  C_11
REMARK    5  A    between atoms: C_17  and  N_18
REMARK                            x       y       z     vdW  Elec       q    Type
REMARK                         _______ _______ _______ _____ _____    ______ ____
ROOT
ATOM      1  C   UNL     1       3.139   7.226  18.108  0.00  0.00    +0.000 C 
ATOM      2  O   UNL     1       3.187   8.221  17.389  0.00  0.00    +0.000 OA
ATOM      3  N   UNL     1       2.410   7.163  19.298  0.00  0.00    +0.000 N 
ATOM      4  H   UNL     1       2.446   6.361  19.919  0.00  0.00    +0.000 HD
ENDROOT
BRANCH   1   7
ATOM      5  C   UNL     1       6.125   7.190  17.395  0.00  0.00    +0.000 C 
ATOM      6  C   UNL     1       5.225   5.981  17.320  0.00  0.00    +0.000 A 
ATOM      7  C   UNL     1       3.858   5.988  17.693  0.00  0.00    +0.000 A 
ATOM      8  C   UNL     1       3.083   4.816  17.572  0.00  0.00    +0.000 A 
ATOM      9  C   UNL     1       3.641   3.624  17.102  0.00  0.00    +0.000 A 
ATOM     10  C   UNL     1       4.979   3.586  16.746  0.00  0.00    +0.000 A 
ATOM     11  C   UNL     1       5.751   4.749  16.863  0.00  0.00    +0.000 A 
BRANCH  11  12
ATOM     12  N   UNL     1       7.150   4.635  16.466  0.00  0.00    +0.000 N 
ATOM     13  O   UNL     1       7.418   4.837  15.275  0.00  0.00    +0.000 OA
ATOM     14  O   UNL     1       7.969   4.383  17.360  0.00  0.00    +0.000 OA
ENDBRANCH  11  12
ENDBRANCH   1   7
BRANCH   3  15
ATOM     15  N   UNL     1       1.768   8.320  19.690  0.00  0.00    +0.000 NA
ATOM     16  C   UNL     1       1.081   9.109  18.677  0.00  0.00    +0.000 C 
ATOM     17  C   UNL     1       1.088  10.584  19.134  0.00  0.00    +0.000 C 
ATOM     18  N   UNL     1       0.513  10.777  20.489  0.00  0.00    +0.000 NA
ATOM     19  C   UNL     1       0.703  12.166  20.913  0.00  0.00    +0.000 C 
ATOM     20  C   UNL     1       1.171   9.863  21.456  0.00  0.00    +0.000 C 
ATOM     21  C   UNL     1       1.153   8.386  21.002  0.00  0.00    +0.000 C 
ENDBRANCH   3  15
TORSDOF 3
ENDMDL
MODEL 4
REMARK VINA RESULT:      -6.0      1.696      2.813
REMARK  Name = 
REMARK  5 active torsions:
REMARK  status: ('A' for Active; 'I' for Inactive)
REMARK    1  A    between atoms: C_1  and  C_2
REMARK    2  A    between atoms: C_3  and  C_4
REMARK    3  A    between atoms: N_6  and  N_7
REMARK    4  A    between atoms: N_10  and  C_11
REMARK    5  A    between atoms: C_17  and  N_18
REMARK                            x       y       z     vdW  Elec       q    Type
REMARK                         _______ _______ _______ _____ _____    ______ ____
ROOT
ATOM      1  C   UNL     1       1.859   8.113  19.294  0.00  0.00    +0.000 C 
ATOM      2  O   UNL     1       2.069   8.630  18.199  0.00  0.00    +0.000 OA
ATOM      3  N   UNL     1       1.110   8.717  20.307  0.00  0.00    +0.000 N 
ATOM      4  H   UNL     1       1.016   8.310  21.232  0.00  0.00    +0.000 HD
ENDROOT
BRANCH   1   7
ATOM      5  C   UNL     1       4.119   6.834  17.654  0.00  0.00    +0.000 C 
ATOM      6  C   UNL     1       3.400   6.141  18.785  0.00  0.00    +0.000 A 
ATOM      7  C   UNL     1       2.388   6.747  19.571  0.00  0.00    +0.000 A 
ATOM      8  C   UNL     1       1.753   6.018  20.597  0.00  0.00    +0.000 A 
ATOM      9  C   UNL     1       2.112   4.697  20.875  0.00  0.00    +0.000 A 
ATOM     10  C   UNL     1       3.109   4.085  20.132  0.00  0.00    +0.000 A 
ATOM     11  C   UNL     1       3.741   4.806  19.111  0.00  0.00    +0.000 A 
BRANCH  11  12
ATOM     12  N   UNL     1       4.777   4.097  18.368  0.00  0.00    +0.000 N 
ATOM     13  O   UNL     1       5.923   4.117  18.837  0.00  0.00    +0.000 OA
ATOM     14  O   UNL     1       4.424   3.497  17.345  0.00  0.00    +0.000 OA
ENDBRANCH  11  12
ENDBRANCH   1   7
BRANCH   3  15
ATOM     15  N   UNL     1       0.645   9.991  20.054  0.00  0.00    +0.000 NA
ATOM     16  C   UNL     1      -0.699  10.144  19.513  0.00  0.00    +0.000 C 
ATOM     17  C   UNL     1      -0.733  11.442  18.677  0.00  0.00    +0.000 C 
ATOM     18  N   UNL     1      -0.288  12.637  19.438  0.00  0.00    +0.000 NA
ATOM     19  C   UNL     1      -0.194  13.788  18.537  0.00  0.00    +0.000 C 
ATOM     20  C   UNL     1       1.033  12.380  20.062  0.00  0.00    +0.000 C 
ATOM     21  C   UNL     1       1.062  11.087  20.908  0.00  0.00    +0.000 C 
ENDBRANCH   3  15
TORSDOF 3
ENDMDL
MODEL 5
REMARK VINA RESULT:      -6.0      2.722      7.525
REMARK  Name = 
REMARK  5 active torsions:
REMARK  status: ('A' for Active; 'I' for Inactive)
REMARK    1  A    between atoms: C_1  and  C_2
REMARK    2  A    between atoms: C_3  and  C_4
REMARK    3  A    between atoms: N_6  and  N_7
REMARK    4  A    between atoms: N_10  and  C_11
REMARK    5  A    between atoms: C_17  and  N_18
REMARK                            x       y       z     vdW  Elec       q    Type
REMARK                         _______ _______ _______ _____ _____    ______ ____
ROOT
ATOM      1  C   UNL     1       2.032   6.786  19.896  0.00  0.00    +0.000 C 
ATOM      2  O   UNL     1       3.052   6.705  19.216  0.00  0.00    +0.000 OA
ATOM      3  N   UNL     1       1.333   5.678  20.383  0.00  0.00    +0.000 N 
ATOM      4  H   UNL     1       0.450   5.763  20.875  0.00  0.00    +0.000 HD
ENDROOT
BRANCH   1   7
ATOM      5  C   UNL     1       1.604   9.040  17.856  0.00  0.00    +0.000 C 
ATOM      6  C   UNL     1       1.354   9.184  19.337  0.00  0.00    +0.000 A 
ATOM      7  C   UNL     1       1.508   8.130  20.272  0.00  0.00    +0.000 A 
ATOM      8  C   UNL     1       1.274   8.358  21.644  0.00  0.00    +0.000 A 
ATOM      9  C   UNL     1       0.870   9.611  22.111  0.00  0.00    +0.000 A 
ATOM     10  C   UNL     1       0.697  10.655  21.216  0.00  0.00    +0.000 A 
ATOM     11  C   UNL     1       0.931  10.432  19.853  0.00  0.00    +0.000 A 
BRANCH  11  12
ATOM     12  N   UNL     1       0.732  11.577  18.970  0.00  0.00    +0.000 N 
ATOM     13  O   UNL     1      -0.403  11.743  18.507  0.00  0.00    +0.000 OA
ATOM     14  O   UNL     1       1.707  12.317  18.782  0.00  0.00    +0.000 OA
ENDBRANCH  11  12
ENDBRANCH   1   7
BRANCH   3  15
ATOM     15  N   UNL     1       1.808   4.437  20.011  0.00  0.00    +0.000 NA
ATOM     16  C   UNL     1       2.417   3.594  21.030  0.00  0.00    +0.000 C 
ATOM     17  C   UNL     1       3.454   2.681  20.338  0.00  0.00    +0.000 C 
ATOM     18  N   UNL     1       2.881   1.894  19.217  0.00  0.00    +0.000 NA
ATOM     19  C   UNL     1       3.953   1.184  18.515  0.00  0.00    +0.000 C 
ATOM     20  C   UNL     1       2.173   2.793  18.273  0.00  0.00    +0.000 C 
ATOM     21  C   UNL     1       1.128   3.697  18.965  0.00  0.00    +0.000 C 
ENDBRANCH   3  15
TORSDOF 3
ENDMDL
MODEL 6
REMARK VINA RESULT:      -5.9      2.131      2.508
REMARK  Name = 
REMARK  5 active torsions:
REMARK  status: ('A' for Active; 'I' for Inactive)
REMARK    1  A    between atoms: C_1  and  C_2
REMARK    2  A    between atoms: C_3  and  C_4
REMARK    3  A    between atoms: N_6  and  N_7
REMARK    4  A    between atoms: N_10  and  C_11
REMARK    5  A    between atoms: C_17  and  N_18
REMARK                            x       y       z     vdW  Elec       q    Type
REMARK                         _______ _______ _______ _____ _____    ______ ____
ROOT
ATOM      1  C   UNL     1       1.630   8.340  19.553  0.00  0.00    +0.000 C 
ATOM      2  O   UNL     1       0.858   9.028  18.890  0.00  0.00    +0.000 OA
ATOM      3  N   UNL     1       1.765   8.444  20.940  0.00  0.00    +0.000 N 
ATOM      4  H   UNL     1       2.465   7.925  21.460  0.00  0.00    +0.000 HD
ENDROOT
BRANCH   1   7
ATOM      5  C   UNL     1       1.658   5.398  20.428  0.00  0.00    +0.000 C 
ATOM      6  C   UNL     1       2.501   5.953  19.306  0.00  0.00    +0.000 A 
ATOM      7  C   UNL     1       2.454   7.301  18.873  0.00  0.00    +0.000 A 
ATOM      8  C   UNL     1       3.293   7.741  17.829  0.00  0.00    +0.000 A 
ATOM      9  C   UNL     1       4.171   6.864  17.187  0.00  0.00    +0.000 A 
ATOM     10  C   UNL     1       4.225   5.537  17.580  0.00  0.00    +0.000 A 
ATOM     11  C   UNL     1       3.395   5.097  18.619  0.00  0.00    +0.000 A 
BRANCH  11  12
ATOM     12  N   UNL     1       3.509   3.689  18.982  0.00  0.00    +0.000 N 
ATOM     13  O   UNL     1       2.652   2.917  18.532  0.00  0.00    +0.000 OA
ATOM     14  O   UNL     1       4.478   3.366  19.682  0.00  0.00    +0.000 OA
ENDBRANCH  11  12
ENDBRANCH   1   7
BRANCH   3  15
ATOM     15  N   UNL     1       1.019   9.425  21.561  0.00  0.00    +0.000 NA
ATOM     16  C   UNL     1       0.657   9.240  22.959  0.00  0.00    +0.000 C 
ATOM     17  C   UNL     1      -0.670   9.988  23.213  0.00  0.00    +0.000 C 
ATOM     18  N   UNL     1      -0.614  11.420  22.826  0.00  0.00    +0.000 NA
ATOM     19  C   UNL     1      -1.947  12.016  22.944  0.00  0.00    +0.000 C 
ATOM     20  C   UNL     1      -0.127  11.552  21.431  0.00  0.00    +0.000 C 
ATOM     21  C   UNL     1       1.207  10.813  21.182  0.00  0.00    +0.000 C 
ENDBRANCH   3  15
TORSDOF 3
ENDMDL
MODEL 7
REMARK VINA RESULT:      -5.9      1.473      2.393
REMARK  Name = 
REMARK  5 active torsions:
REMARK  status: ('A' for Active; 'I' for Inactive)
REMARK    1  A    between atoms: C_1  and  C_2
REMARK    2  A    between atoms: C_3  and  C_4
REMARK    3  A    between atoms: N_6  and  N_7
REMARK    4  A    between atoms: N_10  and  C_11
REMARK    5  A    between atoms: C_17  and  N_18
REMARK                            x       y       z     vdW  Elec       q    Type
REMARK                         _______ _______ _______ _____ _____    ______ ____
ROOT
ATOM      1  C   UNL     1       1.878   7.875  19.765  0.00  0.00    +0.000 C 
ATOM      2  O   UNL     1       1.663   8.451  20.829  0.00  0.00    +0.000 OA
ATOM      3  N   UNL     1       1.712   8.472  18.512  0.00  0.00    +0.000 N 
ATOM      4  H   UNL     1       1.816   7.957  17.644  0.00  0.00    +0.000 HD
ENDROOT
BRANCH   1   7
ATOM      5  C   UNL     1       4.150   6.900  17.945  0.00  0.00    +0.000 C 
ATOM      6  C   UNL     1       3.400   6.013  18.908  0.00  0.00    +0.000 A 
ATOM      7  C   UNL     1       2.382   6.473  19.780  0.00  0.00    +0.000 A 
ATOM      8  C   UNL     1       1.717   5.570  20.634  0.00  0.00    +0.000 A 
ATOM      9  C   UNL     1       2.052   4.214  20.656  0.00  0.00    +0.000 A 
ATOM     10  C   UNL     1       3.054   3.740  19.825  0.00  0.00    +0.000 A 
ATOM     11  C   UNL     1       3.716   4.635  18.974  0.00  0.00    +0.000 A 
BRANCH  11  12
ATOM     12  N   UNL     1       4.756   4.065  18.124  0.00  0.00    +0.000 N 
ATOM     13  O   UNL     1       5.907   4.040  18.579  0.00  0.00    +0.000 OA
ATOM     14  O   UNL     1       4.401   3.615  17.027  0.00  0.00    +0.000 OA
ENDBRANCH  11  12
ENDBRANCH   1   7
BRANCH   3  15
ATOM     15  N   UNL     1       1.221   9.762  18.504  0.00  0.00    +0.000 NA
ATOM     16  C   UNL     1       2.108  10.839  18.088  0.00  0.00    +0.000 C 
ATOM     17  C   UNL     1       1.658  12.132  18.803  0.00  0.00    +0.000 C 
ATOM     18  N   UNL     1       0.227  12.456  18.577  0.00  0.00    +0.000 NA
ATOM     19  C   UNL     1      -0.159  13.595  19.413  0.00  0.00    +0.000 C 
ATOM     20  C   UNL     1      -0.618  11.282  18.906  0.00  0.00    +0.000 C 
ATOM     21  C   UNL     1      -0.175   9.992  18.181  0.00  0.00    +0.000 C 
ENDBRANCH   3  15
TORSDOF 3
ENDMDL
MODEL 8
REMARK VINA RESULT:      -5.9      2.138      2.451
REMARK  Name = 
REMARK  5 active torsions:
REMARK  status: ('A' for Active; 'I' for Inactive)
REMARK    1  A    between atoms: C_1  and  C_2
REMARK    2  A    between atoms: C_3  and  C_4
REMARK    3  A    between atoms: N_6  and  N_7
REMARK    4  A    between atoms: N_10  and  C_11
REMARK    5  A    between atoms: C_17  and  N_18
REMARK                            x       y       z     vdW  Elec       q    Type
REMARK                         _______ _______ _______ _____ _____    ______ ____
ROOT
ATOM      1  C   UNL     1       1.727   6.908  20.325  0.00  0.00    +0.000 C 
ATOM      2  O   UNL     1       0.976   6.473  21.195  0.00  0.00    +0.000 OA
ATOM      3  N   UNL     1       1.951   8.269  20.104  0.00  0.00    +0.000 N 
ATOM      4  H   UNL     1       2.512   8.611  19.330  0.00  0.00    +0.000 HD
ENDROOT
BRANCH   1   7
ATOM      5  C   UNL     1       2.252   3.994  21.137  0.00  0.00    +0.000 C 
ATOM      6  C   UNL     1       2.766   4.621  19.865  0.00  0.00    +0.000 A 
ATOM      7  C   UNL     1       2.486   5.953  19.469  0.00  0.00    +0.000 A 
ATOM      8  C   UNL     1       3.026   6.467  18.272  0.00  0.00    +0.000 A 
ATOM      9  C   UNL     1       3.829   5.679  17.443  0.00  0.00    +0.000 A 
ATOM     10  C   UNL     1       4.106   4.369  17.799  0.00  0.00    +0.000 A 
ATOM     11  C   UNL     1       3.573   3.856  18.989  0.00  0.00    +0.000 A 
BRANCH  11  12
ATOM     12  N   UNL     1       3.910   2.472  19.301  0.00  0.00    +0.000 N 
ATOM     13  O   UNL     1       4.866   2.280  20.063  0.00  0.00    +0.000 OA
ATOM     14  O   UNL     1       3.189   1.593  18.809  0.00  0.00    +0.000 OA
ENDBRANCH  11  12
ENDBRANCH   1   7
BRANCH   3  15
ATOM     15  N   UNL     1       1.227   9.149  20.883  0.00  0.00    +0.000 NA
ATOM     16  C   UNL     1       1.486   9.181  22.315  0.00  0.00    +0.000 C 
ATOM     17  C   UNL     1       0.188   9.622  23.026  0.00  0.00    +0.000 C 
ATOM     18  N   UNL     1      -0.347  10.910  22.516  0.00  0.00    +0.000 NA
ATOM     19  C   UNL     1      -1.654  11.176  23.121  0.00  0.00    +0.000 C 
ATOM     20  C   UNL     1      -0.478  10.858  21.039  0.00  0.00    +0.000 C 
ATOM     21  C   UNL     1       0.825  10.428  20.329  0.00  0.00    +0.000 C 
ENDBRANCH   3  15
TORSDOF 3
ENDMDL
MODEL 9
REMARK VINA RESULT:      -5.8      2.652      7.470
REMARK  Name = 
REMARK  5 active torsions:
REMARK  status: ('A' for Active; 'I' for Inactive)
REMARK    1  A    between atoms: C_1  and  C_2
REMARK    2  A    between atoms: C_3  and  C_4
REMARK    3  A    between atoms: N_6  and  N_7
REMARK    4  A    between atoms: N_10  and  C_11
REMARK    5  A    between atoms: C_17  and  N_18
REMARK                            x       y       z     vdW  Elec       q    Type
REMARK                         _______ _______ _______ _____ _____    ______ ____
ROOT
ATOM      1  C   UNL     1       2.236   7.679  19.306  0.00  0.00    +0.000 C 
ATOM      2  O   UNL     1       2.611   8.052  18.196  0.00  0.00    +0.000 OA
ATOM      3  N   UNL     1       2.587   6.450  19.870  0.00  0.00    +0.000 N 
ATOM      4  H   UNL     1       2.203   6.125  20.752  0.00  0.00    +0.000 HD
ENDROOT
BRANCH   1   7
ATOM      5  C   UNL     1       0.649  10.027  18.125  0.00  0.00    +0.000 C 
ATOM      6  C   UNL     1       0.696   9.695  19.596  0.00  0.00    +0.000 A 
ATOM      7  C   UNL     1       1.392   8.584  20.136  0.00  0.00    +0.000 A 
ATOM      8  C   UNL     1       1.402   8.360  21.528  0.00  0.00    +0.000 A 
ATOM      9  C   UNL     1       0.717   9.208  22.402  0.00  0.00    +0.000 A 
ATOM     10  C   UNL     1       0.016  10.292  21.900  0.00  0.00    +0.000 A 
ATOM     11  C   UNL     1       0.006  10.519  20.517  0.00  0.00    +0.000 A 
BRANCH  11  12
ATOM     12  N   UNL     1      -0.749  11.680  20.061  0.00  0.00    +0.000 N 
ATOM     13  O   UNL     1      -1.937  11.501  19.761  0.00  0.00    +0.000 OA
ATOM     14  O   UNL     1      -0.154  12.766  20.044  0.00  0.00    +0.000 OA
ENDBRANCH  11  12
ENDBRANCH   1   7
BRANCH   3  15
ATOM     15  N   UNL     1       3.347   5.605  19.087  0.00  0.00    +0.000 NA
ATOM     16  C   UNL     1       4.761   5.455  19.401  0.00  0.00    +0.000 C 
ATOM     17  C   UNL     1       5.507   5.111  18.093  0.00  0.00    +0.000 C 
ATOM     18  N   UNL     1       4.950   3.923  17.399  0.00  0.00    +0.000 NA
ATOM     19  C   UNL     1       5.601   3.761  16.097  0.00  0.00    +0.000 C 
ATOM     20  C   UNL     1       3.487   4.082  17.212  0.00  0.00    +0.000 C 
ATOM     21  C   UNL     1       2.740   4.414  18.523  0.00  0.00    +0.000 C 
ENDBRANCH   3  15
TORSDOF 3
ENDMDL
