MODEL 1
REMARK VINA RESULT:      -7.9      0.000      0.000
REMARK  Name = 
REMARK  9 active torsions:
REMARK  status: ('A' for Active; 'I' for Inactive)
REMARK    1  A    between atoms: C_5  and  C_6
REMARK    2  A    between atoms: C_8  and  C_9
REMARK    3  A    between atoms: C_9  and  C_10
REMARK    4  A    between atoms: C_10  and  C_11
REMARK    5  A    between atoms: C_11  and  C_12
REMARK    6  A    between atoms: C_12  and  N_13
REMARK    7  A    between atoms: N_16  and  C_17
REMARK    8  A    between atoms: C_17  and  C_18
REMARK    9  A    between atoms: C_17  and  C_24
REMARK                            x       y       z     vdW  Elec       q    Type
REMARK                         _______ _______ _______ _____ _____    ______ ____
ROOT
ATOM      1  N   UNL     1      10.596  11.562  18.492  0.00  0.00    +0.000 NA
ATOM      2  C   UNL     1      10.839  12.800  17.719  0.00  0.00    +0.000 C 
ATOM      3  C   UNL     1       9.669  13.815  17.744  0.00  0.00    +0.000 C 
ATOM      4  N   UNL     1       9.240  14.216  19.112  0.00  0.00    +0.000 NA
ATOM      5  C   UNL     1       8.941  12.969  19.850  0.00  0.00    +0.000 C 
ATOM      6  C   UNL     1      10.091  11.925  19.843  0.00  0.00    +0.000 C 
ENDROOT
BRANCH   1   7
ATOM      7  C   UNL     1       9.619  10.678  17.843  0.00  0.00    +0.000 C 
BRANCH   7   8
ATOM      8  C   UNL     1       8.904   9.708  18.788  0.00  0.00    +0.000 C 
BRANCH   8   9
ATOM      9  C   UNL     1       7.778   8.963  18.075  0.00  0.00    +0.000 C 
BRANCH   9  10
ATOM     10  C   UNL     1       8.081   7.470  17.920  0.00  0.00    +0.000 C 
BRANCH  10  13
ATOM     11  C   UNL     1       5.019   5.518  17.473  0.00  0.00    +0.000 A 
ATOM     12  C   UNL     1       6.198   5.694  18.236  0.00  0.00    +0.000 A 
ATOM     13  C   UNL     1       6.846   6.728  17.622  0.00  0.00    +0.000 A 
ATOM     14  O   UNL     1       6.144   7.126  16.533  0.00  0.00    +0.000 OA
ATOM     15  N   UNL     1       5.000   6.362  16.429  0.00  0.00    +0.000 NA
BRANCH  11  20
ATOM     16  F   UNL     1       0.862   1.935  18.489  0.00  0.00    +0.000 F 
ATOM     17  C   UNL     1       1.862   2.795  18.242  0.00  0.00    +0.000 A 
ATOM     18  C   UNL     1       3.171   2.341  18.248  0.00  0.00    +0.000 A 
ATOM     19  C   UNL     1       4.210   3.235  17.992  0.00  0.00    +0.000 A 
ATOM     20  C   UNL     1       3.932   4.586  17.733  0.00  0.00    +0.000 A 
ATOM     21  C   UNL     1       2.601   5.028  17.738  0.00  0.00    +0.000 A 
ATOM     22  C   UNL     1       1.569   4.128  17.993  0.00  0.00    +0.000 A 
ENDBRANCH  11  20
ENDBRANCH  10  13
ENDBRANCH   9  10
ENDBRANCH   8   9
ENDBRANCH   7   8
ENDBRANCH   1   7
BRANCH   4  23
ATOM     23  C   UNL     1      10.295  15.041  19.780  0.00  0.00    +0.000 C 
BRANCH  23  24
ATOM     24  C   UNL     1      10.663  16.261  18.921  0.00  0.00    +0.000 A 
ATOM     25  C   UNL     1      11.974  16.462  18.456  0.00  0.00    +0.000 A 
ATOM     26  C   UNL     1      12.323  17.630  17.779  0.00  0.00    +0.000 A 
ATOM     27  C   UNL     1      11.374  18.627  17.577  0.00  0.00    +0.000 A 
ATOM     28  C   UNL     1      10.071  18.450  18.036  0.00  0.00    +0.000 A 
ATOM     29  C   UNL     1       9.712  17.272  18.692  0.00  0.00    +0.000 A 
ENDBRANCH  23  24
BRANCH  23  30
ATOM     30  C   UNL     1       9.981  15.426  21.232  0.00  0.00    +0.000 A 
ATOM     31  C   UNL     1       8.677  15.245  21.732  0.00  0.00    +0.000 A 
ATOM     32  C   UNL     1       8.365  15.555  23.058  0.00  0.00    +0.000 A 
ATOM     33  C   UNL     1       9.352  16.043  23.910  0.00  0.00    +0.000 A 
ATOM     34  C   UNL     1      10.641  16.252  23.427  0.00  0.00    +0.000 A 
ATOM     35  C   UNL     1      10.949  15.964  22.096  0.00  0.00    +0.000 A 
ENDBRANCH  23  30
ENDBRANCH   4  23
TORSDOF 9
ENDMDL
MODEL 2
REMARK VINA RESULT:      -7.9      1.477      1.869
REMARK  Name = 
REMARK  9 active torsions:
REMARK  status: ('A' for Active; 'I' for Inactive)
REMARK    1  A    between atoms: C_5  and  C_6
REMARK    2  A    between atoms: C_8  and  C_9
REMARK    3  A    between atoms: C_9  and  C_10
REMARK    4  A    between atoms: C_10  and  C_11
REMARK    5  A    between atoms: C_11  and  C_12
REMARK    6  A    between atoms: C_12  and  N_13
REMARK    7  A    between atoms: N_16  and  C_17
REMARK    8  A    between atoms: C_17  and  C_18
REMARK    9  A    between atoms: C_17  and  C_24
REMARK                            x       y       z     vdW  Elec       q    Type
REMARK                         _______ _______ _______ _____ _____    ______ ____
ROOT
ATOM      1  N   UNL     1       9.771  10.670  19.063  0.00  0.00    +0.000 NA
ATOM      2  C   UNL     1       9.750  11.882  18.214  0.00  0.00    +0.000 C 
ATOM      3  C   UNL     1       8.721  12.956  18.650  0.00  0.00    +0.000 C 
ATOM      4  N   UNL     1       8.868  13.399  20.064  0.00  0.00    +0.000 NA
ATOM      5  C   UNL     1       8.824  12.180  20.902  0.00  0.00    +0.000 C 
ATOM      6  C   UNL     1       9.839  11.079  20.491  0.00  0.00    +0.000 C 
ENDROOT
BRANCH   1   7
ATOM      7  C   UNL     1       8.584   9.827  18.867  0.00  0.00    +0.000 C 
BRANCH   7   8
ATOM      8  C   UNL     1       8.461   9.208  17.471  0.00  0.00    +0.000 C 
BRANCH   8   9
ATOM      9  C   UNL     1       7.499   8.022  17.470  0.00  0.00    +0.000 C 
BRANCH   9  10
ATOM     10  C   UNL     1       7.996   6.876  18.358  0.00  0.00    +0.000 C 
BRANCH  10  13
ATOM     11  C   UNL     1       5.073   4.791  19.062  0.00  0.00    +0.000 A 
ATOM     12  C   UNL     1       5.610   5.828  18.262  0.00  0.00    +0.000 A 
ATOM     13  C   UNL     1       6.871   6.015  18.754  0.00  0.00    +0.000 A 
ATOM     14  O   UNL     1       7.077   5.190  19.810  0.00  0.00    +0.000 OA
ATOM     15  N   UNL     1       5.947   4.426  20.014  0.00  0.00    +0.000 NA
BRANCH  11  20
ATOM     16  F   UNL     1       0.093   2.336  18.493  0.00  0.00    +0.000 F 
ATOM     17  C   UNL     1       1.289   2.929  18.631  0.00  0.00    +0.000 A 
ATOM     18  C   UNL     1       1.653   3.944  17.761  0.00  0.00    +0.000 A 
ATOM     19  C   UNL     1       2.896   4.559  17.903  0.00  0.00    +0.000 A 
ATOM     20  C   UNL     1       3.773   4.151  18.920  0.00  0.00    +0.000 A 
ATOM     21  C   UNL     1       3.390   3.118  19.787  0.00  0.00    +0.000 A 
ATOM     22  C   UNL     1       2.146   2.510  19.639  0.00  0.00    +0.000 A 
ENDBRANCH  11  20
ENDBRANCH  10  13
ENDBRANCH   9  10
ENDBRANCH   8   9
ENDBRANCH   7   8
ENDBRANCH   1   7
BRANCH   4  23
ATOM     23  C   UNL     1      10.131  14.179  20.248  0.00  0.00    +0.000 C 
BRANCH  23  24
ATOM     24  C   UNL     1      10.411  15.067  19.026  0.00  0.00    +0.000 A 
ATOM     25  C   UNL     1      11.622  14.979  18.317  0.00  0.00    +0.000 A 
ATOM     26  C   UNL     1      11.915  15.869  17.285  0.00  0.00    +0.000 A 
ATOM     27  C   UNL     1      11.013  16.878  16.959  0.00  0.00    +0.000 A 
ATOM     28  C   UNL     1       9.811  16.987  17.654  0.00  0.00    +0.000 A 
ATOM     29  C   UNL     1       9.504  16.082  18.672  0.00  0.00    +0.000 A 
ENDBRANCH  23  24
BRANCH  23  30
ATOM     30  C   UNL     1      10.213  14.961  21.567  0.00  0.00    +0.000 A 
ATOM     31  C   UNL     1      11.169  15.986  21.708  0.00  0.00    +0.000 A 
ATOM     32  C   UNL     1      11.249  16.739  22.882  0.00  0.00    +0.000 A 
ATOM     33  C   UNL     1      10.370  16.487  23.932  0.00  0.00    +0.000 A 
ATOM     34  C   UNL     1       9.435  15.462  23.821  0.00  0.00    +0.000 A 
ATOM     35  C   UNL     1       9.369  14.693  22.657  0.00  0.00    +0.000 A 
ENDBRANCH  23  30
ENDBRANCH   4  23
TORSDOF 9
ENDMDL
MODEL 3
REMARK VINA RESULT:      -7.8      7.283     11.201
REMARK  Name = 
REMARK  9 active torsions:
REMARK  status: ('A' for Active; 'I' for Inactive)
REMARK    1  A    between atoms: C_5  and  C_6
REMARK    2  A    between atoms: C_8  and  C_9
REMARK    3  A    between atoms: C_9  and  C_10
REMARK    4  A    between atoms: C_10  and  C_11
REMARK    5  A    between atoms: C_11  and  C_12
REMARK    6  A    between atoms: C_12  and  N_13
REMARK    7  A    between atoms: N_16  and  C_17
REMARK    8  A    between atoms: C_17  and  C_18
REMARK    9  A    between atoms: C_17  and  C_24
REMARK                            x       y       z     vdW  Elec       q    Type
REMARK                         _______ _______ _______ _____ _____    ______ ____
ROOT
ATOM      1  N   UNL     1       3.463   4.428  19.627  0.00  0.00    +0.000 NA
ATOM      2  C   UNL     1       3.660   3.411  18.571  0.00  0.00    +0.000 C 
ATOM      3  C   UNL     1       3.369   3.912  17.133  0.00  0.00    +0.000 C 
ATOM      4  N   UNL     1       4.143   5.122  16.743  0.00  0.00    +0.000 NA
ATOM      5  C   UNL     1       3.885   6.148  17.777  0.00  0.00    +0.000 C 
ATOM      6  C   UNL     1       4.162   5.680  19.232  0.00  0.00    +0.000 C 
ENDROOT
BRANCH   1   7
ATOM      7  C   UNL     1       2.045   4.729  19.860  0.00  0.00    +0.000 C 
BRANCH   7   8
ATOM      8  C   UNL     1       1.780   5.751  20.970  0.00  0.00    +0.000 C 
BRANCH   8   9
ATOM      9  C   UNL     1       1.003   6.956  20.443  0.00  0.00    +0.000 C 
BRANCH   9  10
ATOM     10  C   UNL     1       1.747   8.273  20.684  0.00  0.00    +0.000 C 
BRANCH  10  13
ATOM     11  C   UNL     1      -0.589  10.693  22.122  0.00  0.00    +0.000 A 
ATOM     12  C   UNL     1      -0.031  10.164  20.934  0.00  0.00    +0.000 A 
ATOM     13  C   UNL     1       0.871   9.235  21.370  0.00  0.00    +0.000 A 
ATOM     14  O   UNL     1       0.902   9.228  22.725  0.00  0.00    +0.000 OA
ATOM     15  N   UNL     1      -0.006  10.150  23.202  0.00  0.00    +0.000 NA
BRANCH  11  20
ATOM     16  F   UNL     1      -4.672  14.473  22.564  0.00  0.00    +0.000 F 
ATOM     17  C   UNL     1      -3.692  13.562  22.459  0.00  0.00    +0.000 A 
ATOM     18  C   UNL     1      -3.179  12.974  23.604  0.00  0.00    +0.000 A 
ATOM     19  C   UNL     1      -2.161  12.029  23.494  0.00  0.00    +0.000 A 
ATOM     20  C   UNL     1      -1.657  11.676  22.232  0.00  0.00    +0.000 A 
ATOM     21  C   UNL     1      -2.185  12.286  21.085  0.00  0.00    +0.000 A 
ATOM     22  C   UNL     1      -3.203  13.228  21.204  0.00  0.00    +0.000 A 
ENDBRANCH  11  20
ENDBRANCH  10  13
ENDBRANCH   9  10
ENDBRANCH   8   9
ENDBRANCH   7   8
ENDBRANCH   1   7
BRANCH   4  23
ATOM     23  C   UNL     1       5.598   4.801  16.602  0.00  0.00    +0.000 C 
BRANCH  23  24
ATOM     24  C   UNL     1       5.981   4.630  15.124  0.00  0.00    +0.000 A 
ATOM     25  C   UNL     1       5.148   3.943  14.224  0.00  0.00    +0.000 A 
ATOM     26  C   UNL     1       5.559   3.691  12.915  0.00  0.00    +0.000 A 
ATOM     27  C   UNL     1       6.819   4.101  12.491  0.00  0.00    +0.000 A 
ATOM     28  C   UNL     1       7.663   4.777  13.369  0.00  0.00    +0.000 A 
ATOM     29  C   UNL     1       7.245   5.052  14.672  0.00  0.00    +0.000 A 
ENDBRANCH  23  24
BRANCH  23  30
ATOM     30  C   UNL     1       6.539   5.763  17.340  0.00  0.00    +0.000 A 
ATOM     31  C   UNL     1       7.326   5.283  18.405  0.00  0.00    +0.000 A 
ATOM     32  C   UNL     1       8.216   6.124  19.077  0.00  0.00    +0.000 A 
ATOM     33  C   UNL     1       8.343   7.456  18.692  0.00  0.00    +0.000 A 
ATOM     34  C   UNL     1       7.555   7.954  17.658  0.00  0.00    +0.000 A 
ATOM     35  C   UNL     1       6.648   7.121  17.001  0.00  0.00    +0.000 A 
ENDBRANCH  23  30
ENDBRANCH   4  23
TORSDOF 9
ENDMDL
MODEL 4
REMARK VINA RESULT:      -7.7      8.398     11.506
REMARK  Name = 
REMARK  9 active torsions:
REMARK  status: ('A' for Active; 'I' for Inactive)
REMARK    1  A    between atoms: C_5  and  C_6
REMARK    2  A    between atoms: C_8  and  C_9
REMARK    3  A    between atoms: C_9  and  C_10
REMARK    4  A    between atoms: C_10  and  C_11
REMARK    5  A    between atoms: C_11  and  C_12
REMARK    6  A    between atoms: C_12  and  N_13
REMARK    7  A    between atoms: N_16  and  C_17
REMARK    8  A    between atoms: C_17  and  C_18
REMARK    9  A    between atoms: C_17  and  C_24
REMARK                            x       y       z     vdW  Elec       q    Type
REMARK                         _______ _______ _______ _____ _____    ______ ____
ROOT
ATOM      1  N   UNL     1       1.594   7.434  19.228  0.00  0.00    +0.000 NA
ATOM      2  C   UNL     1       2.130   7.739  17.883  0.00  0.00    +0.000 C 
ATOM      3  C   UNL     1       3.674   7.653  17.771  0.00  0.00    +0.000 C 
ATOM      4  N   UNL     1       4.242   6.344  18.196  0.00  0.00    +0.000 NA
ATOM      5  C   UNL     1       3.744   6.086  19.565  0.00  0.00    +0.000 C 
ATOM      6  C   UNL     1       2.201   6.168  19.717  0.00  0.00    +0.000 C 
ENDROOT
BRANCH   1   7
ATOM      7  C   UNL     1       1.872   8.500  20.199  0.00  0.00    +0.000 C 
BRANCH   7   8
ATOM      8  C   UNL     1       1.416   8.200  21.630  0.00  0.00    +0.000 C 
BRANCH   8   9
ATOM      9  C   UNL     1       0.156   8.983  21.989  0.00  0.00    +0.000 C 
BRANCH   9  10
ATOM     10  C   UNL     1       0.283  10.470  21.647  0.00  0.00    +0.000 C 
BRANCH  10  13
ATOM     11  C   UNL     1      -1.830  11.009  18.710  0.00  0.00    +0.000 A 
ATOM     12  C   UNL     1      -0.843  10.193  19.312  0.00  0.00    +0.000 A 
ATOM     13  C   UNL     1      -0.579  10.807  20.504  0.00  0.00    +0.000 A 
ATOM     14  O   UNL     1      -1.311  11.942  20.606  0.00  0.00    +0.000 OA
ATOM     15  N   UNL     1      -2.091  12.080  19.477  0.00  0.00    +0.000 NA
BRANCH  11  20
ATOM     16  F   UNL     1      -4.477  10.135  13.874  0.00  0.00    +0.000 F 
ATOM     17  C   UNL     1      -3.843  10.343  15.039  0.00  0.00    +0.000 A 
ATOM     18  C   UNL     1      -4.380  11.226  15.961  0.00  0.00    +0.000 A 
ATOM     19  C   UNL     1      -3.721  11.444  17.170  0.00  0.00    +0.000 A 
ATOM     20  C   UNL     1      -2.519  10.775  17.449  0.00  0.00    +0.000 A 
ATOM     21  C   UNL     1      -1.987   9.889  16.501  0.00  0.00    +0.000 A 
ATOM     22  C   UNL     1      -2.653   9.677  15.297  0.00  0.00    +0.000 A 
ENDBRANCH  11  20
ENDBRANCH  10  13
ENDBRANCH   9  10
ENDBRANCH   8   9
ENDBRANCH   7   8
ENDBRANCH   1   7
BRANCH   4  23
ATOM     23  C   UNL     1       3.864   5.263  17.233  0.00  0.00    +0.000 C 
BRANCH  23  24
ATOM     24  C   UNL     1       5.016   4.968  16.260  0.00  0.00    +0.000 A 
ATOM     25  C   UNL     1       6.317   5.446  16.496  0.00  0.00    +0.000 A 
ATOM     26  C   UNL     1       7.326   5.275  15.550  0.00  0.00    +0.000 A 
ATOM     27  C   UNL     1       7.047   4.645  14.341  0.00  0.00    +0.000 A 
ATOM     28  C   UNL     1       5.763   4.171  14.084  0.00  0.00    +0.000 A 
ATOM     29  C   UNL     1       4.756   4.319  15.039  0.00  0.00    +0.000 A 
ENDBRANCH  23  24
BRANCH  23  30
ATOM     30  C   UNL     1       3.316   3.987  17.888  0.00  0.00    +0.000 A 
ATOM     31  C   UNL     1       1.949   3.672  17.757  0.00  0.00    +0.000 A 
ATOM     32  C   UNL     1       1.424   2.503  18.313  0.00  0.00    +0.000 A 
ATOM     33  C   UNL     1       2.255   1.625  19.003  0.00  0.00    +0.000 A 
ATOM     34  C   UNL     1       3.604   1.932  19.164  0.00  0.00    +0.000 A 
ATOM     35  C   UNL     1       4.125   3.111  18.629  0.00  0.00    +0.000 A 
ENDBRANCH  23  30
ENDBRANCH   4  23
TORSDOF 9
ENDMDL
MODEL 5
REMARK VINA RESULT:      -7.7      7.161     10.903
REMARK  Name = 
REMARK  9 active torsions:
REMARK  status: ('A' for Active; 'I' for Inactive)
REMARK    1  A    between atoms: C_5  and  C_6
REMARK    2  A    between atoms: C_8  and  C_9
REMARK    3  A    between atoms: C_9  and  C_10
REMARK    4  A    between atoms: C_10  and  C_11
REMARK    5  A    between atoms: C_11  and  C_12
REMARK    6  A    between atoms: C_12  and  N_13
REMARK    7  A    between atoms: N_16  and  C_17
REMARK    8  A    between atoms: C_17  and  C_18
REMARK    9  A    between atoms: C_17  and  C_24
REMARK                            x       y       z     vdW  Elec       q    Type
REMARK                         _______ _______ _______ _____ _____    ______ ____
ROOT
ATOM      1  N   UNL     1       3.806   3.865  19.569  0.00  0.00    +0.000 NA
ATOM      2  C   UNL     1       4.057   2.924  18.455  0.00  0.00    +0.000 C 
ATOM      3  C   UNL     1       3.662   3.463  17.056  0.00  0.00    +0.000 C 
ATOM      4  N   UNL     1       4.301   4.760  16.702  0.00  0.00    +0.000 NA
ATOM      5  C   UNL     1       3.987   5.705  17.797  0.00  0.00    +0.000 C 
ATOM      6  C   UNL     1       4.365   5.197  19.214  0.00  0.00    +0.000 C 
ENDROOT
BRANCH   1   7
ATOM      7  C   UNL     1       2.375   4.015  19.866  0.00  0.00    +0.000 C 
BRANCH   7   8
ATOM      8  C   UNL     1       2.055   4.996  20.998  0.00  0.00    +0.000 C 
BRANCH   8   9
ATOM      9  C   UNL     1       1.348   6.243  20.470  0.00  0.00    +0.000 C 
BRANCH   9  10
ATOM     10  C   UNL     1       1.693   7.491  21.288  0.00  0.00    +0.000 C 
BRANCH  10  13
ATOM     11  C   UNL     1       0.671  10.656  19.763  0.00  0.00    +0.000 A 
ATOM     12  C   UNL     1       0.753   9.901  20.957  0.00  0.00    +0.000 A 
ATOM     13  C   UNL     1       1.281   8.704  20.564  0.00  0.00    +0.000 A 
ATOM     14  O   UNL     1       1.464   8.703  19.221  0.00  0.00    +0.000 OA
ATOM     15  N   UNL     1       1.073   9.924  18.712  0.00  0.00    +0.000 NA
BRANCH  11  20
ATOM     16  F   UNL     1      -0.980  15.958  19.198  0.00  0.00    +0.000 F 
ATOM     17  C   UNL     1      -0.581  14.684  19.336  0.00  0.00    +0.000 A 
ATOM     18  C   UNL     1       0.597  14.268  18.736  0.00  0.00    +0.000 A 
ATOM     19  C   UNL     1       1.011  12.945  18.879  0.00  0.00    +0.000 A 
ATOM     20  C   UNL     1       0.239  12.039  19.622  0.00  0.00    +0.000 A 
ATOM     21  C   UNL     1      -0.953  12.477  20.217  0.00  0.00    +0.000 A 
ATOM     22  C   UNL     1      -1.359  13.801  20.071  0.00  0.00    +0.000 A 
ENDBRANCH  11  20
ENDBRANCH  10  13
ENDBRANCH   9  10
ENDBRANCH   8   9
ENDBRANCH   7   8
ENDBRANCH   1   7
BRANCH   4  23
ATOM     23  C   UNL     1       5.773   4.589  16.494  0.00  0.00    +0.000 C 
BRANCH  23  24
ATOM     24  C   UNL     1       6.110   4.511  14.997  0.00  0.00    +0.000 A 
ATOM     25  C   UNL     1       5.331   3.749  14.108  0.00  0.00    +0.000 A 
ATOM     26  C   UNL     1       5.713   3.590  12.777  0.00  0.00    +0.000 A 
ATOM     27  C   UNL     1       6.892   4.167  12.317  0.00  0.00    +0.000 A 
ATOM     28  C   UNL     1       7.682   4.919  13.183  0.00  0.00    +0.000 A 
ATOM     29  C   UNL     1       7.290   5.102  14.510  0.00  0.00    +0.000 A 
ENDBRANCH  23  24
BRANCH  23  30
ATOM     30  C   UNL     1       6.646   5.612  17.234  0.00  0.00    +0.000 A 
ATOM     31  C   UNL     1       7.459   5.186  18.303  0.00  0.00    +0.000 A 
ATOM     32  C   UNL     1       8.289   6.085  18.977  0.00  0.00    +0.000 A 
ATOM     33  C   UNL     1       8.328   7.422  18.591  0.00  0.00    +0.000 A 
ATOM     34  C   UNL     1       7.513   7.866  17.554  0.00  0.00    +0.000 A 
ATOM     35  C   UNL     1       6.665   6.974  16.894  0.00  0.00    +0.000 A 
ENDBRANCH  23  30
ENDBRANCH   4  23
TORSDOF 9
ENDMDL
MODEL 6
REMARK VINA RESULT:      -7.6      0.610      1.287
REMARK  Name = 
REMARK  9 active torsions:
REMARK  status: ('A' for Active; 'I' for Inactive)
REMARK    1  A    between atoms: C_5  and  C_6
REMARK    2  A    between atoms: C_8  and  C_9
REMARK    3  A    between atoms: C_9  and  C_10
REMARK    4  A    between atoms: C_10  and  C_11
REMARK    5  A    between atoms: C_11  and  C_12
REMARK    6  A    between atoms: C_12  and  N_13
REMARK    7  A    between atoms: N_16  and  C_17
REMARK    8  A    between atoms: C_17  and  C_18
REMARK    9  A    between atoms: C_17  and  C_24
REMARK                            x       y       z     vdW  Elec       q    Type
REMARK                         _______ _______ _______ _____ _____    ______ ____
ROOT
ATOM      1  N   UNL     1      10.081  11.646  18.462  0.00  0.00    +0.000 NA
ATOM      2  C   UNL     1      10.280  12.924  17.743  0.00  0.00    +0.000 C 
ATOM      3  C   UNL     1       9.186  13.990  18.009  0.00  0.00    +0.000 C 
ATOM      4  N   UNL     1       8.987  14.310  19.450  0.00  0.00    +0.000 NA
ATOM      5  C   UNL     1       8.728  13.028  20.142  0.00  0.00    +0.000 C 
ATOM      6  C   UNL     1       9.802  11.934  19.894  0.00  0.00    +0.000 C 
ENDROOT
BRANCH   1   7
ATOM      7  C   UNL     1       8.970  10.859  17.911  0.00  0.00    +0.000 C 
BRANCH   7   8
ATOM      8  C   UNL     1       8.717   9.525  18.619  0.00  0.00    +0.000 C 
BRANCH   8   9
ATOM      9  C   UNL     1       7.551   8.770  17.985  0.00  0.00    +0.000 C 
BRANCH   9  10
ATOM     10  C   UNL     1       8.018   7.554  17.181  0.00  0.00    +0.000 C 
BRANCH  10  13
ATOM     11  C   UNL     1       5.166   5.265  17.092  0.00  0.00    +0.000 A 
ATOM     12  C   UNL     1       5.944   6.140  17.886  0.00  0.00    +0.000 A 
ATOM     13  C   UNL     1       6.922   6.583  17.041  0.00  0.00    +0.000 A 
ATOM     14  O   UNL     1       6.786   5.987  15.831  0.00  0.00    +0.000 OA
ATOM     15  N   UNL     1       5.690   5.150  15.861  0.00  0.00    +0.000 NA
BRANCH  11  20
ATOM     16  F   UNL     1       0.514   2.573  18.599  0.00  0.00    +0.000 F 
ATOM     17  C   UNL     1       1.632   3.220  18.234  0.00  0.00    +0.000 A 
ATOM     18  C   UNL     1       2.733   2.494  17.806  0.00  0.00    +0.000 A 
ATOM     19  C   UNL     1       3.894   3.166  17.428  0.00  0.00    +0.000 A 
ATOM     20  C   UNL     1       3.949   4.567  17.482  0.00  0.00    +0.000 A 
ATOM     21  C   UNL     1       2.827   5.284  17.923  0.00  0.00    +0.000 A 
ATOM     22  C   UNL     1       1.671   4.605  18.298  0.00  0.00    +0.000 A 
ENDBRANCH  11  20
ENDBRANCH  10  13
ENDBRANCH   9  10
ENDBRANCH   8   9
ENDBRANCH   7   8
ENDBRANCH   1   7
BRANCH   4  23
ATOM     23  C   UNL     1      10.175  15.033  20.003  0.00  0.00    +0.000 C 
BRANCH  23  24
ATOM     24  C   UNL     1      10.514  16.264  19.149  0.00  0.00    +0.000 A 
ATOM     25  C   UNL     1       9.570  17.280  18.917  0.00  0.00    +0.000 A 
ATOM     26  C   UNL     1       9.847  18.332  18.046  0.00  0.00    +0.000 A 
ATOM     27  C   UNL     1      11.064  18.375  17.372  0.00  0.00    +0.000 A 
ATOM     28  C   UNL     1      12.011  17.375  17.582  0.00  0.00    +0.000 A 
ATOM     29  C   UNL     1      11.745  16.333  18.472  0.00  0.00    +0.000 A 
ENDBRANCH  23  24
BRANCH  23  30
ATOM     30  C   UNL     1      10.079  15.370  21.497  0.00  0.00    +0.000 A 
ATOM     31  C   UNL     1      11.074  16.170  22.094  0.00  0.00    +0.000 A 
ATOM     32  C   UNL     1      11.000  16.522  23.443  0.00  0.00    +0.000 A 
ATOM     33  C   UNL     1       9.928  16.089  24.219  0.00  0.00    +0.000 A 
ATOM     34  C   UNL     1       8.949  15.277  23.654  0.00  0.00    +0.000 A 
ATOM     35  C   UNL     1       9.033  14.905  22.310  0.00  0.00    +0.000 A 
ENDBRANCH  23  30
ENDBRANCH   4  23
TORSDOF 9
ENDMDL
MODEL 7
REMARK VINA RESULT:      -7.6      3.767     11.315
REMARK  Name = 
REMARK  9 active torsions:
REMARK  status: ('A' for Active; 'I' for Inactive)
REMARK    1  A    between atoms: C_5  and  C_6
REMARK    2  A    between atoms: C_8  and  C_9
REMARK    3  A    between atoms: C_9  and  C_10
REMARK    4  A    between atoms: C_10  and  C_11
REMARK    5  A    between atoms: C_11  and  C_12
REMARK    6  A    between atoms: C_12  and  N_13
REMARK    7  A    between atoms: N_16  and  C_17
REMARK    8  A    between atoms: C_17  and  C_18
REMARK    9  A    between atoms: C_17  and  C_24
REMARK                            x       y       z     vdW  Elec       q    Type
REMARK                         _______ _______ _______ _____ _____    ______ ____
ROOT
ATOM      1  N   UNL     1       5.545   5.121  16.368  0.00  0.00    +0.000 NA
ATOM      2  C   UNL     1       4.948   4.365  17.492  0.00  0.00    +0.000 C 
ATOM      3  C   UNL     1       4.934   5.123  18.843  0.00  0.00    +0.000 C 
ATOM      4  N   UNL     1       4.263   6.452  18.788  0.00  0.00    +0.000 NA
ATOM      5  C   UNL     1       4.914   7.215  17.700  0.00  0.00    +0.000 C 
ATOM      6  C   UNL     1       4.951   6.484  16.332  0.00  0.00    +0.000 C 
ENDROOT
BRANCH   1   7
ATOM      7  C   UNL     1       7.004   5.242  16.485  0.00  0.00    +0.000 C 
BRANCH   7   8
ATOM      8  C   UNL     1       7.549   5.075  17.907  0.00  0.00    +0.000 C 
BRANCH   8   9
ATOM      9  C   UNL     1       8.076   6.397  18.460  0.00  0.00    +0.000 C 
BRANCH   9  10
ATOM     10  C   UNL     1       7.838   7.562  17.496  0.00  0.00    +0.000 C 
BRANCH  10  13
ATOM     11  C   UNL     1       9.030  10.811  18.682  0.00  0.00    +0.000 A 
ATOM     12  C   UNL     1       8.396  10.106  17.633  0.00  0.00    +0.000 A 
ATOM     13  C   UNL     1       8.392   8.806  18.053  0.00  0.00    +0.000 A 
ATOM     14  O   UNL     1       9.021   8.710  19.249  0.00  0.00    +0.000 OA
ATOM     15  N   UNL     1       9.433   9.965  19.645  0.00  0.00    +0.000 NA
BRANCH  11  20
ATOM     16  F   UNL     1       9.845  16.319  19.064  0.00  0.00    +0.000 F 
ATOM     17  C   UNL     1       9.647  14.995  18.975  0.00  0.00    +0.000 A 
ATOM     18  C   UNL     1      10.245  14.151  19.898  0.00  0.00    +0.000 A 
ATOM     19  C   UNL     1      10.040  12.775  19.804  0.00  0.00    +0.000 A 
ATOM     20  C   UNL     1       9.236  12.249  18.781  0.00  0.00    +0.000 A 
ATOM     21  C   UNL     1       8.645  13.118  17.853  0.00  0.00    +0.000 A 
ATOM     22  C   UNL     1       8.854  14.491  17.954  0.00  0.00    +0.000 A 
ENDBRANCH  11  20
ENDBRANCH  10  13
ENDBRANCH   9  10
ENDBRANCH   8   9
ENDBRANCH   7   8
ENDBRANCH   1   7
BRANCH   4  23
ATOM     23  C   UNL     1       2.790   6.295  18.578  0.00  0.00    +0.000 C 
BRANCH  23  24
ATOM     24  C   UNL     1       2.261   5.050  19.308  0.00  0.00    +0.000 A 
ATOM     25  C   UNL     1       1.446   4.108  18.656  0.00  0.00    +0.000 A 
ATOM     26  C   UNL     1       0.875   3.047  19.357  0.00  0.00    +0.000 A 
ATOM     27  C   UNL     1       1.090   2.922  20.727  0.00  0.00    +0.000 A 
ATOM     28  C   UNL     1       1.889   3.849  21.393  0.00  0.00    +0.000 A 
ATOM     29  C   UNL     1       2.481   4.899  20.689  0.00  0.00    +0.000 A 
ENDBRANCH  23  24
BRANCH  23  30
ATOM     30  C   UNL     1       1.962   7.548  18.893  0.00  0.00    +0.000 A 
ATOM     31  C   UNL     1       1.557   8.395  17.843  0.00  0.00    +0.000 A 
ATOM     32  C   UNL     1       0.777   9.527  18.090  0.00  0.00    +0.000 A 
ATOM     33  C   UNL     1       0.380   9.828  19.390  0.00  0.00    +0.000 A 
ATOM     34  C   UNL     1       0.791   9.017  20.445  0.00  0.00    +0.000 A 
ATOM     35  C   UNL     1       1.591   7.899  20.201  0.00  0.00    +0.000 A 
ENDBRANCH  23  30
ENDBRANCH   4  23
TORSDOF 9
ENDMDL
MODEL 8
REMARK VINA RESULT:      -7.5      6.727     11.790
REMARK  Name = 
REMARK  9 active torsions:
REMARK  status: ('A' for Active; 'I' for Inactive)
REMARK    1  A    between atoms: C_5  and  C_6
REMARK    2  A    between atoms: C_8  and  C_9
REMARK    3  A    between atoms: C_9  and  C_10
REMARK    4  A    between atoms: C_10  and  C_11
REMARK    5  A    between atoms: C_11  and  C_12
REMARK    6  A    between atoms: C_12  and  N_13
REMARK    7  A    between atoms: N_16  and  C_17
REMARK    8  A    between atoms: C_17  and  C_18
REMARK    9  A    between atoms: C_17  and  C_24
REMARK                            x       y       z     vdW  Elec       q    Type
REMARK                         _______ _______ _______ _____ _____    ______ ____
ROOT
ATOM      1  N   UNL     1       2.898  13.611  19.036  0.00  0.00    +0.000 NA
ATOM      2  C   UNL     1       2.413  13.048  20.316  0.00  0.00    +0.000 C 
ATOM      3  C   UNL     1       0.962  13.448  20.686  0.00  0.00    +0.000 C 
ATOM      4  N   UNL     1      -0.045  13.121  19.640  0.00  0.00    +0.000 NA
ATOM      5  C   UNL     1       0.425  13.745  18.383  0.00  0.00    +0.000 C 
ATOM      6  C   UNL     1       1.878  13.369  17.982  0.00  0.00    +0.000 C 
ENDROOT
BRANCH   1   7
ATOM      7  C   UNL     1       3.160  15.054  19.121  0.00  0.00    +0.000 C 
BRANCH   7   8
ATOM      8  C   UNL     1       3.999  15.483  20.329  0.00  0.00    +0.000 C 
BRANCH   8   9
ATOM      9  C   UNL     1       4.488  16.922  20.185  0.00  0.00    +0.000 C 
BRANCH   9  10
ATOM     10  C   UNL     1       5.592  17.054  19.131  0.00  0.00    +0.000 C 
BRANCH  10  13
ATOM     11  C   UNL     1       8.420  14.799  19.678  0.00  0.00    +0.000 A 
ATOM     12  C   UNL     1       7.328  15.131  18.841  0.00  0.00    +0.000 A 
ATOM     13  C   UNL     1       6.727  16.183  19.472  0.00  0.00    +0.000 A 
ATOM     14  O   UNL     1       7.371  16.448  20.634  0.00  0.00    +0.000 OA
ATOM     15  N   UNL     1       8.430  15.575  20.774  0.00  0.00    +0.000 NA
BRANCH  11  20
ATOM     16  F   UNL     1      12.330  10.927  18.745  0.00  0.00    +0.000 F 
ATOM     17  C   UNL     1      11.388  11.856  18.968  0.00  0.00    +0.000 A 
ATOM     18  C   UNL     1      10.696  12.400  17.898  0.00  0.00    +0.000 A 
ATOM     19  C   UNL     1       9.718  13.365  18.130  0.00  0.00    +0.000 A 
ATOM     20  C   UNL     1       9.438  13.786  19.439  0.00  0.00    +0.000 A 
ATOM     21  C   UNL     1      10.152  13.229  20.509  0.00  0.00    +0.000 A 
ATOM     22  C   UNL     1      11.127  12.264  20.269  0.00  0.00    +0.000 A 
ENDBRANCH  11  20
ENDBRANCH  10  13
ENDBRANCH   9  10
ENDBRANCH   8   9
ENDBRANCH   7   8
ENDBRANCH   1   7
BRANCH   4  23
ATOM     23  C   UNL     1      -0.222  11.641  19.516  0.00  0.00    +0.000 C 
BRANCH  23  24
ATOM     24  C   UNL     1      -0.185  10.967  20.897  0.00  0.00    +0.000 A 
ATOM     25  C   UNL     1       0.586   9.815  21.131  0.00  0.00    +0.000 A 
ATOM     26  C   UNL     1       0.521   9.144  22.351  0.00  0.00    +0.000 A 
ATOM     27  C   UNL     1      -0.336   9.598  23.350  0.00  0.00    +0.000 A 
ATOM     28  C   UNL     1      -1.114  10.733  23.135  0.00  0.00    +0.000 A 
ATOM     29  C   UNL     1      -1.033  11.421  21.924  0.00  0.00    +0.000 A 
ENDBRANCH  23  24
BRANCH  23  30
ATOM     30  C   UNL     1      -1.443  11.210  18.691  0.00  0.00    +0.000 A 
ATOM     31  C   UNL     1      -2.662  11.898  18.845  0.00  0.00    +0.000 A 
ATOM     32  C   UNL     1      -3.784  11.552  18.087  0.00  0.00    +0.000 A 
ATOM     33  C   UNL     1      -3.704  10.520  17.157  0.00  0.00    +0.000 A 
ATOM     34  C   UNL     1      -2.515   9.811  17.009  0.00  0.00    +0.000 A 
ATOM     35  C   UNL     1      -1.400  10.141  17.783  0.00  0.00    +0.000 A 
ENDBRANCH  23  30
ENDBRANCH   4  23
TORSDOF 9
ENDMDL
MODEL 9
REMARK VINA RESULT:      -7.5      6.831     11.681
REMARK  Name = 
REMARK  9 active torsions:
REMARK  status: ('A' for Active; 'I' for Inactive)
REMARK    1  A    between atoms: C_5  and  C_6
REMARK    2  A    between atoms: C_8  and  C_9
REMARK    3  A    between atoms: C_9  and  C_10
REMARK    4  A    between atoms: C_10  and  C_11
REMARK    5  A    between atoms: C_11  and  C_12
REMARK    6  A    between atoms: C_12  and  N_13
REMARK    7  A    between atoms: N_16  and  C_17
REMARK    8  A    between atoms: C_17  and  C_18
REMARK    9  A    between atoms: C_17  and  C_24
REMARK                            x       y       z     vdW  Elec       q    Type
REMARK                         _______ _______ _______ _____ _____    ______ ____
ROOT
ATOM      1  N   UNL     1       1.120  15.158  20.085  0.00  0.00    +0.000 NA
ATOM      2  C   UNL     1       0.066  14.849  19.093  0.00  0.00    +0.000 C 
ATOM      3  C   UNL     1       0.332  13.578  18.247  0.00  0.00    +0.000 C 
ATOM      4  N   UNL     1       0.566  12.348  19.053  0.00  0.00    +0.000 NA
ATOM      5  C   UNL     1       1.664  12.657  19.996  0.00  0.00    +0.000 C 
ATOM      6  C   UNL     1       1.434  13.927  20.859  0.00  0.00    +0.000 C 
ENDROOT
BRANCH   1   7
ATOM      7  C   UNL     1       2.352  15.653  19.459  0.00  0.00    +0.000 C 
BRANCH   7   8
ATOM      8  C   UNL     1       2.779  17.055  19.903  0.00  0.00    +0.000 C 
BRANCH   8   9
ATOM      9  C   UNL     1       4.291  17.237  19.798  0.00  0.00    +0.000 C 
BRANCH   9  10
ATOM     10  C   UNL     1       5.057  16.174  20.592  0.00  0.00    +0.000 C 
BRANCH  10  13
ATOM     11  C   UNL     1       7.958  14.765  18.865  0.00  0.00    +0.000 A 
ATOM     12  C   UNL     1       7.147  14.722  20.024  0.00  0.00    +0.000 A 
ATOM     13  C   UNL     1       6.226  15.712  19.828  0.00  0.00    +0.000 A 
ATOM     14  O   UNL     1       6.481  16.350  18.660  0.00  0.00    +0.000 OA
ATOM     15  N   UNL     1       7.574  15.765  18.055  0.00  0.00    +0.000 NA
BRANCH  11  20
ATOM     16  F   UNL     1      12.157  11.335  17.540  0.00  0.00    +0.000 F 
ATOM     17  C   UNL     1      11.147  12.158  17.862  0.00  0.00    +0.000 A 
ATOM     18  C   UNL     1       9.860  11.654  17.964  0.00  0.00    +0.000 A 
ATOM     19  C   UNL     1       8.811  12.510  18.297  0.00  0.00    +0.000 A 
ATOM     20  C   UNL     1       9.057  13.873  18.524  0.00  0.00    +0.000 A 
ATOM     21  C   UNL     1      10.364  14.365  18.410  0.00  0.00    +0.000 A 
ATOM     22  C   UNL     1      11.407  13.504  18.079  0.00  0.00    +0.000 A 
ENDBRANCH  11  20
ENDBRANCH  10  13
ENDBRANCH   9  10
ENDBRANCH   8   9
ENDBRANCH   7   8
ENDBRANCH   1   7
BRANCH   4  23
ATOM     23  C   UNL     1      -0.687  11.922  19.749  0.00  0.00    +0.000 C 
BRANCH  23  24
ATOM     24  C   UNL     1      -1.733  11.423  18.740  0.00  0.00    +0.000 A 
ATOM     25  C   UNL     1      -3.069  11.859  18.791  0.00  0.00    +0.000 A 
ATOM     26  C   UNL     1      -4.035  11.311  17.948  0.00  0.00    +0.000 A 
ATOM     27  C   UNL     1      -3.687  10.302  17.055  0.00  0.00    +0.000 A 
ATOM     28  C   UNL     1      -2.370   9.851  16.993  0.00  0.00    +0.000 A 
ATOM     29  C   UNL     1      -1.397  10.414  17.820  0.00  0.00    +0.000 A 
ENDBRANCH  23  24
BRANCH  23  30
ATOM     30  C   UNL     1      -0.473  10.931  20.902  0.00  0.00    +0.000 A 
ATOM     31  C   UNL     1      -0.967  11.241  22.184  0.00  0.00    +0.000 A 
ATOM     32  C   UNL     1      -0.817  10.348  23.248  0.00  0.00    +0.000 A 
ATOM     33  C   UNL     1      -0.179   9.127  23.048  0.00  0.00    +0.000 A 
ATOM     34  C   UNL     1       0.338   8.814  21.794  0.00  0.00    +0.000 A 
ATOM     35  C   UNL     1       0.210   9.716  20.735  0.00  0.00    +0.000 A 
ENDBRANCH  23  30
ENDBRANCH   4  23
TORSDOF 9
ENDMDL
