MODEL 1
REMARK VINA RESULT:      -7.0      0.000      0.000
REMARK  Name = 
REMARK  2 active torsions:
REMARK  status: ('A' for Active; 'I' for Inactive)
REMARK    1  A    between atoms: C_4  and  N_5
REMARK    2  A    between atoms: N_14  and  C_15
REMARK                            x       y       z     vdW  Elec       q    Type
REMARK                         _______ _______ _______ _____ _____    ______ ____
ROOT
ATOM      1  O   UNL     1       3.934   7.446  16.362  0.00  0.00    +0.000 OA
ATOM      2  C   UNL     1       4.300   6.622  17.190  0.00  0.00    +0.000 C 
ATOM      3  C   UNL     1       3.799   6.661  18.604  0.00  0.00    +0.000 C 
ATOM      4  C   UNL     1       4.378   5.415  19.253  0.00  0.00    +0.000 C 
ATOM      5  C   UNL     1       5.351   4.880  18.213  0.00  0.00    +0.000 C 
ATOM      6  O   UNL     1       6.183   4.016  18.458  0.00  0.00    +0.000 OA
ATOM      7  N   UNL     1       5.156   5.555  17.027  0.00  0.00    +0.000 N 
ENDROOT
BRANCH   7   8
ATOM      8  C   UNL     1       5.787   5.187  15.799  0.00  0.00    +0.000 A 
ATOM      9  C   UNL     1       7.063   5.683  15.444  0.00  0.00    +0.000 A 
ATOM     10  C   UNL     1       7.680   5.338  14.232  0.00  0.00    +0.000 A 
ATOM     11  C   UNL     1       6.996   4.508  13.376  0.00  0.00    +0.000 A 
ATOM     12  C   UNL     1       5.754   4.024  13.694  0.00  0.00    +0.000 A 
ATOM     13  C   UNL     1       5.133   4.335  14.887  0.00  0.00    +0.000 A 
ATOM     14  O   UNL     1       5.233   3.241  12.711  0.00  0.00    +0.000 OA
ATOM     15  C   UNL     1       6.281   3.316  11.723  0.00  0.00    +0.000 C 
ATOM     16  O   UNL     1       7.424   4.083  12.159  0.00  0.00    +0.000 OA
ENDBRANCH   7   8
BRANCH   4  17
ATOM     17  N   UNL     1       3.364   4.410  19.674  0.00  0.00    +0.000 NA
ATOM     18  C   UNL     1       2.528   4.824  20.805  0.00  0.00    +0.000 C 
ATOM     19  C   UNL     1       2.169   3.632  21.698  0.00  0.00    +0.000 C 
ATOM     20  C   UNL     1       1.035   2.751  21.190  0.00  0.00    +0.000 C 
ATOM     21  C   UNL     1       1.255   2.166  19.801  0.00  0.00    +0.000 C 
ATOM     22  C   UNL     1       1.267   3.239  18.721  0.00  0.00    +0.000 C 
ATOM     23  C   UNL     1       2.632   3.896  18.504  0.00  0.00    +0.000 C 
ENDBRANCH   4  17
TORSDOF 2
ENDMDL
MODEL 2
REMARK VINA RESULT:      -6.9      4.670      7.094
REMARK  Name = 
REMARK  2 active torsions:
REMARK  status: ('A' for Active; 'I' for Inactive)
REMARK    1  A    between atoms: C_4  and  N_5
REMARK    2  A    between atoms: N_14  and  C_15
REMARK                            x       y       z     vdW  Elec       q    Type
REMARK                         _______ _______ _______ _____ _____    ______ ____
ROOT
ATOM      1  O   UNL     1       3.124   7.912  17.066  0.00  0.00    +0.000 OA
ATOM      2  C   UNL     1       2.489   8.420  17.982  0.00  0.00    +0.000 C 
ATOM      3  C   UNL     1       2.021   9.844  17.911  0.00  0.00    +0.000 C 
ATOM      4  C   UNL     1       1.176  10.035  19.160  0.00  0.00    +0.000 C 
ATOM      5  C   UNL     1       1.416   8.764  19.961  0.00  0.00    +0.000 C 
ATOM      6  O   UNL     1       1.090   8.643  21.135  0.00  0.00    +0.000 OA
ATOM      7  N   UNL     1       2.076   7.851  19.166  0.00  0.00    +0.000 N 
ENDROOT
BRANCH   7   8
ATOM      8  C   UNL     1       2.307   6.494  19.551  0.00  0.00    +0.000 A 
ATOM      9  C   UNL     1       1.404   5.798  20.388  0.00  0.00    +0.000 A 
ATOM     10  C   UNL     1       1.634   4.471  20.782  0.00  0.00    +0.000 A 
ATOM     11  C   UNL     1       2.785   3.861  20.345  0.00  0.00    +0.000 A 
ATOM     12  C   UNL     1       3.679   4.520  19.542  0.00  0.00    +0.000 A 
ATOM     13  C   UNL     1       3.467   5.819  19.127  0.00  0.00    +0.000 A 
ATOM     14  O   UNL     1       4.764   3.757  19.236  0.00  0.00    +0.000 OA
ATOM     15  C   UNL     1       4.461   2.552  19.967  0.00  0.00    +0.000 C 
ATOM     16  O   UNL     1       3.183   2.595  20.637  0.00  0.00    +0.000 OA
ENDBRANCH   7   8
BRANCH   4  17
ATOM     17  N   UNL     1      -0.265  10.295  18.896  0.00  0.00    +0.000 NA
ATOM     18  C   UNL     1      -0.655  11.706  18.975  0.00  0.00    +0.000 C 
ATOM     19  C   UNL     1      -2.073  11.862  19.532  0.00  0.00    +0.000 C 
ATOM     20  C   UNL     1      -3.199  11.612  18.538  0.00  0.00    +0.000 C 
ATOM     21  C   UNL     1      -3.173  10.242  17.874  0.00  0.00    +0.000 C 
ATOM     22  C   UNL     1      -1.965  10.068  16.963  0.00  0.00    +0.000 C 
ATOM     23  C   UNL     1      -0.702   9.587  17.680  0.00  0.00    +0.000 C 
ENDBRANCH   4  17
TORSDOF 2
ENDMDL
MODEL 3
REMARK VINA RESULT:      -6.9      2.891      7.114
REMARK  Name = 
REMARK  2 active torsions:
REMARK  status: ('A' for Active; 'I' for Inactive)
REMARK    1  A    between atoms: C_4  and  N_5
REMARK    2  A    between atoms: N_14  and  C_15
REMARK                            x       y       z     vdW  Elec       q    Type
REMARK                         _______ _______ _______ _____ _____    ______ ____
ROOT
ATOM      1  O   UNL     1       0.996   4.435  17.504  0.00  0.00    +0.000 OA
ATOM      2  C   UNL     1       2.181   4.430  17.814  0.00  0.00    +0.000 C 
ATOM      3  C   UNL     1       3.105   3.343  17.350  0.00  0.00    +0.000 C 
ATOM      4  C   UNL     1       4.481   3.773  17.831  0.00  0.00    +0.000 C 
ATOM      5  C   UNL     1       4.196   4.967  18.730  0.00  0.00    +0.000 C 
ATOM      6  O   UNL     1       5.029   5.447  19.488  0.00  0.00    +0.000 OA
ATOM      7  N   UNL     1       2.880   5.346  18.569  0.00  0.00    +0.000 N 
ENDROOT
BRANCH   7   8
ATOM      8  C   UNL     1       2.328   6.535  19.138  0.00  0.00    +0.000 A 
ATOM      9  C   UNL     1       1.809   6.554  20.454  0.00  0.00    +0.000 A 
ATOM     10  C   UNL     1       1.251   7.715  21.011  0.00  0.00    +0.000 A 
ATOM     11  C   UNL     1       1.203   8.845  20.230  0.00  0.00    +0.000 A 
ATOM     12  C   UNL     1       1.691   8.846  18.950  0.00  0.00    +0.000 A 
ATOM     13  C   UNL     1       2.260   7.722  18.384  0.00  0.00    +0.000 A 
ATOM     14  O   UNL     1       1.532  10.049  18.333  0.00  0.00    +0.000 OA
ATOM     15  C   UNL     1       0.858  10.794  19.367  0.00  0.00    +0.000 C 
ATOM     16  O   UNL     1       0.687  10.048  20.591  0.00  0.00    +0.000 OA
ENDBRANCH   7   8
BRANCH   4  17
ATOM     17  N   UNL     1       5.447   4.080  16.742  0.00  0.00    +0.000 NA
ATOM     18  C   UNL     1       4.832   4.391  15.449  0.00  0.00    +0.000 C 
ATOM     19  C   UNL     1       5.688   3.881  14.287  0.00  0.00    +0.000 C 
ATOM     20  C   UNL     1       6.882   4.753  13.921  0.00  0.00    +0.000 C 
ATOM     21  C   UNL     1       7.858   5.011  15.062  0.00  0.00    +0.000 C 
ATOM     22  C   UNL     1       7.238   5.853  16.169  0.00  0.00    +0.000 C 
ATOM     23  C   UNL     1       6.457   5.047  17.208  0.00  0.00    +0.000 C 
ENDBRANCH   4  17
TORSDOF 2
ENDMDL
MODEL 4
REMARK VINA RESULT:      -6.8      2.007      6.996
REMARK  Name = 
REMARK  2 active torsions:
REMARK  status: ('A' for Active; 'I' for Inactive)
REMARK    1  A    between atoms: C_4  and  N_5
REMARK    2  A    between atoms: N_14  and  C_15
REMARK                            x       y       z     vdW  Elec       q    Type
REMARK                         _______ _______ _______ _____ _____    ______ ____
ROOT
ATOM      1  O   UNL     1       7.010   4.597  19.071  0.00  0.00    +0.000 OA
ATOM      2  C   UNL     1       6.566   5.218  18.113  0.00  0.00    +0.000 C 
ATOM      3  C   UNL     1       7.463   5.690  17.006  0.00  0.00    +0.000 C 
ATOM      4  C   UNL     1       6.520   6.285  15.973  0.00  0.00    +0.000 C 
ATOM      5  C   UNL     1       5.173   6.307  16.679  0.00  0.00    +0.000 C 
ATOM      6  O   UNL     1       4.206   6.929  16.256  0.00  0.00    +0.000 OA
ATOM      7  N   UNL     1       5.264   5.574  17.843  0.00  0.00    +0.000 N 
ENDROOT
BRANCH   7   8
ATOM      8  C   UNL     1       4.137   5.250  18.660  0.00  0.00    +0.000 A 
ATOM      9  C   UNL     1       3.341   6.257  19.257  0.00  0.00    +0.000 A 
ATOM     10  C   UNL     1       2.243   5.944  20.072  0.00  0.00    +0.000 A 
ATOM     11  C   UNL     1       1.967   4.617  20.298  0.00  0.00    +0.000 A 
ATOM     12  C   UNL     1       2.730   3.626  19.739  0.00  0.00    +0.000 A 
ATOM     13  C   UNL     1       3.804   3.907  18.919  0.00  0.00    +0.000 A 
ATOM     14  O   UNL     1       2.312   2.382  20.098  0.00  0.00    +0.000 OA
ATOM     15  C   UNL     1       1.215   2.709  20.975  0.00  0.00    +0.000 C 
ATOM     16  O   UNL     1       0.962   4.127  21.070  0.00  0.00    +0.000 OA
ENDBRANCH   7   8
BRANCH   4  17
ATOM     17  N   UNL     1       6.486   5.557  14.675  0.00  0.00    +0.000 NA
ATOM     18  C   UNL     1       7.804   5.255  14.111  0.00  0.00    +0.000 C 
ATOM     19  C   UNL     1       7.785   5.322  12.581  0.00  0.00    +0.000 C 
ATOM     20  C   UNL     1       7.210   4.099  11.879  0.00  0.00    +0.000 C 
ATOM     21  C   UNL     1       5.789   3.736  12.288  0.00  0.00    +0.000 C 
ATOM     22  C   UNL     1       5.707   3.278  13.738  0.00  0.00    +0.000 C 
ATOM     23  C   UNL     1       5.556   4.417  14.748  0.00  0.00    +0.000 C 
ENDBRANCH   4  17
TORSDOF 2
ENDMDL
MODEL 5
REMARK VINA RESULT:      -6.7      4.722      6.760
REMARK  Name = 
REMARK  2 active torsions:
REMARK  status: ('A' for Active; 'I' for Inactive)
REMARK    1  A    between atoms: C_4  and  N_5
REMARK    2  A    between atoms: N_14  and  C_15
REMARK                            x       y       z     vdW  Elec       q    Type
REMARK                         _______ _______ _______ _____ _____    ______ ____
ROOT
ATOM      1  O   UNL     1       3.174   8.205  16.886  0.00  0.00    +0.000 OA
ATOM      2  C   UNL     1       2.496   8.554  17.844  0.00  0.00    +0.000 C 
ATOM      3  C   UNL     1       2.032   9.973  17.996  0.00  0.00    +0.000 C 
ATOM      4  C   UNL     1       1.127   9.955  19.216  0.00  0.00    +0.000 C 
ATOM      5  C   UNL     1       1.327   8.564  19.798  0.00  0.00    +0.000 C 
ATOM      6  O   UNL     1       0.945   8.245  20.917  0.00  0.00    +0.000 OA
ATOM      7  N   UNL     1       2.025   7.794  18.891  0.00  0.00    +0.000 N 
ENDROOT
BRANCH   7   8
ATOM      8  C   UNL     1       2.237   6.390  19.049  0.00  0.00    +0.000 A 
ATOM      9  C   UNL     1       2.705   5.843  20.267  0.00  0.00    +0.000 A 
ATOM     10  C   UNL     1       2.930   4.467  20.421  0.00  0.00    +0.000 A 
ATOM     11  C   UNL     1       2.699   3.652  19.338  0.00  0.00    +0.000 A 
ATOM     12  C   UNL     1       2.255   4.161  18.147  0.00  0.00    +0.000 A 
ATOM     13  C   UNL     1       2.010   5.508  17.974  0.00  0.00    +0.000 A 
ATOM     14  O   UNL     1       2.109   3.201  17.193  0.00  0.00    +0.000 OA
ATOM     15  C   UNL     1       2.544   2.033  17.918  0.00  0.00    +0.000 C 
ATOM     16  O   UNL     1       2.878   2.306  19.296  0.00  0.00    +0.000 OA
ENDBRANCH   7   8
BRANCH   4  17
ATOM     17  N   UNL     1      -0.300  10.269  18.932  0.00  0.00    +0.000 NA
ATOM     18  C   UNL     1      -0.650  11.686  19.060  0.00  0.00    +0.000 C 
ATOM     19  C   UNL     1      -2.076  11.862  19.593  0.00  0.00    +0.000 C 
ATOM     20  C   UNL     1      -3.185  11.686  18.565  0.00  0.00    +0.000 C 
ATOM     21  C   UNL     1      -3.183  10.344  17.846  0.00  0.00    +0.000 C 
ATOM     22  C   UNL     1      -1.961  10.170  16.955  0.00  0.00    +0.000 C 
ATOM     23  C   UNL     1      -0.729   9.624  17.679  0.00  0.00    +0.000 C 
ENDBRANCH   4  17
TORSDOF 2
ENDMDL
MODEL 6
REMARK VINA RESULT:      -6.7      4.836      7.279
REMARK  Name = 
REMARK  2 active torsions:
REMARK  status: ('A' for Active; 'I' for Inactive)
REMARK    1  A    between atoms: C_4  and  N_5
REMARK    2  A    between atoms: N_14  and  C_15
REMARK                            x       y       z     vdW  Elec       q    Type
REMARK                         _______ _______ _______ _____ _____    ______ ____
ROOT
ATOM      1  O   UNL     1       3.140   8.118  17.004  0.00  0.00    +0.000 OA
ATOM      2  C   UNL     1       2.483   8.594  17.921  0.00  0.00    +0.000 C 
ATOM      3  C   UNL     1       1.944   9.993  17.851  0.00  0.00    +0.000 C 
ATOM      4  C   UNL     1       1.094  10.142  19.101  0.00  0.00    +0.000 C 
ATOM      5  C   UNL     1       1.399   8.886  19.902  0.00  0.00    +0.000 C 
ATOM      6  O   UNL     1       1.083   8.748  21.078  0.00  0.00    +0.000 OA
ATOM      7  N   UNL     1       2.103   8.006  19.107  0.00  0.00    +0.000 N 
ENDROOT
BRANCH   7   8
ATOM      8  C   UNL     1       2.403   6.663  19.492  0.00  0.00    +0.000 A 
ATOM      9  C   UNL     1       3.674   6.090  19.251  0.00  0.00    +0.000 A 
ATOM     10  C   UNL     1       3.968   4.767  19.613  0.00  0.00    +0.000 A 
ATOM     11  C   UNL     1       2.971   4.023  20.199  0.00  0.00    +0.000 A 
ATOM     12  C   UNL     1       1.731   4.555  20.432  0.00  0.00    +0.000 A 
ATOM     13  C   UNL     1       1.421   5.859  20.101  0.00  0.00    +0.000 A 
ATOM     14  O   UNL     1       0.877   3.657  20.996  0.00  0.00    +0.000 OA
ATOM     15  C   UNL     1       1.720   2.489  21.061  0.00  0.00    +0.000 C 
ATOM     16  O   UNL     1       3.066   2.728  20.597  0.00  0.00    +0.000 OA
ENDBRANCH   7   8
BRANCH   4  17
ATOM     17  N   UNL     1      -0.360  10.329  18.842  0.00  0.00    +0.000 NA
ATOM     18  C   UNL     1      -0.818  11.720  18.907  0.00  0.00    +0.000 C 
ATOM     19  C   UNL     1      -2.239  11.813  19.469  0.00  0.00    +0.000 C 
ATOM     20  C   UNL     1      -3.356  11.498  18.482  0.00  0.00    +0.000 C 
ATOM     21  C   UNL     1      -3.265  10.124  17.833  0.00  0.00    +0.000 C 
ATOM     22  C   UNL     1      -2.055   9.998  16.919  0.00  0.00    +0.000 C 
ATOM     23  C   UNL     1      -0.767   9.587  17.635  0.00  0.00    +0.000 C 
ENDBRANCH   4  17
TORSDOF 2
ENDMDL
MODEL 7
REMARK VINA RESULT:      -6.6      5.553      8.218
REMARK  Name = 
REMARK  2 active torsions:
REMARK  status: ('A' for Active; 'I' for Inactive)
REMARK    1  A    between atoms: C_4  and  N_5
REMARK    2  A    between atoms: N_14  and  C_15
REMARK                            x       y       z     vdW  Elec       q    Type
REMARK                         _______ _______ _______ _____ _____    ______ ____
ROOT
ATOM      1  O   UNL     1      -0.580   9.537  21.739  0.00  0.00    +0.000 OA
ATOM      2  C   UNL     1       0.225   9.218  20.872  0.00  0.00    +0.000 C 
ATOM      3  C   UNL     1       1.464   8.441  21.207  0.00  0.00    +0.000 C 
ATOM      4  C   UNL     1       2.107   8.141  19.863  0.00  0.00    +0.000 C 
ATOM      5  C   UNL     1       1.295   8.968  18.878  0.00  0.00    +0.000 C 
ATOM      6  O   UNL     1       1.650   9.173  17.724  0.00  0.00    +0.000 OA
ATOM      7  N   UNL     1       0.173   9.453  19.517  0.00  0.00    +0.000 N 
ENDROOT
BRANCH   7   8
ATOM      8  C   UNL     1      -0.889  10.128  18.839  0.00  0.00    +0.000 A 
ATOM      9  C   UNL     1      -1.477  11.302  19.368  0.00  0.00    +0.000 A 
ATOM     10  C   UNL     1      -2.530  11.959  18.715  0.00  0.00    +0.000 A 
ATOM     11  C   UNL     1      -2.997  11.417  17.541  0.00  0.00    +0.000 A 
ATOM     12  C   UNL     1      -2.449  10.277  17.016  0.00  0.00    +0.000 A 
ATOM     13  C   UNL     1      -1.401   9.621  17.630  0.00  0.00    +0.000 A 
ATOM     14  O   UNL     1      -3.062   9.886  15.865  0.00  0.00    +0.000 OA
ATOM     15  C   UNL     1      -4.080  10.900  15.746  0.00  0.00    +0.000 C 
ATOM     16  O   UNL     1      -4.015  11.902  16.783  0.00  0.00    +0.000 OA
ENDBRANCH   7   8
BRANCH   4  17
ATOM     17  N   UNL     1       2.155   6.696  19.510  0.00  0.00    +0.000 NA
ATOM     18  C   UNL     1       3.380   6.275  18.825  0.00  0.00    +0.000 C 
ATOM     19  C   UNL     1       3.095   5.175  17.797  0.00  0.00    +0.000 C 
ATOM     20  C   UNL     1       2.938   3.772  18.366  0.00  0.00    +0.000 C 
ATOM     21  C   UNL     1       1.853   3.629  19.425  0.00  0.00    +0.000 C 
ATOM     22  C   UNL     1       2.184   4.400  20.696  0.00  0.00    +0.000 C 
ATOM     23  C   UNL     1       1.764   5.871  20.666  0.00  0.00    +0.000 C 
ENDBRANCH   4  17
TORSDOF 2
ENDMDL
MODEL 8
REMARK VINA RESULT:      -6.6      4.324      6.540
REMARK  Name = 
REMARK  2 active torsions:
REMARK  status: ('A' for Active; 'I' for Inactive)
REMARK    1  A    between atoms: C_4  and  N_5
REMARK    2  A    between atoms: N_14  and  C_15
REMARK                            x       y       z     vdW  Elec       q    Type
REMARK                         _______ _______ _______ _____ _____    ______ ____
ROOT
ATOM      1  O   UNL     1       3.477   7.888  16.690  0.00  0.00    +0.000 OA
ATOM      2  C   UNL     1       2.843   8.192  17.692  0.00  0.00    +0.000 C 
ATOM      3  C   UNL     1       2.437   9.613  17.957  0.00  0.00    +0.000 C 
ATOM      4  C   UNL     1       1.572   9.541  19.205  0.00  0.00    +0.000 C 
ATOM      5  C   UNL     1       1.740   8.106  19.682  0.00  0.00    +0.000 C 
ATOM      6  O   UNL     1       1.383   7.724  20.790  0.00  0.00    +0.000 OA
ATOM      7  N   UNL     1       2.380   7.378  18.702  0.00  0.00    +0.000 N 
ENDROOT
BRANCH   7   8
ATOM      8  C   UNL     1       2.545   5.960  18.755  0.00  0.00    +0.000 A 
ATOM      9  C   UNL     1       1.526   5.078  18.325  0.00  0.00    +0.000 A 
ATOM     10  C   UNL     1       1.677   3.685  18.391  0.00  0.00    +0.000 A 
ATOM     11  C   UNL     1       2.849   3.189  18.909  0.00  0.00    +0.000 A 
ATOM     12  C   UNL     1       3.846   4.024  19.341  0.00  0.00    +0.000 A 
ATOM     13  C   UNL     1       3.729   5.398  19.271  0.00  0.00    +0.000 A 
ATOM     14  O   UNL     1       4.915   3.345  19.840  0.00  0.00    +0.000 OA
ATOM     15  C   UNL     1       4.458   1.985  19.699  0.00  0.00    +0.000 C 
ATOM     16  O   UNL     1       3.165   1.878  19.066  0.00  0.00    +0.000 OA
ENDBRANCH   7   8
BRANCH   4  17
ATOM     17  N   UNL     1       0.149   9.922  18.993  0.00  0.00    +0.000 NA
ATOM     18  C   UNL     1      -0.143  11.340  19.219  0.00  0.00    +0.000 C 
ATOM     19  C   UNL     1      -1.541  11.534  19.813  0.00  0.00    +0.000 C 
ATOM     20  C   UNL     1      -2.692  11.462  18.818  0.00  0.00    +0.000 C 
ATOM     21  C   UNL     1      -2.765  10.167  18.019  0.00  0.00    +0.000 C 
ATOM     22  C   UNL     1      -1.582  10.006  17.075  0.00  0.00    +0.000 C 
ATOM     23  C   UNL     1      -0.347   9.372  17.719  0.00  0.00    +0.000 C 
ENDBRANCH   4  17
TORSDOF 2
ENDMDL
MODEL 9
REMARK VINA RESULT:      -6.6      0.396      1.282
REMARK  Name = 
REMARK  2 active torsions:
REMARK  status: ('A' for Active; 'I' for Inactive)
REMARK    1  A    between atoms: C_4  and  N_5
REMARK    2  A    between atoms: N_14  and  C_15
REMARK                            x       y       z     vdW  Elec       q    Type
REMARK                         _______ _______ _______ _____ _____    ______ ____
ROOT
ATOM      1  O   UNL     1       4.025   7.597  16.300  0.00  0.00    +0.000 OA
ATOM      2  C   UNL     1       4.270   6.740  17.140  0.00  0.00    +0.000 C 
ATOM      3  C   UNL     1       3.711   6.829  18.530  0.00  0.00    +0.000 C 
ATOM      4  C   UNL     1       4.133   5.531  19.199  0.00  0.00    +0.000 C 
ATOM      5  C   UNL     1       5.094   4.902  18.202  0.00  0.00    +0.000 C 
ATOM      6  O   UNL     1       5.824   3.959  18.480  0.00  0.00    +0.000 OA
ATOM      7  N   UNL     1       5.022   5.594  17.011  0.00  0.00    +0.000 N 
ENDROOT
BRANCH   7   8
ATOM      8  C   UNL     1       5.668   5.166  15.811  0.00  0.00    +0.000 A 
ATOM      9  C   UNL     1       7.009   5.517  15.526  0.00  0.00    +0.000 A 
ATOM     10  C   UNL     1       7.643   5.112  14.342  0.00  0.00    +0.000 A 
ATOM     11  C   UNL     1       6.914   4.371  13.443  0.00  0.00    +0.000 A 
ATOM     12  C   UNL     1       5.612   4.028  13.693  0.00  0.00    +0.000 A 
ATOM     13  C   UNL     1       4.970   4.399  14.858  0.00  0.00    +0.000 A 
ATOM     14  O   UNL     1       5.056   3.315  12.676  0.00  0.00    +0.000 OA
ATOM     15  C   UNL     1       6.154   3.279  11.742  0.00  0.00    +0.000 C 
ATOM     16  O   UNL     1       7.352   3.909  12.243  0.00  0.00    +0.000 OA
ENDBRANCH   7   8
BRANCH   4  17
ATOM     17  N   UNL     1       3.006   4.632  19.569  0.00  0.00    +0.000 NA
ATOM     18  C   UNL     1       2.627   3.669  18.531  0.00  0.00    +0.000 C 
ATOM     19  C   UNL     1       1.118   3.408  18.536  0.00  0.00    +0.000 C 
ATOM     20  C   UNL     1       0.624   2.442  19.604  0.00  0.00    +0.000 C 
ATOM     21  C   UNL     1       0.973   2.837  21.033  0.00  0.00    +0.000 C 
ATOM     22  C   UNL     1       2.471   2.784  21.295  0.00  0.00    +0.000 C 
ATOM     23  C   UNL     1       3.221   4.061  20.910  0.00  0.00    +0.000 C 
ENDBRANCH   4  17
TORSDOF 2
ENDMDL
