MODEL 1
REMARK VINA RESULT:      -8.3      0.000      0.000
REMARK  Name = 
REMARK  7 active torsions:
REMARK  status: ('A' for Active; 'I' for Inactive)
REMARK    1  A    between atoms: C_1  and  N_2
REMARK    2  A    between atoms: N_2  and  C_3
REMARK    3  A    between atoms: N_2  and  C_4
REMARK    4  A    between atoms: C_7  and  C_8
REMARK    5  A    between atoms: N_9  and  C_10
REMARK    6  A    between atoms: C_13  and  O_14
REMARK    7  A    between atoms: O_14  and  C_15
REMARK                            x       y       z     vdW  Elec       q    Type
REMARK                         _______ _______ _______ _____ _____    ______ ____
ROOT
ATOM      1  C   UNL     1       7.847   7.857  17.927  0.00  0.00    +0.000 A 
ATOM      2  C   UNL     1       8.229   6.974  18.935  0.00  0.00    +0.000 A 
ATOM      3  C   UNL     1       7.658   5.695  19.009  0.00  0.00    +0.000 A 
ATOM      4  C   UNL     1       6.679   5.300  18.088  0.00  0.00    +0.000 A 
ATOM      5  C   UNL     1       6.241   6.215  17.126  0.00  0.00    +0.000 A 
ATOM      6 CL   UNL     1       4.883   5.954  16.087  0.00  0.00    +0.000 Cl
ATOM      7  C   UNL     1       6.877   7.449  17.006  0.00  0.00    +0.000 A 
ENDROOT
BRANCH   1   9
ATOM      8  C   UNL     1       8.949   9.620  18.928  0.00  0.00    +0.000 C 
ATOM      9  N   UNL     1       8.465   9.115  17.836  0.00  0.00    +0.000 NA
BRANCH   8  13
ATOM     10  C   UNL     1      10.606  13.586  19.082  0.00  0.00    +0.000 A 
ATOM     11  C   UNL     1      10.923  12.621  20.056  0.00  0.00    +0.000 A 
ATOM     12  C   UNL     1      10.393  11.328  20.024  0.00  0.00    +0.000 A 
ATOM     13  C   UNL     1       9.534  10.965  18.994  0.00  0.00    +0.000 A 
ATOM     14  C   UNL     1       9.237  11.871  17.981  0.00  0.00    +0.000 A 
ATOM     15  C   UNL     1       9.774  13.160  18.028  0.00  0.00    +0.000 A 
BRANCH  10  17
ATOM     16  C   UNL     1      10.285  15.950  19.713  0.00  0.00    +0.000 C 
ATOM     17  N   UNL     1      11.107  14.891  19.134  0.00  0.00    +0.000 N 
ATOM     18  C   UNL     1      12.076  15.300  18.119  0.00  0.00    +0.000 C 
ENDBRANCH  10  17
ENDBRANCH   8  13
ENDBRANCH   1   9
BRANCH   4  19
ATOM     19  O   UNL     1       6.178   4.033  18.275  0.00  0.00    +0.000 OA
BRANCH  19  20
ATOM     20  C   UNL     1       4.848   3.855  18.585  0.00  0.00    +0.000 A 
ATOM     21  C   UNL     1       4.152   4.540  19.589  0.00  0.00    +0.000 A 
ATOM     22  C   UNL     1       2.828   4.198  19.880  0.00  0.00    +0.000 A 
ATOM     23  C   UNL     1       2.181   3.226  19.122  0.00  0.00    +0.000 A 
ATOM     24 CL   UNL     1       0.550   2.809  19.480  0.00  0.00    +0.000 Cl
ATOM     25  C   UNL     1       2.844   2.589  18.075  0.00  0.00    +0.000 A 
ATOM     26  C   UNL     1       4.179   2.902  17.810  0.00  0.00    +0.000 A 
ENDBRANCH  19  20
ENDBRANCH   4  19
TORSDOF 5
ENDMDL
MODEL 2
REMARK VINA RESULT:      -8.3      0.558      1.104
REMARK  Name = 
REMARK  7 active torsions:
REMARK  status: ('A' for Active; 'I' for Inactive)
REMARK    1  A    between atoms: C_1  and  N_2
REMARK    2  A    between atoms: N_2  and  C_3
REMARK    3  A    between atoms: N_2  and  C_4
REMARK    4  A    between atoms: C_7  and  C_8
REMARK    5  A    between atoms: N_9  and  C_10
REMARK    6  A    between atoms: C_13  and  O_14
REMARK    7  A    between atoms: O_14  and  C_15
REMARK                            x       y       z     vdW  Elec       q    Type
REMARK                         _______ _______ _______ _____ _____    ______ ____
ROOT
ATOM      1  C   UNL     1       7.743   7.803  17.878  0.00  0.00    +0.000 A 
ATOM      2  C   UNL     1       8.188   6.971  18.903  0.00  0.00    +0.000 A 
ATOM      3  C   UNL     1       7.619   5.701  19.082  0.00  0.00    +0.000 A 
ATOM      4  C   UNL     1       6.580   5.265  18.249  0.00  0.00    +0.000 A 
ATOM      5  C   UNL     1       6.082   6.131  17.272  0.00  0.00    +0.000 A 
ATOM      6 CL   UNL     1       4.658   5.826  16.340  0.00  0.00    +0.000 Cl
ATOM      7  C   UNL     1       6.714   7.353  17.046  0.00  0.00    +0.000 A 
ENDROOT
BRANCH   1   9
ATOM      8  C   UNL     1       8.823   9.656  18.728  0.00  0.00    +0.000 C 
ATOM      9  N   UNL     1       8.358   9.050  17.680  0.00  0.00    +0.000 NA
BRANCH   8  13
ATOM     10  C   UNL     1      10.583  13.579  18.607  0.00  0.00    +0.000 A 
ATOM     11  C   UNL     1       9.456  13.257  17.829  0.00  0.00    +0.000 A 
ATOM     12  C   UNL     1       8.871  11.987  17.854  0.00  0.00    +0.000 A 
ATOM     13  C   UNL     1       9.402  11.005  18.679  0.00  0.00    +0.000 A 
ATOM     14  C   UNL     1      10.483  11.295  19.505  0.00  0.00    +0.000 A 
ATOM     15  C   UNL     1      11.056  12.570  19.468  0.00  0.00    +0.000 A 
BRANCH  10  17
ATOM     16  C   UNL     1      12.122  15.226  19.610  0.00  0.00    +0.000 C 
ATOM     17  N   UNL     1      11.191  14.838  18.555  0.00  0.00    +0.000 N 
ATOM     18  C   UNL     1      10.475  15.922  17.885  0.00  0.00    +0.000 C 
ENDBRANCH  10  17
ENDBRANCH   8  13
ENDBRANCH   1   9
BRANCH   4  19
ATOM     19  O   UNL     1       6.089   4.013  18.535  0.00  0.00    +0.000 OA
BRANCH  19  20
ATOM     20  C   UNL     1       4.734   3.825  18.705  0.00  0.00    +0.000 A 
ATOM     21  C   UNL     1       3.936   4.489  19.643  0.00  0.00    +0.000 A 
ATOM     22  C   UNL     1       2.591   4.138  19.791  0.00  0.00    +0.000 A 
ATOM     23  C   UNL     1       2.030   3.176  18.954  0.00  0.00    +0.000 A 
ATOM     24 CL   UNL     1       0.374   2.747  19.137  0.00  0.00    +0.000 Cl
ATOM     25  C   UNL     1       2.800   2.560  17.970  0.00  0.00    +0.000 A 
ATOM     26  C   UNL     1       4.154   2.883  17.849  0.00  0.00    +0.000 A 
ENDBRANCH  19  20
ENDBRANCH   4  19
TORSDOF 5
ENDMDL
MODEL 3
REMARK VINA RESULT:      -8.2      0.542      1.078
REMARK  Name = 
REMARK  7 active torsions:
REMARK  status: ('A' for Active; 'I' for Inactive)
REMARK    1  A    between atoms: C_1  and  N_2
REMARK    2  A    between atoms: N_2  and  C_3
REMARK    3  A    between atoms: N_2  and  C_4
REMARK    4  A    between atoms: C_7  and  C_8
REMARK    5  A    between atoms: N_9  and  C_10
REMARK    6  A    between atoms: C_13  and  O_14
REMARK    7  A    between atoms: O_14  and  C_15
REMARK                            x       y       z     vdW  Elec       q    Type
REMARK                         _______ _______ _______ _____ _____    ______ ____
ROOT
ATOM      1  C   UNL     1       7.764   7.866  17.798  0.00  0.00    +0.000 A 
ATOM      2  C   UNL     1       8.210   7.045  18.831  0.00  0.00    +0.000 A 
ATOM      3  C   UNL     1       7.668   5.762  19.000  0.00  0.00    +0.000 A 
ATOM      4  C   UNL     1       6.654   5.302  18.150  0.00  0.00    +0.000 A 
ATOM      5  C   UNL     1       6.153   6.156  17.164  0.00  0.00    +0.000 A 
ATOM      6 CL   UNL     1       4.753   5.818  16.207  0.00  0.00    +0.000 Cl
ATOM      7  C   UNL     1       6.760   7.393  16.948  0.00  0.00    +0.000 A 
ENDROOT
BRANCH   1   9
ATOM      8  C   UNL     1       8.888   9.694  18.647  0.00  0.00    +0.000 C 
ATOM      9  N   UNL     1       8.352   9.128  17.610  0.00  0.00    +0.000 NA
BRANCH   8  13
ATOM     10  C   UNL     1      10.470  13.692  18.532  0.00  0.00    +0.000 A 
ATOM     11  C   UNL     1      11.093  12.677  19.283  0.00  0.00    +0.000 A 
ATOM     12  C   UNL     1      10.593  11.373  19.334  0.00  0.00    +0.000 A 
ATOM     13  C   UNL     1       9.451  11.049  18.614  0.00  0.00    +0.000 A 
ATOM     14  C   UNL     1       8.833  12.007  17.816  0.00  0.00    +0.000 A 
ATOM     15  C   UNL     1       9.345  13.307  17.776  0.00  0.00    +0.000 A 
BRANCH  10  17
ATOM     16  C   UNL     1      10.484  15.953  19.520  0.00  0.00    +0.000 C 
ATOM     17  N   UNL     1      10.949  15.006  18.510  0.00  0.00    +0.000 N 
ATOM     18  C   UNL     1      11.358  15.570  17.226  0.00  0.00    +0.000 C 
ENDBRANCH  10  17
ENDBRANCH   8  13
ENDBRANCH   1   9
BRANCH   4  19
ATOM     19  O   UNL     1       6.187   4.039  18.428  0.00  0.00    +0.000 OA
BRANCH  19  20
ATOM     20  C   UNL     1       4.878   3.856  18.815  0.00  0.00    +0.000 A 
ATOM     21  C   UNL     1       4.035   2.835  18.362  0.00  0.00    +0.000 A 
ATOM     22  C   UNL     1       2.691   2.814  18.748  0.00  0.00    +0.000 A 
ATOM     23  C   UNL     1       2.212   3.769  19.641  0.00  0.00    +0.000 A 
ATOM     24 CL   UNL     1       0.558   3.740  20.116  0.00  0.00    +0.000 Cl
ATOM     25  C   UNL     1       3.061   4.748  20.152  0.00  0.00    +0.000 A 
ATOM     26  C   UNL     1       4.394   4.793  19.734  0.00  0.00    +0.000 A 
ENDBRANCH  19  20
ENDBRANCH   4  19
TORSDOF 5
ENDMDL
MODEL 4
REMARK VINA RESULT:      -8.1      0.948      1.157
REMARK  Name = 
REMARK  7 active torsions:
REMARK  status: ('A' for Active; 'I' for Inactive)
REMARK    1  A    between atoms: C_1  and  N_2
REMARK    2  A    between atoms: N_2  and  C_3
REMARK    3  A    between atoms: N_2  and  C_4
REMARK    4  A    between atoms: C_7  and  C_8
REMARK    5  A    between atoms: N_9  and  C_10
REMARK    6  A    between atoms: C_13  and  O_14
REMARK    7  A    between atoms: O_14  and  C_15
REMARK                            x       y       z     vdW  Elec       q    Type
REMARK                         _______ _______ _______ _____ _____    ______ ____
ROOT
ATOM      1  C   UNL     1       8.014   7.471  18.356  0.00  0.00    +0.000 A 
ATOM      2  C   UNL     1       8.106   6.271  19.058  0.00  0.00    +0.000 A 
ATOM      3  C   UNL     1       7.331   5.166  18.676  0.00  0.00    +0.000 A 
ATOM      4  C   UNL     1       6.437   5.264  17.602  0.00  0.00    +0.000 A 
ATOM      5  C   UNL     1       6.288   6.490  16.949  0.00  0.00    +0.000 A 
ATOM      6 CL   UNL     1       5.062   6.823  15.776  0.00  0.00    +0.000 Cl
ATOM      7  C   UNL     1       7.127   7.554  17.279  0.00  0.00    +0.000 A 
ENDROOT
BRANCH   1   9
ATOM      8  C   UNL     1       8.487   9.729  18.298  0.00  0.00    +0.000 C 
ATOM      9  N   UNL     1       8.834   8.552  18.719  0.00  0.00    +0.000 NA
BRANCH   8  13
ATOM     10  C   UNL     1      10.863  13.240  19.026  0.00  0.00    +0.000 A 
ATOM     11  C   UNL     1      11.067  12.440  17.886  0.00  0.00    +0.000 A 
ATOM     12  C   UNL     1      10.306  11.294  17.634  0.00  0.00    +0.000 A 
ATOM     13  C   UNL     1       9.303  10.928  18.522  0.00  0.00    +0.000 A 
ATOM     14  C   UNL     1       9.032  11.720  19.634  0.00  0.00    +0.000 A 
ATOM     15  C   UNL     1       9.802  12.862  19.872  0.00  0.00    +0.000 A 
BRANCH  10  17
ATOM     16  C   UNL     1      11.312  15.212  20.439  0.00  0.00    +0.000 C 
ATOM     17  N   UNL     1      11.648  14.365  19.298  0.00  0.00    +0.000 N 
ATOM     18  C   UNL     1      12.332  15.015  18.182  0.00  0.00    +0.000 C 
ENDBRANCH  10  17
ENDBRANCH   8  13
ENDBRANCH   1   9
BRANCH   4  19
ATOM     19  O   UNL     1       5.716   4.123  17.336  0.00  0.00    +0.000 OA
BRANCH  19  20
ATOM     20  C   UNL     1       4.550   3.866  18.025  0.00  0.00    +0.000 A 
ATOM     21  C   UNL     1       4.472   3.297  19.301  0.00  0.00    +0.000 A 
ATOM     22  C   UNL     1       3.226   2.989  19.854  0.00  0.00    +0.000 A 
ATOM     23  C   UNL     1       2.061   3.315  19.164  0.00  0.00    +0.000 A 
ATOM     24 CL   UNL     1       0.529   2.937  19.849  0.00  0.00    +0.000 Cl
ATOM     25  C   UNL     1       2.129   3.947  17.924  0.00  0.00    +0.000 A 
ATOM     26  C   UNL     1       3.375   4.218  17.354  0.00  0.00    +0.000 A 
ENDBRANCH  19  20
ENDBRANCH   4  19
TORSDOF 5
ENDMDL
MODEL 5
REMARK VINA RESULT:      -8.1      0.459      1.547
REMARK  Name = 
REMARK  7 active torsions:
REMARK  status: ('A' for Active; 'I' for Inactive)
REMARK    1  A    between atoms: C_1  and  N_2
REMARK    2  A    between atoms: N_2  and  C_3
REMARK    3  A    between atoms: N_2  and  C_4
REMARK    4  A    between atoms: C_7  and  C_8
REMARK    5  A    between atoms: N_9  and  C_10
REMARK    6  A    between atoms: C_13  and  O_14
REMARK    7  A    between atoms: O_14  and  C_15
REMARK                            x       y       z     vdW  Elec       q    Type
REMARK                         _______ _______ _______ _____ _____    ______ ____
ROOT
ATOM      1  C   UNL     1       7.750   7.852  17.885  0.00  0.00    +0.000 A 
ATOM      2  C   UNL     1       8.180   7.056  18.944  0.00  0.00    +0.000 A 
ATOM      3  C   UNL     1       7.655   5.766  19.119  0.00  0.00    +0.000 A 
ATOM      4  C   UNL     1       6.675   5.274  18.247  0.00  0.00    +0.000 A 
ATOM      5  C   UNL     1       6.189   6.103  17.232  0.00  0.00    +0.000 A 
ATOM      6 CL   UNL     1       4.824   5.724  16.241  0.00  0.00    +0.000 Cl
ATOM      7  C   UNL     1       6.780   7.347  17.014  0.00  0.00    +0.000 A 
ENDROOT
BRANCH   1   9
ATOM      8  C   UNL     1       8.888   9.678  18.719  0.00  0.00    +0.000 C 
ATOM      9  N   UNL     1       8.322   9.120  17.693  0.00  0.00    +0.000 NA
BRANCH   8  13
ATOM     10  C   UNL     1      10.566  13.637  18.640  0.00  0.00    +0.000 A 
ATOM     11  C   UNL     1       9.436  13.304  17.870  0.00  0.00    +0.000 A 
ATOM     12  C   UNL     1       8.878  12.023  17.881  0.00  0.00    +0.000 A 
ATOM     13  C   UNL     1       9.438  11.038  18.684  0.00  0.00    +0.000 A 
ATOM     14  C   UNL     1      10.523  11.338  19.502  0.00  0.00    +0.000 A 
ATOM     15  C   UNL     1      11.070  12.624  19.479  0.00  0.00    +0.000 A 
BRANCH  10  17
ATOM     16  C   UNL     1      12.284  15.149  17.715  0.00  0.00    +0.000 C 
ATOM     17  N   UNL     1      11.147  14.909  18.601  0.00  0.00    +0.000 N 
ATOM     18  C   UNL     1      11.068  15.741  19.799  0.00  0.00    +0.000 C 
ENDBRANCH  10  17
ENDBRANCH   8  13
ENDBRANCH   1   9
BRANCH   4  19
ATOM     19  O   UNL     1       6.222   4.008  18.533  0.00  0.00    +0.000 OA
BRANCH  19  20
ATOM     20  C   UNL     1       4.901   3.806  18.868  0.00  0.00    +0.000 A 
ATOM     21  C   UNL     1       4.083   2.791  18.359  0.00  0.00    +0.000 A 
ATOM     22  C   UNL     1       2.727   2.751  18.697  0.00  0.00    +0.000 A 
ATOM     23  C   UNL     1       2.208   3.679  19.596  0.00  0.00    +0.000 A 
ATOM     24 CL   UNL     1       0.539   3.626  20.012  0.00  0.00    +0.000 Cl
ATOM     25  C   UNL     1       3.032   4.650  20.162  0.00  0.00    +0.000 A 
ATOM     26  C   UNL     1       4.378   4.715  19.794  0.00  0.00    +0.000 A 
ENDBRANCH  19  20
ENDBRANCH   4  19
TORSDOF 5
ENDMDL
MODEL 6
REMARK VINA RESULT:      -8.0      0.958      1.260
REMARK  Name = 
REMARK  7 active torsions:
REMARK  status: ('A' for Active; 'I' for Inactive)
REMARK    1  A    between atoms: C_1  and  N_2
REMARK    2  A    between atoms: N_2  and  C_3
REMARK    3  A    between atoms: N_2  and  C_4
REMARK    4  A    between atoms: C_7  and  C_8
REMARK    5  A    between atoms: N_9  and  C_10
REMARK    6  A    between atoms: C_13  and  O_14
REMARK    7  A    between atoms: O_14  and  C_15
REMARK                            x       y       z     vdW  Elec       q    Type
REMARK                         _______ _______ _______ _____ _____    ______ ____
ROOT
ATOM      1  C   UNL     1       7.744   7.111  18.072  0.00  0.00    +0.000 A 
ATOM      2  C   UNL     1       8.044   5.789  18.397  0.00  0.00    +0.000 A 
ATOM      3  C   UNL     1       7.206   4.748  17.969  0.00  0.00    +0.000 A 
ATOM      4  C   UNL     1       6.047   5.026  17.234  0.00  0.00    +0.000 A 
ATOM      5  C   UNL     1       5.707   6.357  16.976  0.00  0.00    +0.000 A 
ATOM      6 CL   UNL     1       4.198   6.859  16.297  0.00  0.00    +0.000 Cl
ATOM      7  C   UNL     1       6.591   7.376  17.327  0.00  0.00    +0.000 A 
ENDROOT
BRANCH   1   9
ATOM      8  C   UNL     1       8.238   9.358  18.250  0.00  0.00    +0.000 C 
ATOM      9  N   UNL     1       8.620   8.137  18.463  0.00  0.00    +0.000 NA
BRANCH   8  13
ATOM     10  C   UNL     1      10.692  12.807  19.009  0.00  0.00    +0.000 A 
ATOM     11  C   UNL     1      10.796  11.645  19.797  0.00  0.00    +0.000 A 
ATOM     12  C   UNL     1      10.006  10.515  19.566  0.00  0.00    +0.000 A 
ATOM     13  C   UNL     1       9.093  10.520  18.521  0.00  0.00    +0.000 A 
ATOM     14  C   UNL     1       8.995  11.627  17.684  0.00  0.00    +0.000 A 
ATOM     15  C   UNL     1       9.792  12.750  17.928  0.00  0.00    +0.000 A 
BRANCH  10  17
ATOM     16  C   UNL     1      10.997  14.911  20.262  0.00  0.00    +0.000 C 
ATOM     17  N   UNL     1      11.457  13.951  19.263  0.00  0.00    +0.000 N 
ATOM     18  C   UNL     1      12.284  14.481  18.181  0.00  0.00    +0.000 C 
ENDBRANCH  10  17
ENDBRANCH   8  13
ENDBRANCH   1   9
BRANCH   4  19
ATOM     19  O   UNL     1       5.295   3.927  16.891  0.00  0.00    +0.000 OA
BRANCH  19  20
ATOM     20  C   UNL     1       4.157   3.619  17.604  0.00  0.00    +0.000 A 
ATOM     21  C   UNL     1       2.854   3.632  17.093  0.00  0.00    +0.000 A 
ATOM     22  C   UNL     1       1.768   3.401  17.942  0.00  0.00    +0.000 A 
ATOM     23  C   UNL     1       1.989   3.088  19.281  0.00  0.00    +0.000 A 
ATOM     24 CL   UNL     1       0.650   2.801  20.324  0.00  0.00    +0.000 Cl
ATOM     25  C   UNL     1       3.286   3.003  19.781  0.00  0.00    +0.000 A 
ATOM     26  C   UNL     1       4.370   3.273  18.942  0.00  0.00    +0.000 A 
ENDBRANCH  19  20
ENDBRANCH   4  19
TORSDOF 5
ENDMDL
MODEL 7
REMARK VINA RESULT:      -7.9      1.363      1.746
REMARK  Name = 
REMARK  7 active torsions:
REMARK  status: ('A' for Active; 'I' for Inactive)
REMARK    1  A    between atoms: C_1  and  N_2
REMARK    2  A    between atoms: N_2  and  C_3
REMARK    3  A    between atoms: N_2  and  C_4
REMARK    4  A    between atoms: C_7  and  C_8
REMARK    5  A    between atoms: N_9  and  C_10
REMARK    6  A    between atoms: C_13  and  O_14
REMARK    7  A    between atoms: O_14  and  C_15
REMARK                            x       y       z     vdW  Elec       q    Type
REMARK                         _______ _______ _______ _____ _____    ______ ____
ROOT
ATOM      1  C   UNL     1       6.876   7.191  17.300  0.00  0.00    +0.000 A 
ATOM      2  C   UNL     1       7.516   5.954  17.274  0.00  0.00    +0.000 A 
ATOM      3  C   UNL     1       6.766   4.769  17.226  0.00  0.00    +0.000 A 
ATOM      4  C   UNL     1       5.366   4.815  17.229  0.00  0.00    +0.000 A 
ATOM      5  C   UNL     1       4.726   6.053  17.334  0.00  0.00    +0.000 A 
ATOM      6 CL   UNL     1       3.026   6.248  17.590  0.00  0.00    +0.000 Cl
ATOM      7  C   UNL     1       5.478   7.226  17.291  0.00  0.00    +0.000 A 
ENDROOT
BRANCH   1   9
ATOM      8  C   UNL     1       8.122   8.768  18.433  0.00  0.00    +0.000 C 
ATOM      9  N   UNL     1       7.641   8.369  17.297  0.00  0.00    +0.000 NA
BRANCH   8  13
ATOM     10  C   UNL     1      10.221  12.499  18.851  0.00  0.00    +0.000 A 
ATOM     11  C   UNL     1      10.397  11.452  19.774  0.00  0.00    +0.000 A 
ATOM     12  C   UNL     1       9.722  10.233  19.656  0.00  0.00    +0.000 A 
ATOM     13  C   UNL     1       8.856  10.030  18.589  0.00  0.00    +0.000 A 
ATOM     14  C   UNL     1       8.694  11.018  17.624  0.00  0.00    +0.000 A 
ATOM     15  C   UNL     1       9.375  12.232  17.757  0.00  0.00    +0.000 A 
BRANCH  10  17
ATOM     16  C   UNL     1      10.494  14.838  18.112  0.00  0.00    +0.000 C 
ATOM     17  N   UNL     1      10.867  13.732  18.989  0.00  0.00    +0.000 N 
ATOM     18  C   UNL     1      12.237  13.739  19.500  0.00  0.00    +0.000 C 
ENDBRANCH  10  17
ENDBRANCH   8  13
ENDBRANCH   1   9
BRANCH   4  19
ATOM     19  O   UNL     1       4.742   3.590  17.201  0.00  0.00    +0.000 OA
BRANCH  19  20
ATOM     20  C   UNL     1       3.857   3.243  18.199  0.00  0.00    +0.000 A 
ATOM     21  C   UNL     1       2.488   3.015  18.024  0.00  0.00    +0.000 A 
ATOM     22  C   UNL     1       1.672   2.770  19.132  0.00  0.00    +0.000 A 
ATOM     23  C   UNL     1       2.236   2.683  20.402  0.00  0.00    +0.000 A 
ATOM     24 CL   UNL     1       1.229   2.379  21.765  0.00  0.00    +0.000 Cl
ATOM     25  C   UNL     1       3.609   2.839  20.578  0.00  0.00    +0.000 A 
ATOM     26  C   UNL     1       4.418   3.124  19.475  0.00  0.00    +0.000 A 
ENDBRANCH  19  20
ENDBRANCH   4  19
TORSDOF 5
ENDMDL
MODEL 8
REMARK VINA RESULT:      -7.9      6.289      8.476
REMARK  Name = 
REMARK  7 active torsions:
REMARK  status: ('A' for Active; 'I' for Inactive)
REMARK    1  A    between atoms: C_1  and  N_2
REMARK    2  A    between atoms: N_2  and  C_3
REMARK    3  A    between atoms: N_2  and  C_4
REMARK    4  A    between atoms: C_7  and  C_8
REMARK    5  A    between atoms: N_9  and  C_10
REMARK    6  A    between atoms: C_13  and  O_14
REMARK    7  A    between atoms: O_14  and  C_15
REMARK                            x       y       z     vdW  Elec       q    Type
REMARK                         _______ _______ _______ _____ _____    ______ ____
ROOT
ATOM      1  C   UNL     1       1.926   6.355  20.465  0.00  0.00    +0.000 A 
ATOM      2  C   UNL     1       2.870   6.765  19.526  0.00  0.00    +0.000 A 
ATOM      3  C   UNL     1       3.763   5.837  18.968  0.00  0.00    +0.000 A 
ATOM      4  C   UNL     1       3.734   4.495  19.368  0.00  0.00    +0.000 A 
ATOM      5  C   UNL     1       2.839   4.102  20.368  0.00  0.00    +0.000 A 
ATOM      6 CL   UNL     1       2.854   2.548  21.127  0.00  0.00    +0.000 Cl
ATOM      7  C   UNL     1       1.898   5.011  20.849  0.00  0.00    +0.000 A 
ENDROOT
BRANCH   1   9
ATOM      8  C   UNL     1       1.374   8.528  21.008  0.00  0.00    +0.000 C 
ATOM      9  N   UNL     1       1.006   7.285  20.975  0.00  0.00    +0.000 NA
BRANCH   8  13
ATOM     10  C   UNL     1      -1.038  11.670  22.687  0.00  0.00    +0.000 A 
ATOM     11  C   UNL     1      -1.010  10.382  23.256  0.00  0.00    +0.000 A 
ATOM     12  C   UNL     1      -0.234   9.348  22.723  0.00  0.00    +0.000 A 
ATOM     13  C   UNL     1       0.551   9.588  21.604  0.00  0.00    +0.000 A 
ATOM     14  C   UNL     1       0.595  10.860  21.041  0.00  0.00    +0.000 A 
ATOM     15  C   UNL     1      -0.187  11.883  21.585  0.00  0.00    +0.000 A 
BRANCH  10  17
ATOM     16  C   UNL     1      -3.280  12.668  22.942  0.00  0.00    +0.000 C 
ATOM     17  N   UNL     1      -1.842  12.693  23.197  0.00  0.00    +0.000 N 
ATOM     18  C   UNL     1      -1.239  14.010  23.399  0.00  0.00    +0.000 C 
ENDBRANCH  10  17
ENDBRANCH   8  13
ENDBRANCH   1   9
BRANCH   4  19
ATOM     19  O   UNL     1       4.671   3.686  18.769  0.00  0.00    +0.000 OA
BRANCH  19  20
ATOM     20  C   UNL     1       5.229   4.052  17.564  0.00  0.00    +0.000 A 
ATOM     21  C   UNL     1       4.575   4.021  16.327  0.00  0.00    +0.000 A 
ATOM     22  C   UNL     1       5.279   4.317  15.156  0.00  0.00    +0.000 A 
ATOM     23  C   UNL     1       6.613   4.713  15.230  0.00  0.00    +0.000 A 
ATOM     24 CL   UNL     1       7.476   5.079  13.788  0.00  0.00    +0.000 Cl
ATOM     25  C   UNL     1       7.252   4.814  16.464  0.00  0.00    +0.000 A 
ATOM     26  C   UNL     1       6.559   4.479  17.630  0.00  0.00    +0.000 A 
ENDBRANCH  19  20
ENDBRANCH   4  19
TORSDOF 5
ENDMDL
MODEL 9
REMARK VINA RESULT:      -7.8      1.337      1.967
REMARK  Name = 
REMARK  7 active torsions:
REMARK  status: ('A' for Active; 'I' for Inactive)
REMARK    1  A    between atoms: C_1  and  N_2
REMARK    2  A    between atoms: N_2  and  C_3
REMARK    3  A    between atoms: N_2  and  C_4
REMARK    4  A    between atoms: C_7  and  C_8
REMARK    5  A    between atoms: N_9  and  C_10
REMARK    6  A    between atoms: C_13  and  O_14
REMARK    7  A    between atoms: O_14  and  C_15
REMARK                            x       y       z     vdW  Elec       q    Type
REMARK                         _______ _______ _______ _____ _____    ______ ____
ROOT
ATOM      1  C   UNL     1       7.112   7.959  17.516  0.00  0.00    +0.000 A 
ATOM      2  C   UNL     1       5.818   7.906  17.003  0.00  0.00    +0.000 A 
ATOM      3  C   UNL     1       5.169   6.672  16.847  0.00  0.00    +0.000 A 
ATOM      4  C   UNL     1       5.823   5.478  17.180  0.00  0.00    +0.000 A 
ATOM      5  C   UNL     1       7.148   5.529  17.621  0.00  0.00    +0.000 A 
ATOM      6 CL   UNL     1       8.153   4.137  17.836  0.00  0.00    +0.000 Cl
ATOM      7  C   UNL     1       7.751   6.763  17.856  0.00  0.00    +0.000 A 
ENDROOT
BRANCH   1   9
ATOM      8  C   UNL     1       8.656   9.273  18.618  0.00  0.00    +0.000 C 
ATOM      9  N   UNL     1       7.729   9.205  17.714  0.00  0.00    +0.000 NA
BRANCH   8  13
ATOM     10  C   UNL     1      10.616  12.921  19.778  0.00  0.00    +0.000 A 
ATOM     11  C   UNL     1      10.173  12.714  18.457  0.00  0.00    +0.000 A 
ATOM     12  C   UNL     1       9.536  11.534  18.062  0.00  0.00    +0.000 A 
ATOM     13  C   UNL     1       9.314  10.530  18.994  0.00  0.00    +0.000 A 
ATOM     14  C   UNL     1       9.688  10.714  20.322  0.00  0.00    +0.000 A 
ATOM     15  C   UNL     1      10.324  11.900  20.701  0.00  0.00    +0.000 A 
BRANCH  10  17
ATOM     16  C   UNL     1      10.597  15.063  21.004  0.00  0.00    +0.000 C 
ATOM     17  N   UNL     1      11.287  14.086  20.165  0.00  0.00    +0.000 N 
ATOM     18  C   UNL     1      12.333  14.605  19.286  0.00  0.00    +0.000 C 
ENDBRANCH  10  17
ENDBRANCH   8  13
ENDBRANCH   1   9
BRANCH   4  19
ATOM     19  O   UNL     1       5.094   4.333  16.963  0.00  0.00    +0.000 OA
BRANCH  19  20
ATOM     20  C   UNL     1       4.097   3.971  17.843  0.00  0.00    +0.000 A 
ATOM     21  C   UNL     1       2.723   4.076  17.597  0.00  0.00    +0.000 A 
ATOM     22  C   UNL     1       1.806   3.773  18.608  0.00  0.00    +0.000 A 
ATOM     23  C   UNL     1       2.260   3.300  19.836  0.00  0.00    +0.000 A 
ATOM     24 CL   UNL     1       1.130   2.926  21.078  0.00  0.00    +0.000 Cl
ATOM     25  C   UNL     1       3.624   3.126  20.066  0.00  0.00    +0.000 A 
ATOM     26  C   UNL     1       4.541   3.466  19.069  0.00  0.00    +0.000 A 
ENDBRANCH  19  20
ENDBRANCH   4  19
TORSDOF 5
ENDMDL
