MODEL 1
REMARK VINA RESULT:      -7.0      0.000      0.000
REMARK  Name = 
REMARK  20 active torsions:
REMARK  status: ('A' for Active; 'I' for Inactive)
REMARK    1  A    between atoms: C_1  and  C_2
REMARK    2  A    between atoms: C_4  and  O_5
REMARK    3  A    between atoms: C_10  and  C_11
REMARK    4  A    between atoms: C_10  and  C_12
REMARK    5  A    between atoms: C_12  and  C_13
REMARK    6  A    between atoms: C_13  and  C_14
REMARK    7  A    between atoms: C_14  and  C_15
REMARK    8  A    between atoms: C_15  and  C_16
REMARK    9  A    between atoms: C_15  and  C_17
REMARK   10  A    between atoms: C_17  and  C_18
REMARK   11  A    between atoms: C_18  and  C_19
REMARK   12  A    between atoms: C_19  and  C_20
REMARK   13  A    between atoms: C_20  and  C_21
REMARK   14  A    between atoms: C_20  and  C_22
REMARK   15  A    between atoms: C_22  and  C_23
REMARK   16  A    between atoms: C_23  and  C_24
REMARK   17  A    between atoms: C_24  and  C_25
REMARK   18  A    between atoms: C_25  and  C_26
REMARK   19  A    between atoms: C_25  and  C_27
REMARK   20  A    between atoms: C_27  and  O_28
REMARK                            x       y       z     vdW  Elec       q    Type
REMARK                         _______ _______ _______ _____ _____    ______ ____
ROOT
ATOM      1  C   UNL     1       1.832   7.646  18.154  0.00  0.00    +0.000 C 
ENDROOT
BRANCH   1   2
ATOM      2  C   UNL     1       1.753   9.126  17.720  0.00  0.00    +0.000 C 
BRANCH   2  11
ATOM      3  C   UNL     1      -0.514   8.522  21.987  0.00  0.00    +0.000 C 
ATOM      4  C   UNL     1      -0.281  10.005  21.925  0.00  0.00    +0.000 A 
ATOM      5  C   UNL     1      -0.948  10.859  22.809  0.00  0.00    +0.000 A 
ATOM      6  C   UNL     1      -0.823  12.240  22.663  0.00  0.00    +0.000 A 
ATOM      7  C   UNL     1      -0.049  12.789  21.641  0.00  0.00    +0.000 A 
ATOM      8  C   UNL     1       0.594  11.946  20.730  0.00  0.00    +0.000 A 
ATOM      9  C   UNL     1       0.488  10.557  20.891  0.00  0.00    +0.000 A 
ATOM     10  O   UNL     1       1.060   9.674  20.001  0.00  0.00    +0.000 OA
ATOM     11  C   UNL     1       1.021  10.150  18.641  0.00  0.00    +0.000 C 
ATOM     12  C   UNL     1      -0.451  10.292  18.205  0.00  0.00    +0.000 C 
ATOM     13  C   UNL     1       1.827  11.470  18.592  0.00  0.00    +0.000 C 
ATOM     14  C   UNL     1       1.258  12.540  19.521  0.00  0.00    +0.000 C 
BRANCH   6  15
ATOM     15  O   UNL     1      -1.497  13.103  23.475  0.00  0.00    +0.000 OA
ATOM     16  H   UNL     1      -1.883  12.598  24.210  0.00  0.00    +0.000 HD
ENDBRANCH   6  15
ENDBRANCH   2  11
ENDBRANCH   1   2
BRANCH   1  17
ATOM     17  C   UNL     1       3.232   7.028  18.112  0.00  0.00    +0.000 C 
BRANCH  17  18
ATOM     18  C   UNL     1       3.249   5.482  18.272  0.00  0.00    +0.000 C 
ATOM     19  C   UNL     1       1.798   4.990  18.365  0.00  0.00    +0.000 C 
BRANCH  18  20
ATOM     20  C   UNL     1       4.071   5.001  19.490  0.00  0.00    +0.000 C 
BRANCH  20  21
ATOM     21  C   UNL     1       5.506   4.537  19.179  0.00  0.00    +0.000 C 
BRANCH  21  22
ATOM     22  C   UNL     1       6.581   5.633  19.208  0.00  0.00    +0.000 C 
BRANCH  22  23
ATOM     23  C   UNL     1       7.485   5.742  17.953  0.00  0.00    +0.000 C 
ATOM     24  C   UNL     1       7.624   7.231  17.601  0.00  0.00    +0.000 C 
BRANCH  23  25
ATOM     25  C   UNL     1       6.919   4.925  16.768  0.00  0.00    +0.000 C 
BRANCH  25  26
ATOM     26  C   UNL     1       5.935   5.648  15.835  0.00  0.00    +0.000 C 
BRANCH  26  27
ATOM     27  C   UNL     1       5.312   4.810  14.707  0.00  0.00    +0.000 C 
BRANCH  27  28
ATOM     28  C   UNL     1       6.291   4.018  13.810  0.00  0.00    +0.000 C 
ATOM     29  C   UNL     1       5.597   3.376  12.604  0.00  0.00    +0.000 C 
BRANCH  28  30
ATOM     30  C   UNL     1       7.422   4.924  13.286  0.00  0.00    +0.000 C 
BRANCH  30  31
ATOM     31  O   UNL     1       7.570   4.813  11.877  0.00  0.00    +0.000 OA
ATOM     32  H   UNL     1       7.858   3.905  11.685  0.00  0.00    +0.000 HD
ENDBRANCH  30  31
ENDBRANCH  28  30
ENDBRANCH  27  28
ENDBRANCH  26  27
ENDBRANCH  25  26
ENDBRANCH  23  25
ENDBRANCH  22  23
ENDBRANCH  21  22
ENDBRANCH  20  21
ENDBRANCH  18  20
ENDBRANCH  17  18
ENDBRANCH   1  17
TORSDOF 15
ENDMDL
MODEL 2
REMARK VINA RESULT:      -6.7      5.556      8.575
REMARK  Name = 
REMARK  20 active torsions:
REMARK  status: ('A' for Active; 'I' for Inactive)
REMARK    1  A    between atoms: C_1  and  C_2
REMARK    2  A    between atoms: C_4  and  O_5
REMARK    3  A    between atoms: C_10  and  C_11
REMARK    4  A    between atoms: C_10  and  C_12
REMARK    5  A    between atoms: C_12  and  C_13
REMARK    6  A    between atoms: C_13  and  C_14
REMARK    7  A    between atoms: C_14  and  C_15
REMARK    8  A    between atoms: C_15  and  C_16
REMARK    9  A    between atoms: C_15  and  C_17
REMARK   10  A    between atoms: C_17  and  C_18
REMARK   11  A    between atoms: C_18  and  C_19
REMARK   12  A    between atoms: C_19  and  C_20
REMARK   13  A    between atoms: C_20  and  C_21
REMARK   14  A    between atoms: C_20  and  C_22
REMARK   15  A    between atoms: C_22  and  C_23
REMARK   16  A    between atoms: C_23  and  C_24
REMARK   17  A    between atoms: C_24  and  C_25
REMARK   18  A    between atoms: C_25  and  C_26
REMARK   19  A    between atoms: C_25  and  C_27
REMARK   20  A    between atoms: C_27  and  O_28
REMARK                            x       y       z     vdW  Elec       q    Type
REMARK                         _______ _______ _______ _____ _____    ______ ____
ROOT
ATOM      1  C   UNL     1       8.123   9.578  17.909  0.00  0.00    +0.000 C 
ENDROOT
BRANCH   1   2
ATOM      2  C   UNL     1       9.044  10.019  19.068  0.00  0.00    +0.000 C 
BRANCH   2  11
ATOM      3  C   UNL     1       7.374  14.401  17.756  0.00  0.00    +0.000 C 
ATOM      4  C   UNL     1       8.646  14.720  18.490  0.00  0.00    +0.000 A 
ATOM      5  C   UNL     1       9.212  15.996  18.394  0.00  0.00    +0.000 A 
ATOM      6  C   UNL     1      10.455  16.245  18.974  0.00  0.00    +0.000 A 
ATOM      7  C   UNL     1      11.152  15.241  19.644  0.00  0.00    +0.000 A 
ATOM      8  C   UNL     1      10.613  13.953  19.717  0.00  0.00    +0.000 A 
ATOM      9  C   UNL     1       9.352  13.707  19.154  0.00  0.00    +0.000 A 
ATOM     10  O   UNL     1       8.787  12.450  19.152  0.00  0.00    +0.000 OA
ATOM     11  C   UNL     1       9.761  11.401  18.984  0.00  0.00    +0.000 C 
ATOM     12  C   UNL     1      10.434  11.563  17.605  0.00  0.00    +0.000 C 
ATOM     13  C   UNL     1      10.739  11.486  20.179  0.00  0.00    +0.000 C 
ATOM     14  C   UNL     1      11.452  12.834  20.261  0.00  0.00    +0.000 C 
BRANCH   6  15
ATOM     15  O   UNL     1      11.059  17.462  18.859  0.00  0.00    +0.000 OA
ATOM     16  H   UNL     1      11.479  17.680  19.707  0.00  0.00    +0.000 HD
ENDBRANCH   6  15
ENDBRANCH   2  11
ENDBRANCH   1   2
BRANCH   1  17
ATOM     17  C   UNL     1       8.239   8.105  17.509  0.00  0.00    +0.000 C 
BRANCH  17  18
ATOM     18  C   UNL     1       7.157   7.187  18.142  0.00  0.00    +0.000 C 
ATOM     19  C   UNL     1       7.853   5.943  18.712  0.00  0.00    +0.000 C 
BRANCH  18  20
ATOM     20  C   UNL     1       6.038   6.784  17.153  0.00  0.00    +0.000 C 
BRANCH  20  21
ATOM     21  C   UNL     1       6.316   5.520  16.319  0.00  0.00    +0.000 C 
BRANCH  21  22
ATOM     22  C   UNL     1       5.511   4.273  16.712  0.00  0.00    +0.000 C 
BRANCH  22  23
ATOM     23  C   UNL     1       4.428   4.470  17.803  0.00  0.00    +0.000 C 
ATOM     24  C   UNL     1       4.855   3.664  19.041  0.00  0.00    +0.000 C 
BRANCH  23  25
ATOM     25  C   UNL     1       3.027   4.047  17.302  0.00  0.00    +0.000 C 
BRANCH  25  26
ATOM     26  C   UNL     1       1.819   4.597  18.076  0.00  0.00    +0.000 C 
BRANCH  26  27
ATOM     27  C   UNL     1       0.789   3.566  18.567  0.00  0.00    +0.000 C 
BRANCH  27  28
ATOM     28  C   UNL     1       0.975   3.030  20.005  0.00  0.00    +0.000 C 
ATOM     29  C   UNL     1       1.824   1.755  20.053  0.00  0.00    +0.000 C 
BRANCH  28  30
ATOM     30  C   UNL     1       1.643   4.084  20.909  0.00  0.00    +0.000 C 
BRANCH  30  31
ATOM     31  O   UNL     1       2.270   3.485  22.034  0.00  0.00    +0.000 OA
ATOM     32  H   UNL     1       1.571   3.098  22.587  0.00  0.00    +0.000 HD
ENDBRANCH  30  31
ENDBRANCH  28  30
ENDBRANCH  27  28
ENDBRANCH  26  27
ENDBRANCH  25  26
ENDBRANCH  23  25
ENDBRANCH  22  23
ENDBRANCH  21  22
ENDBRANCH  20  21
ENDBRANCH  18  20
ENDBRANCH  17  18
ENDBRANCH   1  17
TORSDOF 15
ENDMDL
MODEL 3
REMARK VINA RESULT:      -6.6      1.880      2.975
REMARK  Name = 
REMARK  20 active torsions:
REMARK  status: ('A' for Active; 'I' for Inactive)
REMARK    1  A    between atoms: C_1  and  C_2
REMARK    2  A    between atoms: C_4  and  O_5
REMARK    3  A    between atoms: C_10  and  C_11
REMARK    4  A    between atoms: C_10  and  C_12
REMARK    5  A    between atoms: C_12  and  C_13
REMARK    6  A    between atoms: C_13  and  C_14
REMARK    7  A    between atoms: C_14  and  C_15
REMARK    8  A    between atoms: C_15  and  C_16
REMARK    9  A    between atoms: C_15  and  C_17
REMARK   10  A    between atoms: C_17  and  C_18
REMARK   11  A    between atoms: C_18  and  C_19
REMARK   12  A    between atoms: C_19  and  C_20
REMARK   13  A    between atoms: C_20  and  C_21
REMARK   14  A    between atoms: C_20  and  C_22
REMARK   15  A    between atoms: C_22  and  C_23
REMARK   16  A    between atoms: C_23  and  C_24
REMARK   17  A    between atoms: C_24  and  C_25
REMARK   18  A    between atoms: C_25  and  C_26
REMARK   19  A    between atoms: C_25  and  C_27
REMARK   20  A    between atoms: C_27  and  O_28
REMARK                            x       y       z     vdW  Elec       q    Type
REMARK                         _______ _______ _______ _____ _____    ______ ____
ROOT
ATOM      1  C   UNL     1       1.716   7.587  19.975  0.00  0.00    +0.000 C 
ENDROOT
BRANCH   1   2
ATOM      2  C   UNL     1       1.600   8.621  18.834  0.00  0.00    +0.000 C 
BRANCH   2  11
ATOM      3  C   UNL     1      -0.807  10.264  22.736  0.00  0.00    +0.000 C 
ATOM      4  C   UNL     1      -0.396  11.523  22.026  0.00  0.00    +0.000 A 
ATOM      5  C   UNL     1      -0.974  12.748  22.377  0.00  0.00    +0.000 A 
ATOM      6  C   UNL     1      -0.681  13.888  21.630  0.00  0.00    +0.000 A 
ATOM      7  C   UNL     1       0.174  13.830  20.530  0.00  0.00    +0.000 A 
ATOM      8  C   UNL     1       0.729  12.605  20.149  0.00  0.00    +0.000 A 
ATOM      9  C   UNL     1       0.454  11.462  20.912  0.00  0.00    +0.000 A 
ATOM     10  O   UNL     1       0.933  10.218  20.562  0.00  0.00    +0.000 OA
ATOM     11  C   UNL     1       0.978  10.019  19.136  0.00  0.00    +0.000 C 
ATOM     12  C   UNL     1      -0.458  10.089  18.578  0.00  0.00    +0.000 C 
ATOM     13  C   UNL     1       1.937  11.084  18.553  0.00  0.00    +0.000 C 
ATOM     14  C   UNL     1       1.483  12.511  18.853  0.00  0.00    +0.000 C 
BRANCH   6  15
ATOM     15  O   UNL     1      -1.262  15.089  21.912  0.00  0.00    +0.000 OA
ATOM     16  H   UNL     1      -1.602  15.470  21.086  0.00  0.00    +0.000 HD
ENDBRANCH   6  15
ENDBRANCH   2  11
ENDBRANCH   1   2
BRANCH   1  17
ATOM     17  C   UNL     1       2.511   6.325  19.633  0.00  0.00    +0.000 C 
BRANCH  17  18
ATOM     18  C   UNL     1       2.326   5.162  20.647  0.00  0.00    +0.000 C 
ATOM     19  C   UNL     1       3.591   4.293  20.622  0.00  0.00    +0.000 C 
BRANCH  18  20
ATOM     20  C   UNL     1       1.066   4.306  20.376  0.00  0.00    +0.000 C 
BRANCH  20  21
ATOM     21  C   UNL     1       1.335   2.844  19.976  0.00  0.00    +0.000 C 
BRANCH  21  22
ATOM     22  C   UNL     1       1.110   2.507  18.495  0.00  0.00    +0.000 C 
BRANCH  22  23
ATOM     23  C   UNL     1       2.380   2.212  17.657  0.00  0.00    +0.000 C 
ATOM     24  C   UNL     1       3.413   1.550  18.583  0.00  0.00    +0.000 C 
BRANCH  23  25
ATOM     25  C   UNL     1       2.942   3.495  17.000  0.00  0.00    +0.000 C 
BRANCH  25  26
ATOM     26  C   UNL     1       4.410   3.840  17.298  0.00  0.00    +0.000 C 
BRANCH  26  27
ATOM     27  C   UNL     1       5.107   4.793  16.313  0.00  0.00    +0.000 C 
BRANCH  27  28
ATOM     28  C   UNL     1       6.036   4.144  15.261  0.00  0.00    +0.000 C 
ATOM     29  C   UNL     1       5.409   4.111  13.863  0.00  0.00    +0.000 C 
BRANCH  28  30
ATOM     30  C   UNL     1       7.378   4.895  15.166  0.00  0.00    +0.000 C 
BRANCH  30  31
ATOM     31  O   UNL     1       7.434   5.983  16.078  0.00  0.00    +0.000 OA
ATOM     32  H   UNL     1       7.797   6.746  15.600  0.00  0.00    +0.000 HD
ENDBRANCH  30  31
ENDBRANCH  28  30
ENDBRANCH  27  28
ENDBRANCH  26  27
ENDBRANCH  25  26
ENDBRANCH  23  25
ENDBRANCH  22  23
ENDBRANCH  21  22
ENDBRANCH  20  21
ENDBRANCH  18  20
ENDBRANCH  17  18
ENDBRANCH   1  17
TORSDOF 15
ENDMDL
MODEL 4
REMARK VINA RESULT:      -6.6      1.165      1.436
REMARK  Name = 
REMARK  20 active torsions:
REMARK  status: ('A' for Active; 'I' for Inactive)
REMARK    1  A    between atoms: C_1  and  C_2
REMARK    2  A    between atoms: C_4  and  O_5
REMARK    3  A    between atoms: C_10  and  C_11
REMARK    4  A    between atoms: C_10  and  C_12
REMARK    5  A    between atoms: C_12  and  C_13
REMARK    6  A    between atoms: C_13  and  C_14
REMARK    7  A    between atoms: C_14  and  C_15
REMARK    8  A    between atoms: C_15  and  C_16
REMARK    9  A    between atoms: C_15  and  C_17
REMARK   10  A    between atoms: C_17  and  C_18
REMARK   11  A    between atoms: C_18  and  C_19
REMARK   12  A    between atoms: C_19  and  C_20
REMARK   13  A    between atoms: C_20  and  C_21
REMARK   14  A    between atoms: C_20  and  C_22
REMARK   15  A    between atoms: C_22  and  C_23
REMARK   16  A    between atoms: C_23  and  C_24
REMARK   17  A    between atoms: C_24  and  C_25
REMARK   18  A    between atoms: C_25  and  C_26
REMARK   19  A    between atoms: C_25  and  C_27
REMARK   20  A    between atoms: C_27  and  O_28
REMARK                            x       y       z     vdW  Elec       q    Type
REMARK                         _______ _______ _______ _____ _____    ______ ____
ROOT
ATOM      1  C   UNL     1       2.674   7.977  18.357  0.00  0.00    +0.000 C 
ENDROOT
BRANCH   1   2
ATOM      2  C   UNL     1       1.538   8.832  17.756  0.00  0.00    +0.000 C 
BRANCH   2  11
ATOM      3  C   UNL     1      -0.555   8.657  22.150  0.00  0.00    +0.000 C 
ATOM      4  C   UNL     1      -0.264  10.119  21.962  0.00  0.00    +0.000 A 
ATOM      5  C   UNL     1      -0.855  11.067  22.804  0.00  0.00    +0.000 A 
ATOM      6  C   UNL     1      -0.680  12.426  22.544  0.00  0.00    +0.000 A 
ATOM      7  C   UNL     1       0.068  12.860  21.451  0.00  0.00    +0.000 A 
ATOM      8  C   UNL     1       0.634  11.923  20.583  0.00  0.00    +0.000 A 
ATOM      9  C   UNL     1       0.479  10.556  20.856  0.00  0.00    +0.000 A 
ATOM     10  O   UNL     1       0.973   9.583  20.014  0.00  0.00    +0.000 OA
ATOM     11  C   UNL     1       0.892   9.954  18.625  0.00  0.00    +0.000 C 
ATOM     12  C   UNL     1      -0.593  10.128  18.242  0.00  0.00    +0.000 C 
ATOM     13  C   UNL     1       1.747  11.230  18.438  0.00  0.00    +0.000 C 
ATOM     14  C   UNL     1       1.266  12.392  19.304  0.00  0.00    +0.000 C 
BRANCH   6  15
ATOM     15  O   UNL     1      -1.281  13.377  23.315  0.00  0.00    +0.000 OA
ATOM     16  H   UNL     1      -0.670  13.629  24.027  0.00  0.00    +0.000 HD
ENDBRANCH   6  15
ENDBRANCH   2  11
ENDBRANCH   1   2
BRANCH   1  17
ATOM     17  C   UNL     1       2.227   6.676  19.028  0.00  0.00    +0.000 C 
BRANCH  17  18
ATOM     18  C   UNL     1       2.864   5.395  18.420  0.00  0.00    +0.000 C 
ATOM     19  C   UNL     1       1.734   4.491  17.907  0.00  0.00    +0.000 C 
BRANCH  18  20
ATOM     20  C   UNL     1       3.771   4.630  19.412  0.00  0.00    +0.000 C 
BRANCH  20  21
ATOM     21  C   UNL     1       5.218   5.146  19.517  0.00  0.00    +0.000 C 
BRANCH  21  22
ATOM     22  C   UNL     1       6.217   4.531  18.527  0.00  0.00    +0.000 C 
BRANCH  22  23
ATOM     23  C   UNL     1       7.473   5.381  18.202  0.00  0.00    +0.000 C 
ATOM     24  C   UNL     1       8.038   5.912  19.529  0.00  0.00    +0.000 C 
BRANCH  23  25
ATOM     25  C   UNL     1       7.148   6.530  17.219  0.00  0.00    +0.000 C 
BRANCH  25  26
ATOM     26  C   UNL     1       5.683   6.668  16.776  0.00  0.00    +0.000 C 
BRANCH  26  27
ATOM     27  C   UNL     1       5.406   6.561  15.268  0.00  0.00    +0.000 C 
BRANCH  27  28
ATOM     28  C   UNL     1       5.560   5.160  14.633  0.00  0.00    +0.000 C 
ATOM     29  C   UNL     1       7.007   4.850  14.235  0.00  0.00    +0.000 C 
BRANCH  28  30
ATOM     30  C   UNL     1       5.082   4.057  15.597  0.00  0.00    +0.000 C 
BRANCH  30  31
ATOM     31  O   UNL     1       5.984   2.960  15.624  0.00  0.00    +0.000 OA
ATOM     32  H   UNL     1       6.553   3.069  16.404  0.00  0.00    +0.000 HD
ENDBRANCH  30  31
ENDBRANCH  28  30
ENDBRANCH  27  28
ENDBRANCH  26  27
ENDBRANCH  25  26
ENDBRANCH  23  25
ENDBRANCH  22  23
ENDBRANCH  21  22
ENDBRANCH  20  21
ENDBRANCH  18  20
ENDBRANCH  17  18
ENDBRANCH   1  17
TORSDOF 15
ENDMDL
MODEL 5
REMARK VINA RESULT:      -6.6      1.583      2.449
REMARK  Name = 
REMARK  20 active torsions:
REMARK  status: ('A' for Active; 'I' for Inactive)
REMARK    1  A    between atoms: C_1  and  C_2
REMARK    2  A    between atoms: C_4  and  O_5
REMARK    3  A    between atoms: C_10  and  C_11
REMARK    4  A    between atoms: C_10  and  C_12
REMARK    5  A    between atoms: C_12  and  C_13
REMARK    6  A    between atoms: C_13  and  C_14
REMARK    7  A    between atoms: C_14  and  C_15
REMARK    8  A    between atoms: C_15  and  C_16
REMARK    9  A    between atoms: C_15  and  C_17
REMARK   10  A    between atoms: C_17  and  C_18
REMARK   11  A    between atoms: C_18  and  C_19
REMARK   12  A    between atoms: C_19  and  C_20
REMARK   13  A    between atoms: C_20  and  C_21
REMARK   14  A    between atoms: C_20  and  C_22
REMARK   15  A    between atoms: C_22  and  C_23
REMARK   16  A    between atoms: C_23  and  C_24
REMARK   17  A    between atoms: C_24  and  C_25
REMARK   18  A    between atoms: C_25  and  C_26
REMARK   19  A    between atoms: C_25  and  C_27
REMARK   20  A    between atoms: C_27  and  O_28
REMARK                            x       y       z     vdW  Elec       q    Type
REMARK                         _______ _______ _______ _____ _____    ______ ____
ROOT
ATOM      1  C   UNL     1       2.309   6.735  19.027  0.00  0.00    +0.000 C 
ENDROOT
BRANCH   1   2
ATOM      2  C   UNL     1       2.179   7.968  18.106  0.00  0.00    +0.000 C 
BRANCH   2  11
ATOM      3  C   UNL     1      -1.974  10.020  16.603  0.00  0.00    +0.000 C 
ATOM      4  C   UNL     1      -1.775  10.602  17.974  0.00  0.00    +0.000 A 
ATOM      5  C   UNL     1      -2.523  11.711  18.381  0.00  0.00    +0.000 A 
ATOM      6  C   UNL     1      -2.245  12.321  19.604  0.00  0.00    +0.000 A 
ATOM      7  C   UNL     1      -1.224  11.849  20.429  0.00  0.00    +0.000 A 
ATOM      8  C   UNL     1      -0.448  10.762  20.017  0.00  0.00    +0.000 A 
ATOM      9  C   UNL     1      -0.742  10.134  18.798  0.00  0.00    +0.000 A 
ATOM     10  O   UNL     1       0.015   9.089  18.315  0.00  0.00    +0.000 OA
ATOM     11  C   UNL     1       1.416   9.225  18.624  0.00  0.00    +0.000 C 
ATOM     12  C   UNL     1       1.957  10.492  17.932  0.00  0.00    +0.000 C 
ATOM     13  C   UNL     1       1.547   9.241  20.166  0.00  0.00    +0.000 C 
ATOM     14  C   UNL     1       0.770  10.386  20.810  0.00  0.00    +0.000 C 
BRANCH   6  15
ATOM     15  O   UNL     1      -2.920  13.433  20.012  0.00  0.00    +0.000 OA
ATOM     16  H   UNL     1      -3.662  13.585  19.403  0.00  0.00    +0.000 HD
ENDBRANCH   6  15
ENDBRANCH   2  11
ENDBRANCH   1   2
BRANCH   1  17
ATOM     17  C   UNL     1       2.234   5.380  18.318  0.00  0.00    +0.000 C 
BRANCH  17  18
ATOM     18  C   UNL     1       2.229   4.159  19.279  0.00  0.00    +0.000 C 
ATOM     19  C   UNL     1       1.294   4.473  20.455  0.00  0.00    +0.000 C 
BRANCH  18  20
ATOM     20  C   UNL     1       3.638   3.772  19.786  0.00  0.00    +0.000 C 
BRANCH  20  21
ATOM     21  C   UNL     1       4.791   4.029  18.798  0.00  0.00    +0.000 C 
BRANCH  21  22
ATOM     22  C   UNL     1       5.746   5.171  19.171  0.00  0.00    +0.000 C 
BRANCH  22  23
ATOM     23  C   UNL     1       6.611   5.747  18.021  0.00  0.00    +0.000 C 
ATOM     24  C   UNL     1       7.829   6.442  18.649  0.00  0.00    +0.000 C 
BRANCH  23  25
ATOM     25  C   UNL     1       5.800   6.714  17.125  0.00  0.00    +0.000 C 
BRANCH  25  26
ATOM     26  C   UNL     1       5.431   6.211  15.720  0.00  0.00    +0.000 C 
BRANCH  26  27
ATOM     27  C   UNL     1       6.534   5.479  14.939  0.00  0.00    +0.000 C 
BRANCH  27  28
ATOM     28  C   UNL     1       6.322   3.967  14.693  0.00  0.00    +0.000 C 
ATOM     29  C   UNL     1       5.077   3.424  15.403  0.00  0.00    +0.000 C 
BRANCH  28  30
ATOM     30  C   UNL     1       6.188   3.662  13.189  0.00  0.00    +0.000 C 
BRANCH  30  31
ATOM     31  O   UNL     1       7.122   4.404  12.419  0.00  0.00    +0.000 OA
ATOM     32  H   UNL     1       7.560   5.032  13.017  0.00  0.00    +0.000 HD
ENDBRANCH  30  31
ENDBRANCH  28  30
ENDBRANCH  27  28
ENDBRANCH  26  27
ENDBRANCH  25  26
ENDBRANCH  23  25
ENDBRANCH  22  23
ENDBRANCH  21  22
ENDBRANCH  20  21
ENDBRANCH  18  20
ENDBRANCH  17  18
ENDBRANCH   1  17
TORSDOF 15
ENDMDL
MODEL 6
REMARK VINA RESULT:      -6.6      4.750      8.557
REMARK  Name = 
REMARK  20 active torsions:
REMARK  status: ('A' for Active; 'I' for Inactive)
REMARK    1  A    between atoms: C_1  and  C_2
REMARK    2  A    between atoms: C_4  and  O_5
REMARK    3  A    between atoms: C_10  and  C_11
REMARK    4  A    between atoms: C_10  and  C_12
REMARK    5  A    between atoms: C_12  and  C_13
REMARK    6  A    between atoms: C_13  and  C_14
REMARK    7  A    between atoms: C_14  and  C_15
REMARK    8  A    between atoms: C_15  and  C_16
REMARK    9  A    between atoms: C_15  and  C_17
REMARK   10  A    between atoms: C_17  and  C_18
REMARK   11  A    between atoms: C_18  and  C_19
REMARK   12  A    between atoms: C_19  and  C_20
REMARK   13  A    between atoms: C_20  and  C_21
REMARK   14  A    between atoms: C_20  and  C_22
REMARK   15  A    between atoms: C_22  and  C_23
REMARK   16  A    between atoms: C_23  and  C_24
REMARK   17  A    between atoms: C_24  and  C_25
REMARK   18  A    between atoms: C_25  and  C_26
REMARK   19  A    between atoms: C_25  and  C_27
REMARK   20  A    between atoms: C_27  and  O_28
REMARK                            x       y       z     vdW  Elec       q    Type
REMARK                         _______ _______ _______ _____ _____    ______ ____
ROOT
ATOM      1  C   UNL     1       6.421   4.777  16.919  0.00  0.00    +0.000 C 
ENDROOT
BRANCH   1   2
ATOM      2  C   UNL     1       4.953   4.663  16.452  0.00  0.00    +0.000 C 
BRANCH   2  11
ATOM      3  C   UNL     1       4.921   1.542  20.190  0.00  0.00    +0.000 C 
ATOM      4  C   UNL     1       3.778   2.467  20.500  0.00  0.00    +0.000 A 
ATOM      5  C   UNL     1       2.842   2.123  21.482  0.00  0.00    +0.000 A 
ATOM      6  C   UNL     1       1.718   2.925  21.675  0.00  0.00    +0.000 A 
ATOM      7  C   UNL     1       1.502   4.063  20.899  0.00  0.00    +0.000 A 
ATOM      8  C   UNL     1       2.413   4.398  19.893  0.00  0.00    +0.000 A 
ATOM      9  C   UNL     1       3.555   3.605  19.713  0.00  0.00    +0.000 A 
ATOM     10  O   UNL     1       4.466   3.855  18.709  0.00  0.00    +0.000 OA
ATOM     11  C   UNL     1       3.846   4.339  17.502  0.00  0.00    +0.000 C 
ATOM     12  C   UNL     1       2.905   3.246  16.954  0.00  0.00    +0.000 C 
ATOM     13  C   UNL     1       3.137   5.669  17.849  0.00  0.00    +0.000 C 
ATOM     14  C   UNL     1       2.076   5.504  18.934  0.00  0.00    +0.000 C 
BRANCH   6  15
ATOM     15  O   UNL     1       0.760   2.595  22.588  0.00  0.00    +0.000 OA
ATOM     16  H   UNL     1      -0.100   2.903  22.259  0.00  0.00    +0.000 HD
ENDBRANCH   6  15
ENDBRANCH   2  11
ENDBRANCH   1   2
BRANCH   1  17
ATOM     17  C   UNL     1       7.150   6.046  16.471  0.00  0.00    +0.000 C 
BRANCH  17  18
ATOM     18  C   UNL     1       7.883   6.796  17.618  0.00  0.00    +0.000 C 
ATOM     19  C   UNL     1       7.547   6.099  18.944  0.00  0.00    +0.000 C 
BRANCH  18  20
ATOM     20  C   UNL     1       7.536   8.302  17.687  0.00  0.00    +0.000 C 
BRANCH  20  21
ATOM     21  C   UNL     1       8.590   9.193  18.369  0.00  0.00    +0.000 C 
BRANCH  21  22
ATOM     22  C   UNL     1       8.547  10.682  17.994  0.00  0.00    +0.000 C 
BRANCH  22  23
ATOM     23  C   UNL     1       9.599  11.593  18.677  0.00  0.00    +0.000 C 
ATOM     24  C   UNL     1      10.824  11.673  17.752  0.00  0.00    +0.000 C 
BRANCH  23  25
ATOM     25  C   UNL     1       9.978  11.073  20.084  0.00  0.00    +0.000 C 
BRANCH  25  26
ATOM     26  C   UNL     1       9.990  12.104  21.223  0.00  0.00    +0.000 C 
BRANCH  26  27
ATOM     27  C   UNL     1       8.631  12.455  21.849  0.00  0.00    +0.000 C 
BRANCH  27  28
ATOM     28  C   UNL     1       8.231  13.948  21.846  0.00  0.00    +0.000 C 
ATOM     29  C   UNL     1       8.275  14.567  20.444  0.00  0.00    +0.000 C 
BRANCH  28  30
ATOM     30  C   UNL     1       6.811  14.145  22.411  0.00  0.00    +0.000 C 
BRANCH  30  31
ATOM     31  O   UNL     1       6.101  15.151  21.703  0.00  0.00    +0.000 OA
ATOM     32  H   UNL     1       5.908  15.868  22.329  0.00  0.00    +0.000 HD
ENDBRANCH  30  31
ENDBRANCH  28  30
ENDBRANCH  27  28
ENDBRANCH  26  27
ENDBRANCH  25  26
ENDBRANCH  23  25
ENDBRANCH  22  23
ENDBRANCH  21  22
ENDBRANCH  20  21
ENDBRANCH  18  20
ENDBRANCH  17  18
ENDBRANCH   1  17
TORSDOF 15
ENDMDL
MODEL 7
REMARK VINA RESULT:      -6.5      3.166      4.639
REMARK  Name = 
REMARK  20 active torsions:
REMARK  status: ('A' for Active; 'I' for Inactive)
REMARK    1  A    between atoms: C_1  and  C_2
REMARK    2  A    between atoms: C_4  and  O_5
REMARK    3  A    between atoms: C_10  and  C_11
REMARK    4  A    between atoms: C_10  and  C_12
REMARK    5  A    between atoms: C_12  and  C_13
REMARK    6  A    between atoms: C_13  and  C_14
REMARK    7  A    between atoms: C_14  and  C_15
REMARK    8  A    between atoms: C_15  and  C_16
REMARK    9  A    between atoms: C_15  and  C_17
REMARK   10  A    between atoms: C_17  and  C_18
REMARK   11  A    between atoms: C_18  and  C_19
REMARK   12  A    between atoms: C_19  and  C_20
REMARK   13  A    between atoms: C_20  and  C_21
REMARK   14  A    between atoms: C_20  and  C_22
REMARK   15  A    between atoms: C_22  and  C_23
REMARK   16  A    between atoms: C_23  and  C_24
REMARK   17  A    between atoms: C_24  and  C_25
REMARK   18  A    between atoms: C_25  and  C_26
REMARK   19  A    between atoms: C_25  and  C_27
REMARK   20  A    between atoms: C_27  and  O_28
REMARK                            x       y       z     vdW  Elec       q    Type
REMARK                         _______ _______ _______ _____ _____    ______ ____
ROOT
ATOM      1  C   UNL     1       0.799   9.485  18.281  0.00  0.00    +0.000 C 
ENDROOT
BRANCH   1   2
ATOM      2  C   UNL     1       0.636  10.896  18.888  0.00  0.00    +0.000 C 
BRANCH   2  11
ATOM      3  C   UNL     1      -3.054  10.413  15.748  0.00  0.00    +0.000 C 
ATOM      4  C   UNL     1      -3.696  11.063  16.941  0.00  0.00    +0.000 A 
ATOM      5  C   UNL     1      -4.970  11.631  16.831  0.00  0.00    +0.000 A 
ATOM      6  C   UNL     1      -5.505  12.340  17.906  0.00  0.00    +0.000 A 
ATOM      7  C   UNL     1      -4.787  12.503  19.091  0.00  0.00    +0.000 A 
ATOM      8  C   UNL     1      -3.500  11.970  19.199  0.00  0.00    +0.000 A 
ATOM      9  C   UNL     1      -2.971  11.237  18.128  0.00  0.00    +0.000 A 
ATOM     10  O   UNL     1      -1.691  10.725  18.156  0.00  0.00    +0.000 OA
ATOM     11  C   UNL     1      -0.762  11.586  18.842  0.00  0.00    +0.000 C 
ATOM     12  C   UNL     1      -0.664  12.922  18.079  0.00  0.00    +0.000 C 
ATOM     13  C   UNL     1      -1.255  11.724  20.302  0.00  0.00    +0.000 C 
ATOM     14  C   UNL     1      -2.659  12.316  20.394  0.00  0.00    +0.000 C 
BRANCH   6  15
ATOM     15  O   UNL     1      -6.722  12.949  17.819  0.00  0.00    +0.000 OA
ATOM     16  H   UNL     1      -6.770  13.643  18.496  0.00  0.00    +0.000 HD
ENDBRANCH   6  15
ENDBRANCH   2  11
ENDBRANCH   1   2
BRANCH   1  17
ATOM     17  C   UNL     1       2.154   9.211  17.624  0.00  0.00    +0.000 C 
BRANCH  17  18
ATOM     18  C   UNL     1       2.922   8.003  18.231  0.00  0.00    +0.000 C 
ATOM     19  C   UNL     1       4.073   7.637  17.283  0.00  0.00    +0.000 C 
BRANCH  18  20
ATOM     20  C   UNL     1       2.021   6.775  18.500  0.00  0.00    +0.000 C 
BRANCH  20  21
ATOM     21  C   UNL     1       2.038   6.246  19.946  0.00  0.00    +0.000 C 
BRANCH  21  22
ATOM     22  C   UNL     1       2.796   4.929  20.164  0.00  0.00    +0.000 C 
BRANCH  22  23
ATOM     23  C   UNL     1       2.164   3.660  19.535  0.00  0.00    +0.000 C 
ATOM     24  C   UNL     1       1.571   2.816  20.674  0.00  0.00    +0.000 C 
BRANCH  23  25
ATOM     25  C   UNL     1       3.196   2.858  18.707  0.00  0.00    +0.000 C 
BRANCH  25  26
ATOM     26  C   UNL     1       3.352   3.249  17.229  0.00  0.00    +0.000 C 
BRANCH  26  27
ATOM     27  C   UNL     1       4.396   4.331  16.909  0.00  0.00    +0.000 C 
BRANCH  27  28
ATOM     28  C   UNL     1       5.654   3.873  16.136  0.00  0.00    +0.000 C 
ATOM     29  C   UNL     1       5.598   4.242  14.649  0.00  0.00    +0.000 C 
BRANCH  28  30
ATOM     30  C   UNL     1       6.931   4.494  16.735  0.00  0.00    +0.000 C 
BRANCH  30  31
ATOM     31  O   UNL     1       7.059   4.194  18.118  0.00  0.00    +0.000 OA
ATOM     32  H   UNL     1       7.102   5.038  18.597  0.00  0.00    +0.000 HD
ENDBRANCH  30  31
ENDBRANCH  28  30
ENDBRANCH  27  28
ENDBRANCH  26  27
ENDBRANCH  25  26
ENDBRANCH  23  25
ENDBRANCH  22  23
ENDBRANCH  21  22
ENDBRANCH  20  21
ENDBRANCH  18  20
ENDBRANCH  17  18
ENDBRANCH   1  17
TORSDOF 15
ENDMDL
MODEL 8
REMARK VINA RESULT:      -6.5      2.810      4.898
REMARK  Name = 
REMARK  20 active torsions:
REMARK  status: ('A' for Active; 'I' for Inactive)
REMARK    1  A    between atoms: C_1  and  C_2
REMARK    2  A    between atoms: C_4  and  O_5
REMARK    3  A    between atoms: C_10  and  C_11
REMARK    4  A    between atoms: C_10  and  C_12
REMARK    5  A    between atoms: C_12  and  C_13
REMARK    6  A    between atoms: C_13  and  C_14
REMARK    7  A    between atoms: C_14  and  C_15
REMARK    8  A    between atoms: C_15  and  C_16
REMARK    9  A    between atoms: C_15  and  C_17
REMARK   10  A    between atoms: C_17  and  C_18
REMARK   11  A    between atoms: C_18  and  C_19
REMARK   12  A    between atoms: C_19  and  C_20
REMARK   13  A    between atoms: C_20  and  C_21
REMARK   14  A    between atoms: C_20  and  C_22
REMARK   15  A    between atoms: C_22  and  C_23
REMARK   16  A    between atoms: C_23  and  C_24
REMARK   17  A    between atoms: C_24  and  C_25
REMARK   18  A    between atoms: C_25  and  C_26
REMARK   19  A    between atoms: C_25  and  C_27
REMARK   20  A    between atoms: C_27  and  O_28
REMARK                            x       y       z     vdW  Elec       q    Type
REMARK                         _______ _______ _______ _____ _____    ______ ____
ROOT
ATOM      1  C   UNL     1       3.145   8.356  17.921  0.00  0.00    +0.000 C 
ENDROOT
BRANCH   1   2
ATOM      2  C   UNL     1       1.621   8.597  17.884  0.00  0.00    +0.000 C 
BRANCH   2  11
ATOM      3  C   UNL     1      -2.322  11.398  17.312  0.00  0.00    +0.000 C 
ATOM      4  C   UNL     1      -2.038  11.494  18.785  0.00  0.00    +0.000 A 
ATOM      5  C   UNL     1      -2.659  12.482  19.557  0.00  0.00    +0.000 A 
ATOM      6  C   UNL     1      -2.296  12.643  20.894  0.00  0.00    +0.000 A 
ATOM      7  C   UNL     1      -1.315  11.841  21.476  0.00  0.00    +0.000 A 
ATOM      8  C   UNL     1      -0.664  10.874  20.705  0.00  0.00    +0.000 A 
ATOM      9  C   UNL     1      -1.044  10.695  19.367  0.00  0.00    +0.000 A 
ATOM     10  O   UNL     1      -0.410   9.791  18.543  0.00  0.00    +0.000 OA
ATOM     11  C   UNL     1       1.003   9.691  18.808  0.00  0.00    +0.000 C 
ATOM     12  C   UNL     1       1.661  11.056  18.521  0.00  0.00    +0.000 C 
ATOM     13  C   UNL     1       1.164   9.204  20.268  0.00  0.00    +0.000 C 
ATOM     14  C   UNL     1       0.523  10.153  21.277  0.00  0.00    +0.000 C 
BRANCH   6  15
ATOM     15  O   UNL     1      -2.843  13.626  21.663  0.00  0.00    +0.000 OA
ATOM     16  H   UNL     1      -3.737  13.351  21.926  0.00  0.00    +0.000 HD
ENDBRANCH   6  15
ENDBRANCH   2  11
ENDBRANCH   1   2
BRANCH   1  17
ATOM     17  C   UNL     1       3.577   6.893  17.786  0.00  0.00    +0.000 C 
BRANCH  17  18
ATOM     18  C   UNL     1       5.111   6.670  17.899  0.00  0.00    +0.000 C 
ATOM     19  C   UNL     1       5.645   6.277  16.514  0.00  0.00    +0.000 C 
BRANCH  18  20
ATOM     20  C   UNL     1       5.501   5.611  18.957  0.00  0.00    +0.000 C 
BRANCH  20  21
ATOM     21  C   UNL     1       5.614   4.167  18.437  0.00  0.00    +0.000 C 
BRANCH  21  22
ATOM     22  C   UNL     1       4.399   3.267  18.702  0.00  0.00    +0.000 C 
BRANCH  22  23
ATOM     23  C   UNL     1       3.571   2.846  17.461  0.00  0.00    +0.000 C 
ATOM     24  C   UNL     1       4.285   3.390  16.213  0.00  0.00    +0.000 C 
BRANCH  23  25
ATOM     25  C   UNL     1       2.111   3.351  17.549  0.00  0.00    +0.000 C 
BRANCH  25  26
ATOM     26  C   UNL     1       1.196   2.651  18.566  0.00  0.00    +0.000 C 
BRANCH  26  27
ATOM     27  C   UNL     1       0.818   3.455  19.820  0.00  0.00    +0.000 C 
BRANCH  27  28
ATOM     28  C   UNL     1       1.958   4.237  20.512  0.00  0.00    +0.000 C 
ATOM     29  C   UNL     1       1.615   5.717  20.718  0.00  0.00    +0.000 C 
BRANCH  28  30
ATOM     30  C   UNL     1       2.296   3.628  21.886  0.00  0.00    +0.000 C 
BRANCH  30  31
ATOM     31  O   UNL     1       1.539   2.452  22.137  0.00  0.00    +0.000 OA
ATOM     32  H   UNL     1       0.702   2.535  21.652  0.00  0.00    +0.000 HD
ENDBRANCH  30  31
ENDBRANCH  28  30
ENDBRANCH  27  28
ENDBRANCH  26  27
ENDBRANCH  25  26
ENDBRANCH  23  25
ENDBRANCH  22  23
ENDBRANCH  21  22
ENDBRANCH  20  21
ENDBRANCH  18  20
ENDBRANCH  17  18
ENDBRANCH   1  17
TORSDOF 15
ENDMDL
MODEL 9
REMARK VINA RESULT:      -6.5      2.693      4.892
REMARK  Name = 
REMARK  20 active torsions:
REMARK  status: ('A' for Active; 'I' for Inactive)
REMARK    1  A    between atoms: C_1  and  C_2
REMARK    2  A    between atoms: C_4  and  O_5
REMARK    3  A    between atoms: C_10  and  C_11
REMARK    4  A    between atoms: C_10  and  C_12
REMARK    5  A    between atoms: C_12  and  C_13
REMARK    6  A    between atoms: C_13  and  C_14
REMARK    7  A    between atoms: C_14  and  C_15
REMARK    8  A    between atoms: C_15  and  C_16
REMARK    9  A    between atoms: C_15  and  C_17
REMARK   10  A    between atoms: C_17  and  C_18
REMARK   11  A    between atoms: C_18  and  C_19
REMARK   12  A    between atoms: C_19  and  C_20
REMARK   13  A    between atoms: C_20  and  C_21
REMARK   14  A    between atoms: C_20  and  C_22
REMARK   15  A    between atoms: C_22  and  C_23
REMARK   16  A    between atoms: C_23  and  C_24
REMARK   17  A    between atoms: C_24  and  C_25
REMARK   18  A    between atoms: C_25  and  C_26
REMARK   19  A    between atoms: C_25  and  C_27
REMARK   20  A    between atoms: C_27  and  O_28
REMARK                            x       y       z     vdW  Elec       q    Type
REMARK                         _______ _______ _______ _____ _____    ______ ____
ROOT
ATOM      1  C   UNL     1       2.945   7.436  18.006  0.00  0.00    +0.000 C 
ENDROOT
BRANCH   1   2
ATOM      2  C   UNL     1       1.857   8.412  17.509  0.00  0.00    +0.000 C 
BRANCH   2  11
ATOM      3  C   UNL     1      -2.103  11.229  17.192  0.00  0.00    +0.000 C 
ATOM      4  C   UNL     1      -1.770  11.261  18.657  0.00  0.00    +0.000 A 
ATOM      5  C   UNL     1      -2.364  12.214  19.492  0.00  0.00    +0.000 A 
ATOM      6  C   UNL     1      -1.957  12.317  20.822  0.00  0.00    +0.000 A 
ATOM      7  C   UNL     1      -0.957  11.492  21.335  0.00  0.00    +0.000 A 
ATOM      8  C   UNL     1      -0.332  10.560  20.501  0.00  0.00    +0.000 A 
ATOM      9  C   UNL     1      -0.757  10.439  19.171  0.00  0.00    +0.000 A 
ATOM     10  O   UNL     1      -0.151   9.573  18.287  0.00  0.00    +0.000 OA
ATOM     11  C   UNL     1       1.270   9.464  18.500  0.00  0.00    +0.000 C 
ATOM     12  C   UNL     1       1.918  10.841  18.251  0.00  0.00    +0.000 C 
ATOM     13  C   UNL     1       1.480   8.914  19.931  0.00  0.00    +0.000 C 
ATOM     14  C   UNL     1       0.874   9.818  21.002  0.00  0.00    +0.000 C 
BRANCH   6  15
ATOM     15  O   UNL     1      -2.478  13.265  21.651  0.00  0.00    +0.000 OA
ATOM     16  H   UNL     1      -2.353  14.137  21.241  0.00  0.00    +0.000 HD
ENDBRANCH   6  15
ENDBRANCH   2  11
ENDBRANCH   1   2
BRANCH   1  17
ATOM     17  C   UNL     1       4.378   7.799  17.607  0.00  0.00    +0.000 C 
BRANCH  17  18
ATOM     18  C   UNL     1       5.287   6.572  17.316  0.00  0.00    +0.000 C 
ATOM     19  C   UNL     1       6.745   6.981  17.567  0.00  0.00    +0.000 C 
BRANCH  18  20
ATOM     20  C   UNL     1       5.114   6.005  15.887  0.00  0.00    +0.000 C 
BRANCH  20  21
ATOM     21  C   UNL     1       4.517   4.589  15.806  0.00  0.00    +0.000 C 
BRANCH  21  22
ATOM     22  C   UNL     1       4.948   3.619  16.915  0.00  0.00    +0.000 C 
BRANCH  22  23
ATOM     23  C   UNL     1       3.950   3.428  18.086  0.00  0.00    +0.000 C 
ATOM     24  C   UNL     1       4.767   3.209  19.370  0.00  0.00    +0.000 C 
BRANCH  23  25
ATOM     25  C   UNL     1       2.977   2.255  17.822  0.00  0.00    +0.000 C 
BRANCH  25  26
ATOM     26  C   UNL     1       1.781   2.119  18.778  0.00  0.00    +0.000 C 
BRANCH  26  27
ATOM     27  C   UNL     1       1.123   3.426  19.248  0.00  0.00    +0.000 C 
BRANCH  27  28
ATOM     28  C   UNL     1       1.161   3.714  20.766  0.00  0.00    +0.000 C 
ATOM     29  C   UNL     1       1.448   2.458  21.597  0.00  0.00    +0.000 C 
BRANCH  28  30
ATOM     30  C   UNL     1       2.233   4.767  21.106  0.00  0.00    +0.000 C 
BRANCH  30  31
ATOM     31  O   UNL     1       1.713   6.087  21.024  0.00  0.00    +0.000 OA
ATOM     32  H   UNL     1       0.828   6.078  21.423  0.00  0.00    +0.000 HD
ENDBRANCH  30  31
ENDBRANCH  28  30
ENDBRANCH  27  28
ENDBRANCH  26  27
ENDBRANCH  25  26
ENDBRANCH  23  25
ENDBRANCH  22  23
ENDBRANCH  21  22
ENDBRANCH  20  21
ENDBRANCH  18  20
ENDBRANCH  17  18
ENDBRANCH   1  17
TORSDOF 15
ENDMDL
