MODEL 1
REMARK VINA RESULT:      -8.8      0.000      0.000
REMARK  Name = 
REMARK  5 active torsions:
REMARK  status: ('A' for Active; 'I' for Inactive)
REMARK    1  A    between atoms: O_1  and  C_2
REMARK    2  A    between atoms: C_7  and  C_8
REMARK    3  A    between atoms: C_20  and  C_21
REMARK    4  A    between atoms: C_21  and  C_22
REMARK    5  A    between atoms: C_22  and  C_23
REMARK                            x       y       z     vdW  Elec       q    Type
REMARK                         _______ _______ _______ _____ _____    ______ ____
ROOT
ATOM      1  C   UNL     1       0.548   9.963  20.189  0.00  0.00    +0.000 A 
ATOM      2  C   UNL     1       0.850  10.422  21.428  0.00  0.00    +0.000 A 
ATOM      3  N   UNL     1       0.098  11.400  22.107  0.00  0.00    +0.000 NA
ATOM      4  C   UNL     1      -0.985  11.935  21.540  0.00  0.00    +0.000 A 
ATOM      5  N   UNL     1      -1.780  12.892  22.204  0.00  0.00    +0.000 N 
ATOM      6  C   UNL     1      -3.227  13.100  22.075  0.00  0.00    +0.000 C 
ATOM      7  C   UNL     1      -3.509  14.565  21.735  0.00  0.00    +0.000 C 
ATOM      8  O   UNL     1      -2.954  15.455  22.715  0.00  0.00    +0.000 OA
ATOM      9  C   UNL     1      -1.537  15.239  22.788  0.00  0.00    +0.000 C 
ATOM     10  C   UNL     1      -1.208  13.803  23.197  0.00  0.00    +0.000 C 
ATOM     11  C   UNL     1      -1.366  11.464  20.183  0.00  0.00    +0.000 A 
ATOM     12  N   UNL     1      -2.387  11.837  19.408  0.00  0.00    +0.000 NA
ATOM     13  C   UNL     1      -2.269  11.104  18.241  0.00  0.00    +0.000 A 
ATOM     14  C   UNL     1      -1.165  10.293  18.344  0.00  0.00    +0.000 A 
ATOM     15  N   UNL     1      -0.584  10.515  19.567  0.00  0.00    +0.000 N 
ENDROOT
BRANCH   1  21
ATOM     16  C   UNL     1       3.868   5.083  18.945  0.00  0.00    +0.000 A 
ATOM     17  N   UNL     1       3.821   5.906  17.904  0.00  0.00    +0.000 NA
ATOM     18  C   UNL     1       3.016   7.021  18.279  0.00  0.00    +0.000 A 
ATOM     19  N   UNL     1       2.655   8.149  17.563  0.00  0.00    +0.000 NA
ATOM     20  C   UNL     1       1.849   9.064  18.215  0.00  0.00    +0.000 A 
ATOM     21  C   UNL     1       1.385   8.936  19.516  0.00  0.00    +0.000 A 
ATOM     22  C   UNL     1       1.768   7.782  20.208  0.00  0.00    +0.000 A 
ATOM     23  C   UNL     1       2.584   6.834  19.579  0.00  0.00    +0.000 A 
ATOM     24  N   UNL     1       3.122   5.624  19.982  0.00  0.00    +0.000 N 
ATOM     25  H   UNL     1       2.984   5.211  20.895  0.00  0.00    +0.000 HD
BRANCH  16  26
ATOM     26  O   UNL     1       4.509   3.903  19.059  0.00  0.00    +0.000 OA
ATOM     27  H   UNL     1       3.926   3.115  19.155  0.00  0.00    +0.000 HD
ENDBRANCH  16  26
ENDBRANCH   1  21
BRANCH  13  28
ATOM     28  C   UNL     1      -3.196  11.188  17.064  0.00  0.00    +0.000 C 
BRANCH  28  29
ATOM     29  C   UNL     1      -4.540  10.531  17.317  0.00  0.00    +0.000 C 
BRANCH  29  30
ATOM     30  C   UNL     1      -5.494  11.331  18.172  0.00  0.00    +0.000 A 
ATOM     31  C   UNL     1      -6.480  10.556  18.824  0.00  0.00    +0.000 A 
ATOM     32  C   UNL     1      -7.062  11.099  19.943  0.00  0.00    +0.000 A 
ATOM     33  C   UNL     1      -6.944  12.429  20.193  0.00  0.00    +0.000 A 
ATOM     34  C   UNL     1      -7.846  12.938  21.066  0.00  0.00    +0.000 A 
ATOM     35  C   UNL     1      -7.864  14.298  21.033  0.00  0.00    +0.000 A 
ATOM     36  C   UNL     1      -7.916  15.561  21.030  0.00  0.00    +0.000 A 
ATOM     37  C   UNL     1      -6.721  14.716  19.781  0.00  0.00    +0.000 A 
ATOM     38  C   UNL     1      -6.276  13.243  19.345  0.00  0.00    +0.000 A 
ATOM     39  N   UNL     1      -5.414  12.637  18.398  0.00  0.00    +0.000 NA
ENDBRANCH  29  30
ENDBRANCH  28  29
ENDBRANCH  13  28
TORSDOF 5
ENDMDL
MODEL 2
REMARK VINA RESULT:      -8.7      0.953      1.075
REMARK  Name = 
REMARK  5 active torsions:
REMARK  status: ('A' for Active; 'I' for Inactive)
REMARK    1  A    between atoms: O_1  and  C_2
REMARK    2  A    between atoms: C_7  and  C_8
REMARK    3  A    between atoms: C_20  and  C_21
REMARK    4  A    between atoms: C_21  and  C_22
REMARK    5  A    between atoms: C_22  and  C_23
REMARK                            x       y       z     vdW  Elec       q    Type
REMARK                         _______ _______ _______ _____ _____    ______ ____
ROOT
ATOM      1  C   UNL     1       0.839   9.741  19.897  0.00  0.00    +0.000 A 
ATOM      2  C   UNL     1       1.279  10.358  21.020  0.00  0.00    +0.000 A 
ATOM      3  N   UNL     1       0.582  11.396  21.670  0.00  0.00    +0.000 NA
ATOM      4  C   UNL     1      -0.584  11.831  21.190  0.00  0.00    +0.000 A 
ATOM      5  N   UNL     1      -1.324  12.844  21.833  0.00  0.00    +0.000 N 
ATOM      6  C   UNL     1      -2.783  13.002  21.873  0.00  0.00    +0.000 C 
ATOM      7  C   UNL     1      -3.164  14.405  21.399  0.00  0.00    +0.000 C 
ATOM      8  O   UNL     1      -2.522  15.423  22.182  0.00  0.00    +0.000 OA
ATOM      9  C   UNL     1      -1.101  15.251  22.092  0.00  0.00    +0.000 C 
ATOM     10  C   UNL     1      -0.665  13.885  22.624  0.00  0.00    +0.000 C 
ATOM     11  C   UNL     1      -1.118  11.185  19.962  0.00  0.00    +0.000 A 
ATOM     12  N   UNL     1      -2.244  11.435  19.290  0.00  0.00    +0.000 NA
ATOM     13  C   UNL     1      -2.248  10.565  18.214  0.00  0.00    +0.000 A 
ATOM     14  C   UNL     1      -1.109   9.799  18.268  0.00  0.00    +0.000 A 
ATOM     15  N   UNL     1      -0.384  10.185  19.368  0.00  0.00    +0.000 N 
ENDROOT
BRANCH   1  21
ATOM     16  C   UNL     1       3.955   4.699  18.781  0.00  0.00    +0.000 A 
ATOM     17  N   UNL     1       3.909   5.478  17.707  0.00  0.00    +0.000 NA
ATOM     18  C   UNL     1       3.152   6.635  18.054  0.00  0.00    +0.000 A 
ATOM     19  N   UNL     1       2.811   7.745  17.299  0.00  0.00    +0.000 NA
ATOM     20  C   UNL     1       2.055   8.714  17.931  0.00  0.00    +0.000 A 
ATOM     21  C   UNL     1       1.621   8.658  19.247  0.00  0.00    +0.000 A 
ATOM     22  C   UNL     1       1.983   7.521  19.979  0.00  0.00    +0.000 A 
ATOM     23  C   UNL     1       2.750   6.519  19.371  0.00  0.00    +0.000 A 
ATOM     24  N   UNL     1       3.256   5.309  19.813  0.00  0.00    +0.000 N 
ATOM     25  H   UNL     1       3.129   4.940  20.745  0.00  0.00    +0.000 HD
BRANCH  16  26
ATOM     26  O   UNL     1       4.558   3.503  18.930  0.00  0.00    +0.000 OA
ATOM     27  H   UNL     1       5.384   3.511  19.465  0.00  0.00    +0.000 HD
ENDBRANCH  16  26
ENDBRANCH   1  21
BRANCH  13  28
ATOM     28  C   UNL     1      -3.321  10.480  17.169  0.00  0.00    +0.000 C 
BRANCH  28  29
ATOM     29  C   UNL     1      -4.227  11.697  17.146  0.00  0.00    +0.000 C 
BRANCH  29  30
ATOM     30  C   UNL     1      -5.259  11.748  18.247  0.00  0.00    +0.000 A 
ATOM     31  C   UNL     1      -6.334  10.845  18.078  0.00  0.00    +0.000 A 
ATOM     32  C   UNL     1      -7.035  10.491  19.205  0.00  0.00    +0.000 A 
ATOM     33  C   UNL     1      -6.919  11.231  20.338  0.00  0.00    +0.000 A 
ATOM     34  C   UNL     1      -7.909  11.061  21.247  0.00  0.00    +0.000 A 
ATOM     35  C   UNL     1      -7.893  12.035  22.196  0.00  0.00    +0.000 A 
ATOM     36  C   UNL     1      -7.916  12.925  23.094  0.00  0.00    +0.000 A 
ATOM     37  C   UNL     1      -6.597  13.097  21.702  0.00  0.00    +0.000 A 
ATOM     38  C   UNL     1      -6.136  12.332  20.377  0.00  0.00    +0.000 A 
ATOM     39  N   UNL     1      -5.179  12.492  19.344  0.00  0.00    +0.000 NA
ENDBRANCH  29  30
ENDBRANCH  28  29
ENDBRANCH  13  28
TORSDOF 5
ENDMDL
MODEL 3
REMARK VINA RESULT:      -8.5      3.886      9.604
REMARK  Name = 
REMARK  5 active torsions:
REMARK  status: ('A' for Active; 'I' for Inactive)
REMARK    1  A    between atoms: O_1  and  C_2
REMARK    2  A    between atoms: C_7  and  C_8
REMARK    3  A    between atoms: C_20  and  C_21
REMARK    4  A    between atoms: C_21  and  C_22
REMARK    5  A    between atoms: C_22  and  C_23
REMARK                            x       y       z     vdW  Elec       q    Type
REMARK                         _______ _______ _______ _____ _____    ______ ____
ROOT
ATOM      1  C   UNL     1       0.014  14.187  20.478  0.00  0.00    +0.000 A 
ATOM      2  C   UNL     1       0.445  15.462  20.644  0.00  0.00    +0.000 A 
ATOM      3  N   UNL     1       1.649  15.959  20.107  0.00  0.00    +0.000 NA
ATOM      4  C   UNL     1       2.446  15.169  19.386  0.00  0.00    +0.000 A 
ATOM      5  N   UNL     1       3.641  15.642  18.807  0.00  0.00    +0.000 N 
ATOM      6  C   UNL     1       4.267  15.200  17.555  0.00  0.00    +0.000 C 
ATOM      7  C   UNL     1       5.721  14.805  17.816  0.00  0.00    +0.000 C 
ATOM      8  O   UNL     1       6.467  15.881  18.405  0.00  0.00    +0.000 OA
ATOM      9  C   UNL     1       5.840  16.261  19.638  0.00  0.00    +0.000 C 
ATOM     10  C   UNL     1       4.403  16.735  19.414  0.00  0.00    +0.000 C 
ATOM     11  C   UNL     1       2.019  13.761  19.168  0.00  0.00    +0.000 A 
ATOM     12  N   UNL     1       2.629  12.782  18.496  0.00  0.00    +0.000 NA
ATOM     13  C   UNL     1       1.816  11.670  18.621  0.00  0.00    +0.000 A 
ATOM     14  C   UNL     1       0.719  12.012  19.372  0.00  0.00    +0.000 A 
ATOM     15  N   UNL     1       0.838  13.333  19.727  0.00  0.00    +0.000 N 
ENDROOT
BRANCH   1  21
ATOM     16  C   UNL     1      -4.305  12.446  24.310  0.00  0.00    +0.000 A 
ATOM     17  N   UNL     1      -4.708  12.326  23.051  0.00  0.00    +0.000 NA
ATOM     18  C   UNL     1      -3.637  12.763  22.218  0.00  0.00    +0.000 A 
ATOM     19  N   UNL     1      -3.545  12.837  20.838  0.00  0.00    +0.000 NA
ATOM     20  C   UNL     1      -2.354  13.314  20.323  0.00  0.00    +0.000 A 
ATOM     21  C   UNL     1      -1.260  13.714  21.076  0.00  0.00    +0.000 A 
ATOM     22  C   UNL     1      -1.390  13.627  22.467  0.00  0.00    +0.000 A 
ATOM     23  C   UNL     1      -2.582  13.148  23.024  0.00  0.00    +0.000 A 
ATOM     24  N   UNL     1      -3.012  12.946  24.325  0.00  0.00    +0.000 N 
ATOM     25  H   UNL     1      -2.457  13.137  25.147  0.00  0.00    +0.000 HD
BRANCH  16  26
ATOM     26  O   UNL     1      -4.977  12.155  25.442  0.00  0.00    +0.000 OA
ATOM     27  H   UNL     1      -5.611  12.845  25.745  0.00  0.00    +0.000 HD
ENDBRANCH  16  26
ENDBRANCH   1  21
BRANCH  13  28
ATOM     28  C   UNL     1       2.095  10.318  18.030  0.00  0.00    +0.000 C 
BRANCH  28  29
ATOM     29  C   UNL     1       1.488   9.182  18.831  0.00  0.00    +0.000 C 
BRANCH  29  30
ATOM     30  C   UNL     1       2.204   7.858  18.707  0.00  0.00    +0.000 A 
ATOM     31  C   UNL     1       3.028   7.748  17.564  0.00  0.00    +0.000 A 
ATOM     32  C   UNL     1       4.041   6.821  17.611  0.00  0.00    +0.000 A 
ATOM     33  C   UNL     1       4.024   5.844  18.553  0.00  0.00    +0.000 A 
ATOM     34  C   UNL     1       4.813   4.773  18.294  0.00  0.00    +0.000 A 
ATOM     35  C   UNL     1       4.519   3.723  19.107  0.00  0.00    +0.000 A 
ATOM     36  C   UNL     1       4.273   2.723  19.840  0.00  0.00    +0.000 A 
ATOM     37  C   UNL     1       3.170   4.284  20.065  0.00  0.00    +0.000 A 
ATOM     38  C   UNL     1       3.012   5.749  19.444  0.00  0.00    +0.000 A 
ATOM     39  N   UNL     1       2.171   6.877  19.602  0.00  0.00    +0.000 NA
ENDBRANCH  29  30
ENDBRANCH  28  29
ENDBRANCH  13  28
TORSDOF 5
ENDMDL
MODEL 4
REMARK VINA RESULT:      -8.5      1.013      1.266
REMARK  Name = 
REMARK  5 active torsions:
REMARK  status: ('A' for Active; 'I' for Inactive)
REMARK    1  A    between atoms: O_1  and  C_2
REMARK    2  A    between atoms: C_7  and  C_8
REMARK    3  A    between atoms: C_20  and  C_21
REMARK    4  A    between atoms: C_21  and  C_22
REMARK    5  A    between atoms: C_22  and  C_23
REMARK                            x       y       z     vdW  Elec       q    Type
REMARK                         _______ _______ _______ _____ _____    ______ ____
ROOT
ATOM      1  C   UNL     1       0.852   9.759  20.071  0.00  0.00    +0.000 A 
ATOM      2  C   UNL     1       1.145  10.303  21.278  0.00  0.00    +0.000 A 
ATOM      3  N   UNL     1       0.496  11.437  21.806  0.00  0.00    +0.000 NA
ATOM      4  C   UNL     1      -0.470  12.045  21.116  0.00  0.00    +0.000 A 
ATOM      5  N   UNL     1      -1.162  13.161  21.628  0.00  0.00    +0.000 N 
ATOM      6  C   UNL     1      -2.558  13.542  21.380  0.00  0.00    +0.000 C 
ATOM      7  C   UNL     1      -2.619  14.987  20.882  0.00  0.00    +0.000 C 
ATOM      8  O   UNL     1      -2.002  15.895  21.806  0.00  0.00    +0.000 OA
ATOM      9  C   UNL     1      -0.634  15.506  21.997  0.00  0.00    +0.000 C 
ATOM     10  C   UNL     1      -0.527  14.090  22.565  0.00  0.00    +0.000 C 
ATOM     11  C   UNL     1      -0.836  11.488  19.787  0.00  0.00    +0.000 A 
ATOM     12  N   UNL     1      -1.752  11.907  18.912  0.00  0.00    +0.000 NA
ATOM     13  C   UNL     1      -1.670  11.047  17.832  0.00  0.00    +0.000 A 
ATOM     14  C   UNL     1      -0.696  10.114  18.089  0.00  0.00    +0.000 A 
ATOM     15  N   UNL     1      -0.158  10.385  19.322  0.00  0.00    +0.000 N 
ENDROOT
BRANCH   1  21
ATOM     16  C   UNL     1       3.431   4.337  19.497  0.00  0.00    +0.000 A 
ATOM     17  N   UNL     1       3.640   5.081  18.418  0.00  0.00    +0.000 NA
ATOM     18  C   UNL     1       2.995   6.334  18.633  0.00  0.00    +0.000 A 
ATOM     19  N   UNL     1       2.911   7.452  17.821  0.00  0.00    +0.000 NA
ATOM     20  C   UNL     1       2.200   8.527  18.321  0.00  0.00    +0.000 A 
ATOM     21  C   UNL     1       1.576   8.567  19.559  0.00  0.00    +0.000 A 
ATOM     22  C   UNL     1       1.681   7.419  20.351  0.00  0.00    +0.000 A 
ATOM     23  C   UNL     1       2.394   6.311  19.878  0.00  0.00    +0.000 A 
ATOM     24  N   UNL     1       2.673   5.061  20.405  0.00  0.00    +0.000 N 
ATOM     25  H   UNL     1       2.365   4.741  21.313  0.00  0.00    +0.000 HD
BRANCH  16  26
ATOM     26  O   UNL     1       3.848   3.081  19.749  0.00  0.00    +0.000 OA
ATOM     27  H   UNL     1       4.823   2.970  19.835  0.00  0.00    +0.000 HD
ENDBRANCH  16  26
ENDBRANCH   1  21
BRANCH  13  28
ATOM     28  C   UNL     1      -2.511  11.126  16.591  0.00  0.00    +0.000 C 
BRANCH  28  29
ATOM     29  C   UNL     1      -3.912  10.576  16.785  0.00  0.00    +0.000 C 
BRANCH  29  30
ATOM     30  C   UNL     1      -4.842  11.460  17.581  0.00  0.00    +0.000 A 
ATOM     31  C   UNL     1      -5.556  12.401  16.804  0.00  0.00    +0.000 A 
ATOM     32  C   UNL     1      -6.720  12.897  17.338  0.00  0.00    +0.000 A 
ATOM     33  C   UNL     1      -6.975  12.753  18.664  0.00  0.00    +0.000 A 
ATOM     34  C   UNL     1      -7.916  13.587  19.169  0.00  0.00    +0.000 A 
ATOM     35  C   UNL     1      -7.900  13.599  20.529  0.00  0.00    +0.000 A 
ATOM     36  C   UNL     1      -7.914  13.642  21.792  0.00  0.00    +0.000 A 
ATOM     37  C   UNL     1      -6.573  12.546  20.954  0.00  0.00    +0.000 A 
ATOM     38  C   UNL     1      -6.090  12.144  19.484  0.00  0.00    +0.000 A 
ATOM     39  N   UNL     1      -5.076  11.356  18.884  0.00  0.00    +0.000 NA
ENDBRANCH  29  30
ENDBRANCH  28  29
ENDBRANCH  13  28
TORSDOF 5
ENDMDL
MODEL 5
REMARK VINA RESULT:      -8.4      3.381      9.784
REMARK  Name = 
REMARK  5 active torsions:
REMARK  status: ('A' for Active; 'I' for Inactive)
REMARK    1  A    between atoms: O_1  and  C_2
REMARK    2  A    between atoms: C_7  and  C_8
REMARK    3  A    between atoms: C_20  and  C_21
REMARK    4  A    between atoms: C_21  and  C_22
REMARK    5  A    between atoms: C_22  and  C_23
REMARK                            x       y       z     vdW  Elec       q    Type
REMARK                         _______ _______ _______ _____ _____    ______ ____
ROOT
ATOM      1  C   UNL     1      -1.911  14.006  20.494  0.00  0.00    +0.000 A 
ATOM      2  C   UNL     1      -1.617  15.307  20.255  0.00  0.00    +0.000 A 
ATOM      3  N   UNL     1      -0.370  15.754  19.773  0.00  0.00    +0.000 NA
ATOM      4  C   UNL     1       0.609  14.883  19.521  0.00  0.00    +0.000 A 
ATOM      5  N   UNL     1       1.856  15.292  19.007  0.00  0.00    +0.000 N 
ATOM      6  C   UNL     1       2.747  14.541  18.114  0.00  0.00    +0.000 C 
ATOM      7  C   UNL     1       4.147  14.464  18.726  0.00  0.00    +0.000 C 
ATOM      8  O   UNL     1       4.681  15.769  18.997  0.00  0.00    +0.000 OA
ATOM      9  C   UNL     1       3.797  16.455  19.895  0.00  0.00    +0.000 C 
ATOM     10  C   UNL     1       2.401  16.620  19.292  0.00  0.00    +0.000 C 
ATOM     11  C   UNL     1       0.338  13.441  19.760  0.00  0.00    +0.000 A 
ATOM     12  N   UNL     1       1.138  12.386  19.591  0.00  0.00    +0.000 NA
ATOM     13  C   UNL     1       0.401  11.282  19.978  0.00  0.00    +0.000 A 
ATOM     14  C   UNL     1      -0.845  11.704  20.372  0.00  0.00    +0.000 A 
ATOM     15  N   UNL     1      -0.895  13.070  20.242  0.00  0.00    +0.000 N 
ENDROOT
BRANCH   1  21
ATOM     16  C   UNL     1      -6.802  13.180  23.925  0.00  0.00    +0.000 A 
ATOM     17  N   UNL     1      -6.905  12.515  22.781  0.00  0.00    +0.000 NA
ATOM     18  C   UNL     1      -5.719  12.770  22.032  0.00  0.00    +0.000 A 
ATOM     19  N   UNL     1      -5.331  12.320  20.782  0.00  0.00    +0.000 NA
ATOM     20  C   UNL     1      -4.102  12.754  20.322  0.00  0.00    +0.000 A 
ATOM     21  C   UNL     1      -3.241  13.593  21.013  0.00  0.00    +0.000 A 
ATOM     22  C   UNL     1      -3.666  14.030  22.272  0.00  0.00    +0.000 A 
ATOM     23  C   UNL     1      -4.906  13.610  22.771  0.00  0.00    +0.000 A 
ATOM     24  N   UNL     1      -5.592  13.858  23.947  0.00  0.00    +0.000 N 
ATOM     25  H   UNL     1      -5.251  14.443  24.697  0.00  0.00    +0.000 HD
BRANCH  16  26
ATOM     26  O   UNL     1      -7.679  13.241  24.947  0.00  0.00    +0.000 OA
ATOM     27  H   UNL     1      -8.416  12.589  24.909  0.00  0.00    +0.000 HD
ENDBRANCH  16  26
ENDBRANCH   1  21
BRANCH  13  28
ATOM     28  C   UNL     1       0.889   9.862  19.966  0.00  0.00    +0.000 C 
BRANCH  28  29
ATOM     29  C   UNL     1       1.268   9.375  18.579  0.00  0.00    +0.000 C 
BRANCH  29  30
ATOM     30  C   UNL     1       2.252   8.231  18.549  0.00  0.00    +0.000 A 
ATOM     31  C   UNL     1       2.169   7.365  19.663  0.00  0.00    +0.000 A 
ATOM     32  C   UNL     1       2.663   6.093  19.504  0.00  0.00    +0.000 A 
ATOM     33  C   UNL     1       3.486   5.809  18.461  0.00  0.00    +0.000 A 
ATOM     34  C   UNL     1       4.222   4.680  18.593  0.00  0.00    +0.000 A 
ATOM     35  C   UNL     1       5.224   4.624  17.674  0.00  0.00    +0.000 A 
ATOM     36  C   UNL     1       6.170   4.535  16.840  0.00  0.00    +0.000 A 
ATOM     37  C   UNL     1       5.094   6.130  16.800  0.00  0.00    +0.000 A 
ATOM     38  C   UNL     1       3.850   6.765  17.578  0.00  0.00    +0.000 A 
ATOM     39  N   UNL     1       3.088   7.960  17.554  0.00  0.00    +0.000 NA
ENDBRANCH  29  30
ENDBRANCH  28  29
ENDBRANCH  13  28
TORSDOF 5
ENDMDL
MODEL 6
REMARK VINA RESULT:      -8.4      9.984     12.791
REMARK  Name = 
REMARK  5 active torsions:
REMARK  status: ('A' for Active; 'I' for Inactive)
REMARK    1  A    between atoms: O_1  and  C_2
REMARK    2  A    between atoms: C_7  and  C_8
REMARK    3  A    between atoms: C_20  and  C_21
REMARK    4  A    between atoms: C_21  and  C_22
REMARK    5  A    between atoms: C_22  and  C_23
REMARK                            x       y       z     vdW  Elec       q    Type
REMARK                         _______ _______ _______ _____ _____    ______ ____
ROOT
ATOM      1  C   UNL     1       8.668  13.777  22.434  0.00  0.00    +0.000 A 
ATOM      2  C   UNL     1       8.917  15.110  22.433  0.00  0.00    +0.000 A 
ATOM      3  N   UNL     1       9.439  15.810  21.328  0.00  0.00    +0.000 NA
ATOM      4  C   UNL     1       9.721  15.169  20.193  0.00  0.00    +0.000 A 
ATOM      5  N   UNL     1      10.213  15.843  19.057  0.00  0.00    +0.000 N 
ATOM      6  C   UNL     1       9.984  15.510  17.646  0.00  0.00    +0.000 C 
ATOM      7  C   UNL     1      11.324  15.384  16.921  0.00  0.00    +0.000 C 
ATOM      8  O   UNL     1      12.107  16.581  17.038  0.00  0.00    +0.000 OA
ATOM      9  C   UNL     1      12.333  16.854  18.429  0.00  0.00    +0.000 C 
ATOM     10  C   UNL     1      11.018  17.060  19.182  0.00  0.00    +0.000 C 
ATOM     11  C   UNL     1       9.462  13.706  20.135  0.00  0.00    +0.000 A 
ATOM     12  N   UNL     1       9.657  12.846  19.133  0.00  0.00    +0.000 NA
ATOM     13  C   UNL     1       9.271  11.607  19.612  0.00  0.00    +0.000 A 
ATOM     14  C   UNL     1       8.841  11.754  20.908  0.00  0.00    +0.000 A 
ATOM     15  N   UNL     1       8.961  13.078  21.252  0.00  0.00    +0.000 N 
ENDROOT
BRANCH   1  21
ATOM     16  C   UNL     1       5.318  10.487  26.220  0.00  0.00    +0.000 A 
ATOM     17  N   UNL     1       6.312  11.088  26.862  0.00  0.00    +0.000 NA
ATOM     18  C   UNL     1       7.053  11.833  25.898  0.00  0.00    +0.000 A 
ATOM     19  N   UNL     1       8.176  12.629  26.048  0.00  0.00    +0.000 NA
ATOM     20  C   UNL     1       8.667  13.225  24.902  0.00  0.00    +0.000 A 
ATOM     21  C   UNL     1       8.125  13.088  23.633  0.00  0.00    +0.000 A 
ATOM     22  C   UNL     1       6.993  12.275  23.520  0.00  0.00    +0.000 A 
ATOM     23  C   UNL     1       6.466  11.655  24.659  0.00  0.00    +0.000 A 
ATOM     24  N   UNL     1       5.386  10.815  24.874  0.00  0.00    +0.000 N 
ATOM     25  H   UNL     1       4.754  10.498  24.151  0.00  0.00    +0.000 HD
BRANCH  16  26
ATOM     26  O   UNL     1       4.360   9.679  26.716  0.00  0.00    +0.000 OA
ATOM     27  H   UNL     1       4.165   9.796  27.674  0.00  0.00    +0.000 HD
ENDBRANCH  16  26
ENDBRANCH   1  21
BRANCH  13  28
ATOM     28  C   UNL     1       9.315  10.323  18.837  0.00  0.00    +0.000 C 
BRANCH  28  29
ATOM     29  C   UNL     1       7.991   9.976  18.183  0.00  0.00    +0.000 C 
BRANCH  29  30
ATOM     30  C   UNL     1       7.808   8.516  17.843  0.00  0.00    +0.000 A 
ATOM     31  C   UNL     1       8.486   7.629  18.710  0.00  0.00    +0.000 A 
ATOM     32  C   UNL     1       8.018   6.339  18.776  0.00  0.00    +0.000 A 
ATOM     33  C   UNL     1       7.185   5.869  17.812  0.00  0.00    +0.000 A 
ATOM     34  C   UNL     1       7.090   4.520  17.733  0.00  0.00    +0.000 A 
ATOM     35  C   UNL     1       6.494   4.125  16.576  0.00  0.00    +0.000 A 
ATOM     36  C   UNL     1       5.948   3.717  15.511  0.00  0.00    +0.000 A 
ATOM     37  C   UNL     1       6.204   5.614  15.709  0.00  0.00    +0.000 A 
ATOM     38  C   UNL     1       6.817   6.644  16.767  0.00  0.00    +0.000 A 
ATOM     39  N   UNL     1       7.024   8.041  16.882  0.00  0.00    +0.000 NA
ENDBRANCH  29  30
ENDBRANCH  28  29
ENDBRANCH  13  28
TORSDOF 5
ENDMDL
MODEL 7
REMARK VINA RESULT:      -8.4      5.673      8.473
REMARK  Name = 
REMARK  5 active torsions:
REMARK  status: ('A' for Active; 'I' for Inactive)
REMARK    1  A    between atoms: O_1  and  C_2
REMARK    2  A    between atoms: C_7  and  C_8
REMARK    3  A    between atoms: C_20  and  C_21
REMARK    4  A    between atoms: C_21  and  C_22
REMARK    5  A    between atoms: C_22  and  C_23
REMARK                            x       y       z     vdW  Elec       q    Type
REMARK                         _______ _______ _______ _____ _____    ______ ____
ROOT
ATOM      1  C   UNL     1       4.750  15.612  19.247  0.00  0.00    +0.000 A 
ATOM      2  C   UNL     1       4.589  16.904  18.868  0.00  0.00    +0.000 A 
ATOM      3  N   UNL     1       3.339  17.552  18.802  0.00  0.00    +0.000 NA
ATOM      4  C   UNL     1       2.221  16.898  19.122  0.00  0.00    +0.000 A 
ATOM      5  N   UNL     1       0.958  17.524  19.099  0.00  0.00    +0.000 N 
ATOM      6  C   UNL     1      -0.198  17.243  19.959  0.00  0.00    +0.000 C 
ATOM      7  C   UNL     1      -1.429  16.964  19.094  0.00  0.00    +0.000 C 
ATOM      8  O   UNL     1      -1.711  18.054  18.204  0.00  0.00    +0.000 OA
ATOM      9  C   UNL     1      -0.570  18.276  17.364  0.00  0.00    +0.000 C 
ATOM     10  C   UNL     1       0.671  18.630  18.184  0.00  0.00    +0.000 C 
ATOM     11  C   UNL     1       2.340  15.479  19.549  0.00  0.00    +0.000 A 
ATOM     12  N   UNL     1       1.388  14.617  19.913  0.00  0.00    +0.000 NA
ATOM     13  C   UNL     1       2.037  13.428  20.194  0.00  0.00    +0.000 A 
ATOM     14  C   UNL     1       3.384  13.606  19.994  0.00  0.00    +0.000 A 
ATOM     15  N   UNL     1       3.588  14.900  19.582  0.00  0.00    +0.000 N 
ENDROOT
BRANCH   1  21
ATOM     16  C   UNL     1       9.892  12.809  17.805  0.00  0.00    +0.000 A 
ATOM     17  N   UNL     1       9.832  13.053  19.108  0.00  0.00    +0.000 NA
ATOM     18  C   UNL     1       8.597  13.719  19.359  0.00  0.00    +0.000 A 
ATOM     19  N   UNL     1       8.054  14.189  20.543  0.00  0.00    +0.000 NA
ATOM     20  C   UNL     1       6.819  14.802  20.456  0.00  0.00    +0.000 A 
ATOM     21  C   UNL     1       6.093  14.977  19.288  0.00  0.00    +0.000 A 
ATOM     22  C   UNL     1       6.673  14.492  18.111  0.00  0.00    +0.000 A 
ATOM     23  C   UNL     1       7.924  13.864  18.160  0.00  0.00    +0.000 A 
ATOM     24  N   UNL     1       8.741  13.293  17.200  0.00  0.00    +0.000 N 
ATOM     25  H   UNL     1       8.520  13.243  16.215  0.00  0.00    +0.000 HD
BRANCH  16  26
ATOM     26  O   UNL     1      10.870  12.199  17.105  0.00  0.00    +0.000 OA
ATOM     27  H   UNL     1      11.385  11.523  17.603  0.00  0.00    +0.000 HD
ENDBRANCH  16  26
ENDBRANCH   1  21
BRANCH  13  28
ATOM     28  C   UNL     1       1.371  12.160  20.643  0.00  0.00    +0.000 C 
BRANCH  28  29
ATOM     29  C   UNL     1       0.634  11.446  19.525  0.00  0.00    +0.000 C 
BRANCH  29  30
ATOM     30  C   UNL     1       1.040  10.008  19.307  0.00  0.00    +0.000 A 
ATOM     31  C   UNL     1       1.389   9.699  17.972  0.00  0.00    +0.000 A 
ATOM     32  C   UNL     1       2.192   8.602  17.774  0.00  0.00    +0.000 A 
ATOM     33  C   UNL     1       2.343   7.684  18.764  0.00  0.00    +0.000 A 
ATOM     34  C   UNL     1       2.810   6.475  18.368  0.00  0.00    +0.000 A 
ATOM     35  C   UNL     1       2.649   5.533  19.336  0.00  0.00    +0.000 A 
ATOM     36  C   UNL     1       2.513   4.627  20.207  0.00  0.00    +0.000 A 
ATOM     37  C   UNL     1       1.823   6.375  20.624  0.00  0.00    +0.000 A 
ATOM     38  C   UNL     1       1.700   7.817  19.945  0.00  0.00    +0.000 A 
ATOM     39  N   UNL     1       1.159   9.088  20.257  0.00  0.00    +0.000 NA
ENDBRANCH  29  30
ENDBRANCH  28  29
ENDBRANCH  13  28
TORSDOF 5
ENDMDL
MODEL 8
REMARK VINA RESULT:      -8.4      3.446      9.446
REMARK  Name = 
REMARK  5 active torsions:
REMARK  status: ('A' for Active; 'I' for Inactive)
REMARK    1  A    between atoms: O_1  and  C_2
REMARK    2  A    between atoms: C_7  and  C_8
REMARK    3  A    between atoms: C_20  and  C_21
REMARK    4  A    between atoms: C_21  and  C_22
REMARK    5  A    between atoms: C_22  and  C_23
REMARK                            x       y       z     vdW  Elec       q    Type
REMARK                         _______ _______ _______ _____ _____    ______ ____
ROOT
ATOM      1  C   UNL     1      -1.632  13.992  20.471  0.00  0.00    +0.000 A 
ATOM      2  C   UNL     1      -1.162  15.249  20.664  0.00  0.00    +0.000 A 
ATOM      3  N   UNL     1       0.104  15.689  20.231  0.00  0.00    +0.000 NA
ATOM      4  C   UNL     1       0.925  14.856  19.587  0.00  0.00    +0.000 A 
ATOM      5  N   UNL     1       2.185  15.272  19.109  0.00  0.00    +0.000 N 
ATOM      6  C   UNL     1       2.897  14.790  17.920  0.00  0.00    +0.000 C 
ATOM      7  C   UNL     1       4.305  14.336  18.309  0.00  0.00    +0.000 C 
ATOM      8  O   UNL     1       5.043  15.385  18.952  0.00  0.00    +0.000 OA
ATOM      9  C   UNL     1       4.329  15.806  20.123  0.00  0.00    +0.000 C 
ATOM     10  C   UNL     1       2.938  16.338  19.772  0.00  0.00    +0.000 C 
ATOM     11  C   UNL     1       0.458  13.466  19.343  0.00  0.00    +0.000 A 
ATOM     12  N   UNL     1       1.080  12.455  18.734  0.00  0.00    +0.000 NA
ATOM     13  C   UNL     1       0.212  11.379  18.796  0.00  0.00    +0.000 A 
ATOM     14  C   UNL     1      -0.930  11.777  19.447  0.00  0.00    +0.000 A 
ATOM     15  N   UNL     1      -0.784  13.095  19.801  0.00  0.00    +0.000 N 
ENDROOT
BRANCH   1  21
ATOM     16  C   UNL     1      -6.562  13.092  23.827  0.00  0.00    +0.000 A 
ATOM     17  N   UNL     1      -6.671  12.489  22.649  0.00  0.00    +0.000 NA
ATOM     18  C   UNL     1      -5.474  12.758  21.922  0.00  0.00    +0.000 A 
ATOM     19  N   UNL     1      -5.087  12.364  20.652  0.00  0.00    +0.000 NA
ATOM     20  C   UNL     1      -3.846  12.796  20.223  0.00  0.00    +0.000 A 
ATOM     21  C   UNL     1      -2.973  13.580  20.961  0.00  0.00    +0.000 A 
ATOM     22  C   UNL     1      -3.398  13.960  22.238  0.00  0.00    +0.000 A 
ATOM     23  C   UNL     1      -4.649  13.541  22.707  0.00  0.00    +0.000 A 
ATOM     24  N   UNL     1      -5.338  13.742  23.891  0.00  0.00    +0.000 N 
ATOM     25  H   UNL     1      -4.991  14.280  24.672  0.00  0.00    +0.000 HD
BRANCH  16  26
ATOM     26  O   UNL     1      -7.444  13.117  24.846  0.00  0.00    +0.000 OA
ATOM     27  H   UNL     1      -8.391  13.162  24.581  0.00  0.00    +0.000 HD
ENDBRANCH  16  26
ENDBRANCH   1  21
BRANCH  13  28
ATOM     28  C   UNL     1       0.482  10.011  18.242  0.00  0.00    +0.000 C 
BRANCH  28  29
ATOM     29  C   UNL     1       1.948   9.624  18.296  0.00  0.00    +0.000 C 
BRANCH  29  30
ATOM     30  C   UNL     1       2.216   8.168  18.591  0.00  0.00    +0.000 A 
ATOM     31  C   UNL     1       3.029   7.522  17.633  0.00  0.00    +0.000 A 
ATOM     32  C   UNL     1       3.693   6.389  18.038  0.00  0.00    +0.000 A 
ATOM     33  C   UNL     1       3.312   5.749  19.174  0.00  0.00    +0.000 A 
ATOM     34  C   UNL     1       3.736   4.467  19.288  0.00  0.00    +0.000 A 
ATOM     35  C   UNL     1       3.077   3.806  20.277  0.00  0.00    +0.000 A 
ATOM     36  C   UNL     1       2.485   3.155  21.185  0.00  0.00    +0.000 A 
ATOM     37  C   UNL     1       1.921   4.969  20.877  0.00  0.00    +0.000 A 
ATOM     38  C   UNL     1       2.271   6.194  19.912  0.00  0.00    +0.000 A 
ATOM     39  N   UNL     1       1.821   7.517  19.679  0.00  0.00    +0.000 NA
ENDBRANCH  29  30
ENDBRANCH  28  29
ENDBRANCH  13  28
TORSDOF 5
ENDMDL
MODEL 9
REMARK VINA RESULT:      -8.4      1.665      1.897
REMARK  Name = 
REMARK  5 active torsions:
REMARK  status: ('A' for Active; 'I' for Inactive)
REMARK    1  A    between atoms: O_1  and  C_2
REMARK    2  A    between atoms: C_7  and  C_8
REMARK    3  A    between atoms: C_20  and  C_21
REMARK    4  A    between atoms: C_21  and  C_22
REMARK    5  A    between atoms: C_22  and  C_23
REMARK                            x       y       z     vdW  Elec       q    Type
REMARK                         _______ _______ _______ _____ _____    ______ ____
ROOT
ATOM      1  C   UNL     1       0.441  11.293  19.552  0.00  0.00    +0.000 A 
ATOM      2  C   UNL     1       1.078  12.269  20.244  0.00  0.00    +0.000 A 
ATOM      3  N   UNL     1       0.461  13.465  20.660  0.00  0.00    +0.000 NA
ATOM      4  C   UNL     1      -0.822  13.698  20.380  0.00  0.00    +0.000 A 
ATOM      5  N   UNL     1      -1.480  14.869  20.809  0.00  0.00    +0.000 N 
ATOM      6  C   UNL     1      -2.894  15.023  21.169  0.00  0.00    +0.000 C 
ATOM      7  C   UNL     1      -3.510  16.167  20.362  0.00  0.00    +0.000 C 
ATOM      8  O   UNL     1      -2.800  17.399  20.559  0.00  0.00    +0.000 OA
ATOM      9  C   UNL     1      -1.432  17.213  20.168  0.00  0.00    +0.000 C 
ATOM     10  C   UNL     1      -0.752  16.125  21.001  0.00  0.00    +0.000 C 
ATOM     11  C   UNL     1      -1.571  12.658  19.626  0.00  0.00    +0.000 A 
ATOM     12  N   UNL     1      -2.844  12.649  19.225  0.00  0.00    +0.000 NA
ATOM     13  C   UNL     1      -3.023  11.456  18.549  0.00  0.00    +0.000 A 
ATOM     14  C   UNL     1      -1.837  10.763  18.563  0.00  0.00    +0.000 A 
ATOM     15  N   UNL     1      -0.910  11.516  19.239  0.00  0.00    +0.000 N 
ENDROOT
BRANCH   1  21
ATOM     16  C   UNL     1       3.039   5.851  19.417  0.00  0.00    +0.000 A 
ATOM     17  N   UNL     1       3.170   6.471  18.250  0.00  0.00    +0.000 NA
ATOM     18  C   UNL     1       2.526   7.737  18.367  0.00  0.00    +0.000 A 
ATOM     19  N   UNL     1       2.377   8.757  17.443  0.00  0.00    +0.000 NA
ATOM     20  C   UNL     1       1.688   9.878  17.865  0.00  0.00    +0.000 A 
ATOM     21  C   UNL     1       1.145  10.054  19.129  0.00  0.00    +0.000 A 
ATOM     22  C   UNL     1       1.313   9.002  20.036  0.00  0.00    +0.000 A 
ATOM     23  C   UNL     1       2.006   7.851  19.643  0.00  0.00    +0.000 A 
ATOM     24  N   UNL     1       2.333   6.669  20.287  0.00  0.00    +0.000 N 
ATOM     25  H   UNL     1       2.089   6.451  21.243  0.00  0.00    +0.000 HD
BRANCH  16  26
ATOM     26  O   UNL     1       3.487   4.633  19.780  0.00  0.00    +0.000 OA
ATOM     27  H   UNL     1       3.026   4.226  20.549  0.00  0.00    +0.000 HD
ENDBRANCH  16  26
ENDBRANCH   1  21
BRANCH  13  28
ATOM     28  C   UNL     1      -4.303  11.002  17.910  0.00  0.00    +0.000 C 
BRANCH  28  29
ATOM     29  C   UNL     1      -5.375  12.077  17.894  0.00  0.00    +0.000 C 
BRANCH  29  30
ATOM     30  C   UNL     1      -6.134  12.243  19.189  0.00  0.00    +0.000 A 
ATOM     31  C   UNL     1      -7.058  11.207  19.456  0.00  0.00    +0.000 A 
ATOM     32  C   UNL     1      -7.428  11.023  20.767  0.00  0.00    +0.000 A 
ATOM     33  C   UNL     1      -7.188  11.996  21.683  0.00  0.00    +0.000 A 
ATOM     34  C   UNL     1      -7.914  11.910  22.824  0.00  0.00    +0.000 A 
ATOM     35  C   UNL     1      -7.849  13.061  23.548  0.00  0.00    +0.000 A 
ATOM     36  C   UNL     1      -7.818  14.113  24.248  0.00  0.00    +0.000 A 
ATOM     37  C   UNL     1      -6.883  14.135  22.567  0.00  0.00    +0.000 A 
ATOM     38  C   UNL     1      -6.605  13.162  21.328  0.00  0.00    +0.000 A 
ATOM     39  N   UNL     1      -5.937  13.208  20.079  0.00  0.00    +0.000 NA
ENDBRANCH  29  30
ENDBRANCH  28  29
ENDBRANCH  13  28
TORSDOF 5
ENDMDL
