MODEL 1
REMARK VINA RESULT:      -6.7      0.000      0.000
REMARK  Name = 
REMARK  12 active torsions:
REMARK  status: ('A' for Active; 'I' for Inactive)
REMARK    1  A    between atoms: C_1  and  C_2
REMARK    2  A    between atoms: C_2  and  C_3
REMARK    3  A    between atoms: C_3  and  C_4
REMARK    4  A    between atoms: C_4  and  O_5
REMARK    5  A    between atoms: O_5  and  C_6
REMARK    6  A    between atoms: C_9  and  C_10
REMARK    7  A    between atoms: N_13  and  C_14
REMARK    8  A    between atoms: C_14  and  C_15
REMARK    9  A    between atoms: C_14  and  C_16
REMARK   10  A    between atoms: C_16  and  O_18
REMARK   11  A    between atoms: O_18  and  C_19
REMARK   12  A    between atoms: C_19  and  C_20
REMARK                            x       y       z     vdW  Elec       q    Type
REMARK                         _______ _______ _______ _____ _____    ______ ____
ROOT
ATOM      1  C   UNL     1       2.771   5.995  18.402  0.00  0.00    +0.000 A 
ATOM      2  N   UNL     1       4.110   5.684  18.331  0.00  0.00    +0.000 NA
ATOM      3  N   UNL     1       4.193   4.382  18.099  0.00  0.00    +0.000 NA
ATOM      4  N   UNL     1       2.918   3.961  18.069  0.00  0.00    +0.000 N 
ATOM      5  N   UNL     1       1.983   4.926  18.181  0.00  0.00    +0.000 NA
ENDROOT
BRANCH   1   9
ATOM      6  C   UNL     1       1.297   9.928  19.240  0.00  0.00    +0.000 A 
ATOM      7  C   UNL     1       1.282   8.936  20.224  0.00  0.00    +0.000 A 
ATOM      8  C   UNL     1       1.773   7.653  19.950  0.00  0.00    +0.000 A 
ATOM      9  C   UNL     1       2.277   7.335  18.685  0.00  0.00    +0.000 A 
ATOM     10  C   UNL     1       2.279   8.329  17.698  0.00  0.00    +0.000 A 
ATOM     11  C   UNL     1       1.792   9.614  17.974  0.00  0.00    +0.000 A 
BRANCH   6  12
ATOM     12  O   UNL     1       0.856  11.219  19.404  0.00  0.00    +0.000 OA
BRANCH  12  13
ATOM     13  C   UNL     1      -0.555  11.360  19.580  0.00  0.00    +0.000 C 
BRANCH  13  14
ATOM     14  C   UNL     1      -1.264  11.450  18.229  0.00  0.00    +0.000 C 
BRANCH  14  16
ATOM     15  C   UNL     1      -2.485  10.022  16.530  0.00  0.00    +0.000 C 
ATOM     16  C   UNL     1      -2.067  10.172  17.981  0.00  0.00    +0.000 C 
ENDBRANCH  14  16
ENDBRANCH  13  14
ENDBRANCH  12  13
ENDBRANCH   6  12
ENDBRANCH   1   9
BRANCH   4  17
ATOM     17  C   UNL     1       2.548   2.571  17.878  0.00  0.00    +0.000 C 
ATOM     18  C   UNL     1       3.719   1.613  18.109  0.00  0.00    +0.000 C 
BRANCH  17  19
ATOM     19  C   UNL     1       1.395   2.235  18.795  0.00  0.00    +0.000 C 
ATOM     20  O   UNL     1       0.212   2.199  18.490  0.00  0.00    +0.000 OA
BRANCH  19  21
ATOM     21  O   UNL     1       1.866   2.014  20.061  0.00  0.00    +0.000 OA
BRANCH  21  22
ATOM     22  C   UNL     1       1.244   2.802  21.087  0.00  0.00    +0.000 C 
ATOM     23  C   UNL     1       2.253   3.837  21.554  0.00  0.00    +0.000 C 
ENDBRANCH  21  22
ENDBRANCH  19  21
ENDBRANCH  17  19
ENDBRANCH   4  17
TORSDOF 9
ENDMDL
MODEL 2
REMARK VINA RESULT:      -6.6      3.006      3.799
REMARK  Name = 
REMARK  12 active torsions:
REMARK  status: ('A' for Active; 'I' for Inactive)
REMARK    1  A    between atoms: C_1  and  C_2
REMARK    2  A    between atoms: C_2  and  C_3
REMARK    3  A    between atoms: C_3  and  C_4
REMARK    4  A    between atoms: C_4  and  O_5
REMARK    5  A    between atoms: O_5  and  C_6
REMARK    6  A    between atoms: C_9  and  C_10
REMARK    7  A    between atoms: N_13  and  C_14
REMARK    8  A    between atoms: C_14  and  C_15
REMARK    9  A    between atoms: C_14  and  C_16
REMARK   10  A    between atoms: C_16  and  O_18
REMARK   11  A    between atoms: O_18  and  C_19
REMARK   12  A    between atoms: C_19  and  C_20
REMARK                            x       y       z     vdW  Elec       q    Type
REMARK                         _______ _______ _______ _____ _____    ______ ____
ROOT
ATOM      1  C   UNL     1       3.264   6.368  18.417  0.00  0.00    +0.000 A 
ATOM      2  N   UNL     1       3.113   5.113  18.963  0.00  0.00    +0.000 NA
ATOM      3  N   UNL     1       4.007   4.327  18.380  0.00  0.00    +0.000 NA
ATOM      4  N   UNL     1       4.633   5.123  17.497  0.00  0.00    +0.000 N 
ATOM      5  N   UNL     1       4.266   6.419  17.520  0.00  0.00    +0.000 NA
ENDROOT
BRANCH   1   9
ATOM      6  C   UNL     1       0.784   9.691  19.490  0.00  0.00    +0.000 A 
ATOM      7  C   UNL     1       1.116   8.714  20.433  0.00  0.00    +0.000 A 
ATOM      8  C   UNL     1       1.935   7.634  20.082  0.00  0.00    +0.000 A 
ATOM      9  C   UNL     1       2.426   7.502  18.780  0.00  0.00    +0.000 A 
ATOM     10  C   UNL     1       2.080   8.476  17.834  0.00  0.00    +0.000 A 
ATOM     11  C   UNL     1       1.265   9.560  18.187  0.00  0.00    +0.000 A 
BRANCH   6  12
ATOM     12  O   UNL     1       0.003  10.796  19.729  0.00  0.00    +0.000 OA
BRANCH  12  13
ATOM     13  C   UNL     1      -0.186  11.659  18.605  0.00  0.00    +0.000 C 
BRANCH  13  14
ATOM     14  C   UNL     1      -1.673  11.881  18.335  0.00  0.00    +0.000 C 
BRANCH  14  16
ATOM     15  C   UNL     1      -2.189   9.993  16.727  0.00  0.00    +0.000 C 
ATOM     16  C   UNL     1      -2.368  10.532  18.133  0.00  0.00    +0.000 C 
ENDBRANCH  14  16
ENDBRANCH  13  14
ENDBRANCH  12  13
ENDBRANCH   6  12
ENDBRANCH   1   9
BRANCH   4  17
ATOM     17  C   UNL     1       5.674   4.648  16.605  0.00  0.00    +0.000 C 
ATOM     18  C   UNL     1       5.701   5.407  15.276  0.00  0.00    +0.000 C 
BRANCH  17  19
ATOM     19  C   UNL     1       7.009   4.750  17.304  0.00  0.00    +0.000 C 
ATOM     20  O   UNL     1       8.051   4.207  16.964  0.00  0.00    +0.000 OA
BRANCH  19  21
ATOM     21  O   UNL     1       6.881   5.519  18.429  0.00  0.00    +0.000 OA
BRANCH  21  22
ATOM     22  C   UNL     1       7.905   6.509  18.609  0.00  0.00    +0.000 C 
ATOM     23  C   UNL     1       7.650   7.627  17.613  0.00  0.00    +0.000 C 
ENDBRANCH  21  22
ENDBRANCH  19  21
ENDBRANCH  17  19
ENDBRANCH   4  17
TORSDOF 9
ENDMDL
MODEL 3
REMARK VINA RESULT:      -6.5      0.409      1.130
REMARK  Name = 
REMARK  12 active torsions:
REMARK  status: ('A' for Active; 'I' for Inactive)
REMARK    1  A    between atoms: C_1  and  C_2
REMARK    2  A    between atoms: C_2  and  C_3
REMARK    3  A    between atoms: C_3  and  C_4
REMARK    4  A    between atoms: C_4  and  O_5
REMARK    5  A    between atoms: O_5  and  C_6
REMARK    6  A    between atoms: C_9  and  C_10
REMARK    7  A    between atoms: N_13  and  C_14
REMARK    8  A    between atoms: C_14  and  C_15
REMARK    9  A    between atoms: C_14  and  C_16
REMARK   10  A    between atoms: C_16  and  O_18
REMARK   11  A    between atoms: O_18  and  C_19
REMARK   12  A    between atoms: C_19  and  C_20
REMARK                            x       y       z     vdW  Elec       q    Type
REMARK                         _______ _______ _______ _____ _____    ______ ____
ROOT
ATOM      1  C   UNL     1       2.657   6.076  18.306  0.00  0.00    +0.000 A 
ATOM      2  N   UNL     1       3.980   5.835  18.008  0.00  0.00    +0.000 NA
ATOM      3  N   UNL     1       4.087   4.540  17.750  0.00  0.00    +0.000 NA
ATOM      4  N   UNL     1       2.848   4.054  17.927  0.00  0.00    +0.000 N 
ATOM      5  N   UNL     1       1.898   4.969  18.206  0.00  0.00    +0.000 NA
ENDROOT
BRANCH   1   9
ATOM      6  C   UNL     1       1.186   9.944  19.412  0.00  0.00    +0.000 A 
ATOM      7  C   UNL     1       1.588   9.682  18.100  0.00  0.00    +0.000 A 
ATOM      8  C   UNL     1       2.060   8.414  17.739  0.00  0.00    +0.000 A 
ATOM      9  C   UNL     1       2.150   7.388  18.684  0.00  0.00    +0.000 A 
ATOM     10  C   UNL     1       1.758   7.658  20.002  0.00  0.00    +0.000 A 
ATOM     11  C   UNL     1       1.281   8.926  20.362  0.00  0.00    +0.000 A 
BRANCH   6  12
ATOM     12  O   UNL     1       0.696  11.143  19.871  0.00  0.00    +0.000 OA
BRANCH  12  13
ATOM     13  C   UNL     1      -0.729  11.245  19.895  0.00  0.00    +0.000 C 
BRANCH  13  14
ATOM     14  C   UNL     1      -1.218  12.263  18.866  0.00  0.00    +0.000 C 
BRANCH  14  16
ATOM     15  C   UNL     1      -2.189  10.102  17.969  0.00  0.00    +0.000 C 
ATOM     16  C   UNL     1      -1.797  11.532  17.652  0.00  0.00    +0.000 C 
ENDBRANCH  14  16
ENDBRANCH  13  14
ENDBRANCH  12  13
ENDBRANCH   6  12
ENDBRANCH   1   9
BRANCH   4  17
ATOM     17  C   UNL     1       2.522   2.647  17.784  0.00  0.00    +0.000 C 
ATOM     18  C   UNL     1       3.732   1.737  18.003  0.00  0.00    +0.000 C 
BRANCH  17  19
ATOM     19  C   UNL     1       1.410   2.297  18.745  0.00  0.00    +0.000 C 
ATOM     20  O   UNL     1       0.215   2.251  18.488  0.00  0.00    +0.000 OA
BRANCH  19  21
ATOM     21  O   UNL     1       1.933   2.074  19.990  0.00  0.00    +0.000 OA
BRANCH  21  22
ATOM     22  C   UNL     1       1.277   2.773  21.058  0.00  0.00    +0.000 C 
ATOM     23  C   UNL     1       2.202   3.884  21.523  0.00  0.00    +0.000 C 
ENDBRANCH  21  22
ENDBRANCH  19  21
ENDBRANCH  17  19
ENDBRANCH   4  17
TORSDOF 9
ENDMDL
MODEL 4
REMARK VINA RESULT:      -6.5      3.129      4.245
REMARK  Name = 
REMARK  12 active torsions:
REMARK  status: ('A' for Active; 'I' for Inactive)
REMARK    1  A    between atoms: C_1  and  C_2
REMARK    2  A    between atoms: C_2  and  C_3
REMARK    3  A    between atoms: C_3  and  C_4
REMARK    4  A    between atoms: C_4  and  O_5
REMARK    5  A    between atoms: O_5  and  C_6
REMARK    6  A    between atoms: C_9  and  C_10
REMARK    7  A    between atoms: N_13  and  C_14
REMARK    8  A    between atoms: C_14  and  C_15
REMARK    9  A    between atoms: C_14  and  C_16
REMARK   10  A    between atoms: C_16  and  O_18
REMARK   11  A    between atoms: O_18  and  C_19
REMARK   12  A    between atoms: C_19  and  C_20
REMARK                            x       y       z     vdW  Elec       q    Type
REMARK                         _______ _______ _______ _____ _____    ______ ____
ROOT
ATOM      1  C   UNL     1       2.927   6.494  18.123  0.00  0.00    +0.000 A 
ATOM      2  N   UNL     1       2.295   5.284  17.942  0.00  0.00    +0.000 NA
ATOM      3  N   UNL     1       3.188   4.456  17.420  0.00  0.00    +0.000 NA
ATOM      4  N   UNL     1       4.300   5.198  17.283  0.00  0.00    +0.000 N 
ATOM      5  N   UNL     1       4.224   6.454  17.766  0.00  0.00    +0.000 NA
ENDROOT
BRANCH   1   9
ATOM      6  C   UNL     1       0.932   9.957  19.663  0.00  0.00    +0.000 A 
ATOM      7  C   UNL     1       1.250   8.885  20.501  0.00  0.00    +0.000 A 
ATOM      8  C   UNL     1       1.910   7.758  19.997  0.00  0.00    +0.000 A 
ATOM      9  C   UNL     1       2.255   7.676  18.645  0.00  0.00    +0.000 A 
ATOM     10  C   UNL     1       1.923   8.748  17.805  0.00  0.00    +0.000 A 
ATOM     11  C   UNL     1       1.267   9.878  18.311  0.00  0.00    +0.000 A 
BRANCH   6  12
ATOM     12  O   UNL     1       0.301  11.114  20.054  0.00  0.00    +0.000 OA
BRANCH  12  13
ATOM     13  C   UNL     1      -1.061  10.954  20.456  0.00  0.00    +0.000 C 
BRANCH  13  14
ATOM     14  C   UNL     1      -1.486  12.083  21.394  0.00  0.00    +0.000 C 
BRANCH  14  16
ATOM     15  C   UNL     1      -0.898  10.303  23.098  0.00  0.00    +0.000 C 
ATOM     16  C   UNL     1      -0.989  11.790  22.811  0.00  0.00    +0.000 C 
ENDBRANCH  14  16
ENDBRANCH  13  14
ENDBRANCH  12  13
ENDBRANCH   6  12
ENDBRANCH   1   9
BRANCH   4  17
ATOM     17  C   UNL     1       5.527   4.684  16.703  0.00  0.00    +0.000 C 
ATOM     18  C   UNL     1       5.878   5.360  15.376  0.00  0.00    +0.000 C 
BRANCH  17  19
ATOM     19  C   UNL     1       6.651   4.847  17.699  0.00  0.00    +0.000 C 
ATOM     20  O   UNL     1       6.765   4.264  18.767  0.00  0.00    +0.000 OA
BRANCH  19  21
ATOM     21  O   UNL     1       7.527   5.798  17.249  0.00  0.00    +0.000 OA
BRANCH  21  22
ATOM     22  C   UNL     1       7.853   6.823  18.200  0.00  0.00    +0.000 C 
ATOM     23  C   UNL     1       7.690   8.165  17.509  0.00  0.00    +0.000 C 
ENDBRANCH  21  22
ENDBRANCH  19  21
ENDBRANCH  17  19
ENDBRANCH   4  17
TORSDOF 9
ENDMDL
MODEL 5
REMARK VINA RESULT:      -6.4      3.276      4.203
REMARK  Name = 
REMARK  12 active torsions:
REMARK  status: ('A' for Active; 'I' for Inactive)
REMARK    1  A    between atoms: C_1  and  C_2
REMARK    2  A    between atoms: C_2  and  C_3
REMARK    3  A    between atoms: C_3  and  C_4
REMARK    4  A    between atoms: C_4  and  O_5
REMARK    5  A    between atoms: O_5  and  C_6
REMARK    6  A    between atoms: C_9  and  C_10
REMARK    7  A    between atoms: N_13  and  C_14
REMARK    8  A    between atoms: C_14  and  C_15
REMARK    9  A    between atoms: C_14  and  C_16
REMARK   10  A    between atoms: C_16  and  O_18
REMARK   11  A    between atoms: O_18  and  C_19
REMARK   12  A    between atoms: C_19  and  C_20
REMARK                            x       y       z     vdW  Elec       q    Type
REMARK                         _______ _______ _______ _____ _____    ______ ____
ROOT
ATOM      1  C   UNL     1       3.609   6.262  18.466  0.00  0.00    +0.000 A 
ATOM      2  N   UNL     1       3.772   5.152  19.265  0.00  0.00    +0.000 NA
ATOM      3  N   UNL     1       4.658   4.371  18.666  0.00  0.00    +0.000 NA
ATOM      4  N   UNL     1       4.969   5.018  17.531  0.00  0.00    +0.000 N 
ATOM      5  N   UNL     1       4.404   6.232  17.380  0.00  0.00    +0.000 NA
ENDROOT
BRANCH   1   9
ATOM      6  C   UNL     1       0.856   9.413  19.378  0.00  0.00    +0.000 A 
ATOM      7  C   UNL     1       1.132   8.413  20.315  0.00  0.00    +0.000 A 
ATOM      8  C   UNL     1       2.039   7.389  20.017  0.00  0.00    +0.000 A 
ATOM      9  C   UNL     1       2.679   7.338  18.775  0.00  0.00    +0.000 A 
ATOM     10  C   UNL     1       2.390   8.336  17.835  0.00  0.00    +0.000 A 
ATOM     11  C   UNL     1       1.486   9.363  18.134  0.00  0.00    +0.000 A 
BRANCH   6  12
ATOM     12  O   UNL     1      -0.003  10.469  19.570  0.00  0.00    +0.000 OA
BRANCH  12  13
ATOM     13  C   UNL     1      -1.133  10.496  18.696  0.00  0.00    +0.000 C 
BRANCH  13  14
ATOM     14  C   UNL     1      -1.398  11.915  18.195  0.00  0.00    +0.000 C 
BRANCH  14  16
ATOM     15  C   UNL     1      -0.044  14.025  18.556  0.00  0.00    +0.000 C 
ATOM     16  C   UNL     1      -0.863  12.928  19.209  0.00  0.00    +0.000 C 
ENDBRANCH  14  16
ENDBRANCH  13  14
ENDBRANCH  12  13
ENDBRANCH   6  12
ENDBRANCH   1   9
BRANCH   4  17
ATOM     17  C   UNL     1       5.889   4.486  16.543  0.00  0.00    +0.000 C 
ATOM     18  C   UNL     1       5.573   4.967  15.125  0.00  0.00    +0.000 C 
BRANCH  17  19
ATOM     19  C   UNL     1       7.301   4.858  16.931  0.00  0.00    +0.000 C 
ATOM     20  O   UNL     1       8.167   4.097  17.338  0.00  0.00    +0.000 OA
BRANCH  19  21
ATOM     21  O   UNL     1       7.471   6.210  16.802  0.00  0.00    +0.000 OA
BRANCH  21  22
ATOM     22  C   UNL     1       7.825   6.896  18.012  0.00  0.00    +0.000 C 
ATOM     23  C   UNL     1       7.765   8.388  17.735  0.00  0.00    +0.000 C 
ENDBRANCH  21  22
ENDBRANCH  19  21
ENDBRANCH  17  19
ENDBRANCH   4  17
TORSDOF 9
ENDMDL
MODEL 6
REMARK VINA RESULT:      -6.3      1.185      1.393
REMARK  Name = 
REMARK  12 active torsions:
REMARK  status: ('A' for Active; 'I' for Inactive)
REMARK    1  A    between atoms: C_1  and  C_2
REMARK    2  A    between atoms: C_2  and  C_3
REMARK    3  A    between atoms: C_3  and  C_4
REMARK    4  A    between atoms: C_4  and  O_5
REMARK    5  A    between atoms: O_5  and  C_6
REMARK    6  A    between atoms: C_9  and  C_10
REMARK    7  A    between atoms: N_13  and  C_14
REMARK    8  A    between atoms: C_14  and  C_15
REMARK    9  A    between atoms: C_14  and  C_16
REMARK   10  A    between atoms: C_16  and  O_18
REMARK   11  A    between atoms: O_18  and  C_19
REMARK   12  A    between atoms: C_19  and  C_20
REMARK                            x       y       z     vdW  Elec       q    Type
REMARK                         _______ _______ _______ _____ _____    ______ ____
ROOT
ATOM      1  C   UNL     1       3.082   6.871  18.185  0.00  0.00    +0.000 A 
ATOM      2  N   UNL     1       4.150   6.975  17.321  0.00  0.00    +0.000 NA
ATOM      3  N   UNL     1       4.633   5.752  17.155  0.00  0.00    +0.000 NA
ATOM      4  N   UNL     1       3.865   4.974  17.936  0.00  0.00    +0.000 N 
ATOM      5  N   UNL     1       2.839   5.598  18.549  0.00  0.00    +0.000 NA
ENDROOT
BRANCH   1   9
ATOM      6  C   UNL     1       0.797  10.232  19.535  0.00  0.00    +0.000 A 
ATOM      7  C   UNL     1       0.974   9.114  20.354  0.00  0.00    +0.000 A 
ATOM      8  C   UNL     1       1.729   8.020  19.914  0.00  0.00    +0.000 A 
ATOM      9  C   UNL     1       2.311   8.018  18.643  0.00  0.00    +0.000 A 
ATOM     10  C   UNL     1       2.121   9.135  17.820  0.00  0.00    +0.000 A 
ATOM     11  C   UNL     1       1.370  10.232  18.262  0.00  0.00    +0.000 A 
BRANCH   6  12
ATOM     12  O   UNL     1       0.090  11.362  19.871  0.00  0.00    +0.000 OA
BRANCH  12  13
ATOM     13  C   UNL     1      -1.308  11.310  19.582  0.00  0.00    +0.000 C 
BRANCH  13  14
ATOM     14  C   UNL     1      -1.635  12.119  18.329  0.00  0.00    +0.000 C 
BRANCH  14  16
ATOM     15  C   UNL     1      -2.051   9.917  17.147  0.00  0.00    +0.000 C 
ATOM     16  C   UNL     1      -2.571  11.315  17.424  0.00  0.00    +0.000 C 
ENDBRANCH  14  16
ENDBRANCH  13  14
ENDBRANCH  12  13
ENDBRANCH   6  12
ENDBRANCH   1   9
BRANCH   4  17
ATOM     17  C   UNL     1       4.078   3.547  18.084  0.00  0.00    +0.000 C 
ATOM     18  C   UNL     1       4.584   3.169  19.478  0.00  0.00    +0.000 C 
BRANCH  17  19
ATOM     19  C   UNL     1       2.792   2.819  17.768  0.00  0.00    +0.000 C 
ATOM     20  O   UNL     1       2.152   2.894  16.729  0.00  0.00    +0.000 OA
BRANCH  19  21
ATOM     21  O   UNL     1       2.408   2.076  18.851  0.00  0.00    +0.000 OA
BRANCH  21  22
ATOM     22  C   UNL     1       1.037   2.242  19.246  0.00  0.00    +0.000 C 
ATOM     23  C   UNL     1       1.005   3.204  20.420  0.00  0.00    +0.000 C 
ENDBRANCH  21  22
ENDBRANCH  19  21
ENDBRANCH  17  19
ENDBRANCH   4  17
TORSDOF 9
ENDMDL
MODEL 7
REMARK VINA RESULT:      -6.3      1.206      1.749
REMARK  Name = 
REMARK  12 active torsions:
REMARK  status: ('A' for Active; 'I' for Inactive)
REMARK    1  A    between atoms: C_1  and  C_2
REMARK    2  A    between atoms: C_2  and  C_3
REMARK    3  A    between atoms: C_3  and  C_4
REMARK    4  A    between atoms: C_4  and  O_5
REMARK    5  A    between atoms: O_5  and  C_6
REMARK    6  A    between atoms: C_9  and  C_10
REMARK    7  A    between atoms: N_13  and  C_14
REMARK    8  A    between atoms: C_14  and  C_15
REMARK    9  A    between atoms: C_14  and  C_16
REMARK   10  A    between atoms: C_16  and  O_18
REMARK   11  A    between atoms: O_18  and  C_19
REMARK   12  A    between atoms: C_19  and  C_20
REMARK                            x       y       z     vdW  Elec       q    Type
REMARK                         _______ _______ _______ _____ _____    ______ ____
ROOT
ATOM      1  C   UNL     1       3.070   6.916  18.166  0.00  0.00    +0.000 A 
ATOM      2  N   UNL     1       4.144   7.033  17.311  0.00  0.00    +0.000 NA
ATOM      3  N   UNL     1       4.636   5.815  17.140  0.00  0.00    +0.000 NA
ATOM      4  N   UNL     1       3.869   5.027  17.912  0.00  0.00    +0.000 N 
ATOM      5  N   UNL     1       2.835   5.640  18.522  0.00  0.00    +0.000 NA
ENDROOT
BRANCH   1   9
ATOM      6  C   UNL     1       0.788  10.281  19.514  0.00  0.00    +0.000 A 
ATOM      7  C   UNL     1       1.364  10.273  18.241  0.00  0.00    +0.000 A 
ATOM      8  C   UNL     1       2.102   9.168  17.799  0.00  0.00    +0.000 A 
ATOM      9  C   UNL     1       2.289   8.056  18.625  0.00  0.00    +0.000 A 
ATOM     10  C   UNL     1       1.721   8.073  19.906  0.00  0.00    +0.000 A 
ATOM     11  C   UNL     1       0.977   9.176  20.346  0.00  0.00    +0.000 A 
BRANCH   6  12
ATOM     12  O   UNL     1       0.035  11.302  20.042  0.00  0.00    +0.000 OA
BRANCH  12  13
ATOM     13  C   UNL     1      -1.359  11.251  19.729  0.00  0.00    +0.000 C 
BRANCH  13  14
ATOM     14  C   UNL     1      -1.692  12.202  18.581  0.00  0.00    +0.000 C 
BRANCH  14  16
ATOM     15  C   UNL     1      -2.431   9.946  17.697  0.00  0.00    +0.000 C 
ATOM     16  C   UNL     1      -2.152  11.399  17.362  0.00  0.00    +0.000 C 
ENDBRANCH  14  16
ENDBRANCH  13  14
ENDBRANCH  12  13
ENDBRANCH   6  12
ENDBRANCH   1   9
BRANCH   4  17
ATOM     17  C   UNL     1       4.091   3.600  18.054  0.00  0.00    +0.000 C 
ATOM     18  C   UNL     1       4.621   3.222  19.439  0.00  0.00    +0.000 C 
BRANCH  17  19
ATOM     19  C   UNL     1       2.804   2.867  17.757  0.00  0.00    +0.000 C 
ATOM     20  O   UNL     1       2.160   2.922  16.719  0.00  0.00    +0.000 OA
BRANCH  19  21
ATOM     21  O   UNL     1       2.422   2.147  18.856  0.00  0.00    +0.000 OA
BRANCH  21  22
ATOM     22  C   UNL     1       1.042   2.285  19.224  0.00  0.00    +0.000 C 
ATOM     23  C   UNL     1       0.962   3.279  20.369  0.00  0.00    +0.000 C 
ENDBRANCH  21  22
ENDBRANCH  19  21
ENDBRANCH  17  19
ENDBRANCH   4  17
TORSDOF 9
ENDMDL
MODEL 8
REMARK VINA RESULT:      -6.3      3.296      3.956
REMARK  Name = 
REMARK  12 active torsions:
REMARK  status: ('A' for Active; 'I' for Inactive)
REMARK    1  A    between atoms: C_1  and  C_2
REMARK    2  A    between atoms: C_2  and  C_3
REMARK    3  A    between atoms: C_3  and  C_4
REMARK    4  A    between atoms: C_4  and  O_5
REMARK    5  A    between atoms: O_5  and  C_6
REMARK    6  A    between atoms: C_9  and  C_10
REMARK    7  A    between atoms: N_13  and  C_14
REMARK    8  A    between atoms: C_14  and  C_15
REMARK    9  A    between atoms: C_14  and  C_16
REMARK   10  A    between atoms: C_16  and  O_18
REMARK   11  A    between atoms: O_18  and  C_19
REMARK   12  A    between atoms: C_19  and  C_20
REMARK                            x       y       z     vdW  Elec       q    Type
REMARK                         _______ _______ _______ _____ _____    ______ ____
ROOT
ATOM      1  C   UNL     1       3.460   5.779  17.722  0.00  0.00    +0.000 A 
ATOM      2  N   UNL     1       2.951   4.500  17.724  0.00  0.00    +0.000 NA
ATOM      3  N   UNL     1       3.819   3.738  17.075  0.00  0.00    +0.000 NA
ATOM      4  N   UNL     1       4.789   4.582  16.688  0.00  0.00    +0.000 N 
ATOM      5  N   UNL     1       4.661   5.852  17.118  0.00  0.00    +0.000 NA
ENDROOT
BRANCH   1   9
ATOM      6  C   UNL     1       1.401   9.108  19.461  0.00  0.00    +0.000 A 
ATOM      7  C   UNL     1       1.695   7.974  20.222  0.00  0.00    +0.000 A 
ATOM      8  C   UNL     1       2.376   6.891  19.654  0.00  0.00    +0.000 A 
ATOM      9  C   UNL     1       2.766   6.916  18.311  0.00  0.00    +0.000 A 
ATOM     10  C   UNL     1       2.459   8.049  17.548  0.00  0.00    +0.000 A 
ATOM     11  C   UNL     1       1.782   9.136  18.118  0.00  0.00    +0.000 A 
BRANCH   6  12
ATOM     12  O   UNL     1       0.753  10.230  19.919  0.00  0.00    +0.000 OA
BRANCH  12  13
ATOM     13  C   UNL     1      -0.673  10.137  19.946  0.00  0.00    +0.000 C 
BRANCH  13  14
ATOM     14  C   UNL     1      -1.289  10.911  18.782  0.00  0.00    +0.000 C 
BRANCH  14  16
ATOM     15  C   UNL     1      -0.394  13.233  18.307  0.00  0.00    +0.000 C 
ATOM     16  C   UNL     1      -1.357  12.400  19.131  0.00  0.00    +0.000 C 
ENDBRANCH  14  16
ENDBRANCH  13  14
ENDBRANCH  12  13
ENDBRANCH   6  12
ENDBRANCH   1   9
BRANCH   4  17
ATOM     17  C   UNL     1       5.934   4.163  15.901  0.00  0.00    +0.000 C 
ATOM     18  C   UNL     1       5.659   4.198  14.396  0.00  0.00    +0.000 C 
BRANCH  17  19
ATOM     19  C   UNL     1       7.118   5.036  16.247  0.00  0.00    +0.000 C 
ATOM     20  O   UNL     1       7.425   6.090  15.709  0.00  0.00    +0.000 OA
BRANCH  19  21
ATOM     21  O   UNL     1       7.846   4.445  17.244  0.00  0.00    +0.000 OA
BRANCH  21  22
ATOM     22  C   UNL     1       7.446   4.796  18.578  0.00  0.00    +0.000 C 
ATOM     23  C   UNL     1       7.879   6.229  18.831  0.00  0.00    +0.000 C 
ENDBRANCH  21  22
ENDBRANCH  19  21
ENDBRANCH  17  19
ENDBRANCH   4  17
TORSDOF 9
ENDMDL
MODEL 9
REMARK VINA RESULT:      -6.3      3.356      4.146
REMARK  Name = 
REMARK  12 active torsions:
REMARK  status: ('A' for Active; 'I' for Inactive)
REMARK    1  A    between atoms: C_1  and  C_2
REMARK    2  A    between atoms: C_2  and  C_3
REMARK    3  A    between atoms: C_3  and  C_4
REMARK    4  A    between atoms: C_4  and  O_5
REMARK    5  A    between atoms: O_5  and  C_6
REMARK    6  A    between atoms: C_9  and  C_10
REMARK    7  A    between atoms: N_13  and  C_14
REMARK    8  A    between atoms: C_14  and  C_15
REMARK    9  A    between atoms: C_14  and  C_16
REMARK   10  A    between atoms: C_16  and  O_18
REMARK   11  A    between atoms: O_18  and  C_19
REMARK   12  A    between atoms: C_19  and  C_20
REMARK                            x       y       z     vdW  Elec       q    Type
REMARK                         _______ _______ _______ _____ _____    ______ ____
ROOT
ATOM      1  C   UNL     1       3.630   5.746  17.960  0.00  0.00    +0.000 A 
ATOM      2  N   UNL     1       3.412   4.437  18.327  0.00  0.00    +0.000 NA
ATOM      3  N   UNL     1       4.258   3.694  17.627  0.00  0.00    +0.000 NA
ATOM      4  N   UNL     1       4.922   4.571  16.856  0.00  0.00    +0.000 N 
ATOM      5  N   UNL     1       4.627   5.869  17.065  0.00  0.00    +0.000 NA
ENDROOT
BRANCH   1   9
ATOM      6  C   UNL     1       1.345   9.015  19.523  0.00  0.00    +0.000 A 
ATOM      7  C   UNL     1       1.628   7.899  20.315  0.00  0.00    +0.000 A 
ATOM      8  C   UNL     1       2.383   6.836  19.805  0.00  0.00    +0.000 A 
ATOM      9  C   UNL     1       2.859   6.862  18.490  0.00  0.00    +0.000 A 
ATOM     10  C   UNL     1       2.561   7.977  17.695  0.00  0.00    +0.000 A 
ATOM     11  C   UNL     1       1.810   9.043  18.208  0.00  0.00    +0.000 A 
BRANCH   6  12
ATOM     12  O   UNL     1       0.628  10.116  19.925  0.00  0.00    +0.000 OA
BRANCH  12  13
ATOM     13  C   UNL     1      -0.549  10.385  19.161  0.00  0.00    +0.000 C 
BRANCH  13  14
ATOM     14  C   UNL     1      -1.385  11.481  19.820  0.00  0.00    +0.000 C 
BRANCH  14  16
ATOM     15  C   UNL     1      -1.376  11.736  22.340  0.00  0.00    +0.000 C 
ATOM     16  C   UNL     1      -0.647  12.029  21.043  0.00  0.00    +0.000 C 
ENDBRANCH  14  16
ENDBRANCH  13  14
ENDBRANCH  12  13
ENDBRANCH   6  12
ENDBRANCH   1   9
BRANCH   4  17
ATOM     17  C   UNL     1       5.929   4.171  15.892  0.00  0.00    +0.000 C 
ATOM     18  C   UNL     1       5.457   4.336  14.445  0.00  0.00    +0.000 C 
BRANCH  17  19
ATOM     19  C   UNL     1       7.191   4.966  16.135  0.00  0.00    +0.000 C 
ATOM     20  O   UNL     1       7.531   5.985  15.552  0.00  0.00    +0.000 OA
BRANCH  19  21
ATOM     21  O   UNL     1       7.944   4.347  17.096  0.00  0.00    +0.000 OA
BRANCH  21  22
ATOM     22  C   UNL     1       7.615   4.701  18.447  0.00  0.00    +0.000 C 
ATOM     23  C   UNL     1       7.837   6.195  18.604  0.00  0.00    +0.000 C 
ENDBRANCH  21  22
ENDBRANCH  19  21
ENDBRANCH  17  19
ENDBRANCH   4  17
TORSDOF 9
ENDMDL
