MODEL 1
REMARK VINA RESULT:      -5.4      0.000      0.000
REMARK  Name = 
REMARK  4 active torsions:
REMARK  status: ('A' for Active; 'I' for Inactive)
REMARK    1  A    between atoms: C_1  and  O_2
REMARK    2  A    between atoms: O_2  and  C_3
REMARK    3  A    between atoms: C_10  and  C_11
REMARK    4  A    between atoms: C_11  and  N_12
REMARK                            x       y       z     vdW  Elec       q    Type
REMARK                         _______ _______ _______ _____ _____    ______ ____
ROOT
ATOM      1  C   UNL     1       6.032   4.594  18.290  0.00  0.00    +0.000 A 
ATOM      2  C   UNL     1       5.068   4.781  19.291  0.00  0.00    +0.000 A 
ATOM      3  C   UNL     1       3.711   4.697  18.979  0.00  0.00    +0.000 A 
ATOM      4 BR   UNL     1       2.430   4.910  20.353  0.00  0.00    +0.000 Br
ATOM      5  C   UNL     1       3.315   4.461  17.670  0.00  0.00    +0.000 A 
ATOM      6  F   UNL     1       2.016   4.367  17.351  0.00  0.00    +0.000 F 
ATOM      7  C   UNL     1       4.263   4.323  16.661  0.00  0.00    +0.000 A 
ATOM      8  C   UNL     1       5.639   4.379  16.955  0.00  0.00    +0.000 A 
ENDROOT
BRANCH   1  10
ATOM      9  C   UNL     1       7.839   5.829  19.188  0.00  0.00    +0.000 C 
ATOM     10  O   UNL     1       7.380   4.643  18.540  0.00  0.00    +0.000 OA
ENDBRANCH   1  10
BRANCH   8  11
ATOM     11  C   UNL     1       6.661   4.291  15.842  0.00  0.00    +0.000 C 
BRANCH  11  12
ATOM     12  N   UNL     1       7.350   5.559  15.598  0.00  0.00    +0.000 NA
ATOM     13  H   UNL     1       8.012   5.717  16.357  0.00  0.00    +0.000 HD
ATOM     14  H   UNL     1       6.671   6.316  15.656  0.00  0.00    +0.000 HD
ENDBRANCH  11  12
ENDBRANCH   8  11
TORSDOF 3
ENDMDL
MODEL 2
REMARK VINA RESULT:      -5.4      1.761      1.976
REMARK  Name = 
REMARK  4 active torsions:
REMARK  status: ('A' for Active; 'I' for Inactive)
REMARK    1  A    between atoms: C_1  and  O_2
REMARK    2  A    between atoms: O_2  and  C_3
REMARK    3  A    between atoms: C_10  and  C_11
REMARK    4  A    between atoms: C_11  and  N_12
REMARK                            x       y       z     vdW  Elec       q    Type
REMARK                         _______ _______ _______ _____ _____    ______ ____
ROOT
ATOM      1  C   UNL     1       4.688   3.791  18.652  0.00  0.00    +0.000 A 
ATOM      2  C   UNL     1       3.922   3.537  19.800  0.00  0.00    +0.000 A 
ATOM      3  C   UNL     1       2.577   3.186  19.679  0.00  0.00    +0.000 A 
ATOM      4 BR   UNL     1       1.576   2.807  21.237  0.00  0.00    +0.000 Br
ATOM      5  C   UNL     1       1.989   3.121  18.424  0.00  0.00    +0.000 A 
ATOM      6  F   UNL     1       0.700   2.776  18.286  0.00  0.00    +0.000 F 
ATOM      7  C   UNL     1       2.728   3.419  17.283  0.00  0.00    +0.000 A 
ATOM      8  C   UNL     1       4.092   3.751  17.377  0.00  0.00    +0.000 A 
ENDROOT
BRANCH   1  10
ATOM      9  C   UNL     1       6.312   5.395  19.273  0.00  0.00    +0.000 C 
ATOM     10  O   UNL     1       6.019   4.118  18.707  0.00  0.00    +0.000 OA
ENDBRANCH   1  10
BRANCH   8  11
ATOM     11  C   UNL     1       4.871   4.135  16.137  0.00  0.00    +0.000 C 
BRANCH  11  12
ATOM     12  N   UNL     1       5.982   3.224  15.855  0.00  0.00    +0.000 NA
ATOM     13  H   UNL     1       5.748   2.306  16.232  0.00  0.00    +0.000 HD
ATOM     14  H   UNL     1       6.801   3.539  16.371  0.00  0.00    +0.000 HD
ENDBRANCH  11  12
ENDBRANCH   8  11
TORSDOF 3
ENDMDL
MODEL 3
REMARK VINA RESULT:      -5.3      1.856      2.741
REMARK  Name = 
REMARK  4 active torsions:
REMARK  status: ('A' for Active; 'I' for Inactive)
REMARK    1  A    between atoms: C_1  and  O_2
REMARK    2  A    between atoms: O_2  and  C_3
REMARK    3  A    between atoms: C_10  and  C_11
REMARK    4  A    between atoms: C_11  and  N_12
REMARK                            x       y       z     vdW  Elec       q    Type
REMARK                         _______ _______ _______ _____ _____    ______ ____
ROOT
ATOM      1  C   UNL     1       5.242   4.139  16.974  0.00  0.00    +0.000 A 
ATOM      2  C   UNL     1       3.915   3.711  17.132  0.00  0.00    +0.000 A 
ATOM      3  C   UNL     1       3.192   4.079  18.267  0.00  0.00    +0.000 A 
ATOM      4 BR   UNL     1       1.393   3.525  18.439  0.00  0.00    +0.000 Br
ATOM      5  C   UNL     1       3.797   4.842  19.256  0.00  0.00    +0.000 A 
ATOM      6  F   UNL     1       3.117   5.214  20.349  0.00  0.00    +0.000 F 
ATOM      7  C   UNL     1       5.128   5.231  19.131  0.00  0.00    +0.000 A 
ATOM      8  C   UNL     1       5.870   4.893  17.984  0.00  0.00    +0.000 A 
ENDROOT
BRANCH   1  10
ATOM      9  C   UNL     1       5.614   4.490  14.665  0.00  0.00    +0.000 C 
ATOM     10  O   UNL     1       5.995   3.828  15.871  0.00  0.00    +0.000 OA
ENDBRANCH   1  10
BRANCH   8  11
ATOM     11  C   UNL     1       7.334   5.266  17.886  0.00  0.00    +0.000 C 
BRANCH  11  12
ATOM     12  N   UNL     1       8.208   4.106  17.702  0.00  0.00    +0.000 NA
ATOM     13  H   UNL     1       7.864   3.348  18.290  0.00  0.00    +0.000 HD
ATOM     14  H   UNL     1       9.135   4.337  18.053  0.00  0.00    +0.000 HD
ENDBRANCH  11  12
ENDBRANCH   8  11
TORSDOF 3
ENDMDL
MODEL 4
REMARK VINA RESULT:      -5.1      1.984      2.906
REMARK  Name = 
REMARK  4 active torsions:
REMARK  status: ('A' for Active; 'I' for Inactive)
REMARK    1  A    between atoms: C_1  and  O_2
REMARK    2  A    between atoms: O_2  and  C_3
REMARK    3  A    between atoms: C_10  and  C_11
REMARK    4  A    between atoms: C_11  and  N_12
REMARK                            x       y       z     vdW  Elec       q    Type
REMARK                         _______ _______ _______ _____ _____    ______ ____
ROOT
ATOM      1  C   UNL     1       5.723   4.479  17.260  0.00  0.00    +0.000 A 
ATOM      2  C   UNL     1       4.377   4.126  17.086  0.00  0.00    +0.000 A 
ATOM      3  C   UNL     1       3.432   4.478  18.050  0.00  0.00    +0.000 A 
ATOM      4 BR   UNL     1       1.616   4.029  17.774  0.00  0.00    +0.000 Br
ATOM      5  C   UNL     1       3.830   5.150  19.197  0.00  0.00    +0.000 A 
ATOM      6  F   UNL     1       2.936   5.505  20.131  0.00  0.00    +0.000 F 
ATOM      7  C   UNL     1       5.171   5.461  19.402  0.00  0.00    +0.000 A 
ATOM      8  C   UNL     1       6.139   5.138  18.432  0.00  0.00    +0.000 A 
ENDROOT
BRANCH   1  10
ATOM      9  C   UNL     1       6.249   4.115  14.983  0.00  0.00    +0.000 C 
ATOM     10  O   UNL     1       6.693   4.180  16.337  0.00  0.00    +0.000 OA
ENDBRANCH   1  10
BRANCH   8  11
ATOM     11  C   UNL     1       7.603   5.424  18.692  0.00  0.00    +0.000 C 
BRANCH  11  12
ATOM     12  N   UNL     1       7.926   5.499  20.119  0.00  0.00    +0.000 NA
ATOM     13  H   UNL     1       8.936   5.591  20.215  0.00  0.00    +0.000 HD
ATOM     14  H   UNL     1       7.681   4.613  20.555  0.00  0.00    +0.000 HD
ENDBRANCH  11  12
ENDBRANCH   8  11
TORSDOF 3
ENDMDL
MODEL 5
REMARK VINA RESULT:      -5.1      1.682      1.722
REMARK  Name = 
REMARK  4 active torsions:
REMARK  status: ('A' for Active; 'I' for Inactive)
REMARK    1  A    between atoms: C_1  and  O_2
REMARK    2  A    between atoms: O_2  and  C_3
REMARK    3  A    between atoms: C_10  and  C_11
REMARK    4  A    between atoms: C_11  and  N_12
REMARK                            x       y       z     vdW  Elec       q    Type
REMARK                         _______ _______ _______ _____ _____    ______ ____
ROOT
ATOM      1  C   UNL     1       6.292   5.971  16.861  0.00  0.00    +0.000 A 
ATOM      2  C   UNL     1       5.295   6.430  17.734  0.00  0.00    +0.000 A 
ATOM      3  C   UNL     1       4.097   5.726  17.859  0.00  0.00    +0.000 A 
ATOM      4 BR   UNL     1       2.785   6.339  19.074  0.00  0.00    +0.000 Br
ATOM      5  C   UNL     1       3.879   4.589  17.093  0.00  0.00    +0.000 A 
ATOM      6  F   UNL     1       2.738   3.893  17.205  0.00  0.00    +0.000 F 
ATOM      7  C   UNL     1       4.842   4.154  16.188  0.00  0.00    +0.000 A 
ATOM      8  C   UNL     1       6.069   4.833  16.062  0.00  0.00    +0.000 A 
ENDROOT
BRANCH   1  10
ATOM      9  C   UNL     1       7.668   7.786  17.499  0.00  0.00    +0.000 C 
ATOM     10  O   UNL     1       7.498   6.608  16.713  0.00  0.00    +0.000 OA
ENDBRANCH   1  10
BRANCH   8  11
ATOM     11  C   UNL     1       7.083   4.390  15.030  0.00  0.00    +0.000 C 
BRANCH  11  12
ATOM     12  N   UNL     1       7.514   5.477  14.149  0.00  0.00    +0.000 NA
ATOM     13  H   UNL     1       8.510   5.635  14.297  0.00  0.00    +0.000 HD
ATOM     14  H   UNL     1       7.047   6.334  14.437  0.00  0.00    +0.000 HD
ENDBRANCH  11  12
ENDBRANCH   8  11
TORSDOF 3
ENDMDL
MODEL 6
REMARK VINA RESULT:      -5.1      3.046      3.889
REMARK  Name = 
REMARK  4 active torsions:
REMARK  status: ('A' for Active; 'I' for Inactive)
REMARK    1  A    between atoms: C_1  and  O_2
REMARK    2  A    between atoms: O_2  and  C_3
REMARK    3  A    between atoms: C_10  and  C_11
REMARK    4  A    between atoms: C_11  and  N_12
REMARK                            x       y       z     vdW  Elec       q    Type
REMARK                         _______ _______ _______ _____ _____    ______ ____
ROOT
ATOM      1  C   UNL     1       3.661   4.422  18.145  0.00  0.00    +0.000 A 
ATOM      2  C   UNL     1       3.315   5.713  17.719  0.00  0.00    +0.000 A 
ATOM      3  C   UNL     1       2.668   6.587  18.593  0.00  0.00    +0.000 A 
ATOM      4 BR   UNL     1       2.249   8.336  18.010  0.00  0.00    +0.000 Br
ATOM      5  C   UNL     1       2.337   6.167  19.874  0.00  0.00    +0.000 A 
ATOM      6  F   UNL     1       1.723   6.995  20.731  0.00  0.00    +0.000 F 
ATOM      7  C   UNL     1       2.633   4.872  20.289  0.00  0.00    +0.000 A 
ATOM      8  C   UNL     1       3.307   3.980  19.435  0.00  0.00    +0.000 A 
ENDROOT
BRANCH   1  10
ATOM      9  C   UNL     1       5.358   4.078  16.533  0.00  0.00    +0.000 C 
ATOM     10  O   UNL     1       4.318   3.526  17.340  0.00  0.00    +0.000 OA
ENDBRANCH   1  10
BRANCH   8  11
ATOM     11  C   UNL     1       3.568   2.555  19.873  0.00  0.00    +0.000 C 
BRANCH  11  12
ATOM     12  N   UNL     1       4.991   2.213  19.888  0.00  0.00    +0.000 NA
ATOM     13  H   UNL     1       5.256   1.981  20.845  0.00  0.00    +0.000 HD
ATOM     14  H   UNL     1       5.528   3.041  19.640  0.00  0.00    +0.000 HD
ENDBRANCH  11  12
ENDBRANCH   8  11
TORSDOF 3
ENDMDL
MODEL 7
REMARK VINA RESULT:      -5.1      3.422      4.069
REMARK  Name = 
REMARK  4 active torsions:
REMARK  status: ('A' for Active; 'I' for Inactive)
REMARK    1  A    between atoms: C_1  and  O_2
REMARK    2  A    between atoms: O_2  and  C_3
REMARK    3  A    between atoms: C_10  and  C_11
REMARK    4  A    between atoms: C_11  and  N_12
REMARK                            x       y       z     vdW  Elec       q    Type
REMARK                         _______ _______ _______ _____ _____    ______ ____
ROOT
ATOM      1  C   UNL     1       2.540   4.009  19.333  0.00  0.00    +0.000 A 
ATOM      2  C   UNL     1       2.262   5.378  19.211  0.00  0.00    +0.000 A 
ATOM      3  C   UNL     1       2.914   6.140  18.242  0.00  0.00    +0.000 A 
ATOM      4 BR   UNL     1       2.492   7.975  18.067  0.00  0.00    +0.000 Br
ATOM      5  C   UNL     1       3.864   5.550  17.420  0.00  0.00    +0.000 A 
ATOM      6  F   UNL     1       4.495   6.263  16.476  0.00  0.00    +0.000 F 
ATOM      7  C   UNL     1       4.183   4.203  17.566  0.00  0.00    +0.000 A 
ATOM      8  C   UNL     1       3.520   3.407  18.520  0.00  0.00    +0.000 A 
ENDROOT
BRANCH   1  10
ATOM      9  C   UNL     1       2.136   3.550  21.618  0.00  0.00    +0.000 C 
ATOM     10  O   UNL     1       1.915   3.204  20.252  0.00  0.00    +0.000 OA
ENDBRANCH   1  10
BRANCH   8  11
ATOM     11  C   UNL     1       3.918   1.960  18.715  0.00  0.00    +0.000 C 
BRANCH  11  12
ATOM     12  N   UNL     1       4.855   1.770  19.824  0.00  0.00    +0.000 NA
ATOM     13  H   UNL     1       4.375   1.264  20.567  0.00  0.00    +0.000 HD
ATOM     14  H   UNL     1       5.092   2.681  20.211  0.00  0.00    +0.000 HD
ENDBRANCH  11  12
ENDBRANCH   8  11
TORSDOF 3
ENDMDL
MODEL 8
REMARK VINA RESULT:      -5.0      3.807      4.750
REMARK  Name = 
REMARK  4 active torsions:
REMARK  status: ('A' for Active; 'I' for Inactive)
REMARK    1  A    between atoms: C_1  and  O_2
REMARK    2  A    between atoms: O_2  and  C_3
REMARK    3  A    between atoms: C_10  and  C_11
REMARK    4  A    between atoms: C_11  and  N_12
REMARK                            x       y       z     vdW  Elec       q    Type
REMARK                         _______ _______ _______ _____ _____    ______ ____
ROOT
ATOM      1  C   UNL     1       3.417   3.927  19.041  0.00  0.00    +0.000 A 
ATOM      2  C   UNL     1       4.191   4.372  17.959  0.00  0.00    +0.000 A 
ATOM      3  C   UNL     1       4.117   5.703  17.548  0.00  0.00    +0.000 A 
ATOM      4 BR   UNL     1       5.200   6.291  16.114  0.00  0.00    +0.000 Br
ATOM      5  C   UNL     1       3.253   6.579  18.191  0.00  0.00    +0.000 A 
ATOM      6  F   UNL     1       3.175   7.865  17.817  0.00  0.00    +0.000 F 
ATOM      7  C   UNL     1       2.446   6.135  19.234  0.00  0.00    +0.000 A 
ATOM      8  C   UNL     1       2.521   4.802  19.682  0.00  0.00    +0.000 A 
ENDROOT
BRANCH   1  10
ATOM      9  C   UNL     1       3.444   1.625  18.497  0.00  0.00    +0.000 C 
ATOM     10  O   UNL     1       3.464   2.636  19.504  0.00  0.00    +0.000 OA
ENDBRANCH   1  10
BRANCH   8  11
ATOM     11  C   UNL     1       1.594   4.313  20.774  0.00  0.00    +0.000 C 
BRANCH  11  12
ATOM     12  N   UNL     1       0.591   3.363  20.288  0.00  0.00    +0.000 NA
ATOM     13  H   UNL     1      -0.329   3.791  20.382  0.00  0.00    +0.000 HD
ATOM     14  H   UNL     1       0.588   2.550  20.902  0.00  0.00    +0.000 HD
ENDBRANCH  11  12
ENDBRANCH   8  11
TORSDOF 3
ENDMDL
MODEL 9
REMARK VINA RESULT:      -5.0      1.881      2.834
REMARK  Name = 
REMARK  4 active torsions:
REMARK  status: ('A' for Active; 'I' for Inactive)
REMARK    1  A    between atoms: C_1  and  O_2
REMARK    2  A    between atoms: O_2  and  C_3
REMARK    3  A    between atoms: C_10  and  C_11
REMARK    4  A    between atoms: C_11  and  N_12
REMARK                            x       y       z     vdW  Elec       q    Type
REMARK                         _______ _______ _______ _____ _____    ______ ____
ROOT
ATOM      1  C   UNL     1       5.990   4.659  16.815  0.00  0.00    +0.000 A 
ATOM      2  C   UNL     1       4.897   3.781  16.781  0.00  0.00    +0.000 A 
ATOM      3  C   UNL     1       4.036   3.693  17.876  0.00  0.00    +0.000 A 
ATOM      4 BR   UNL     1       2.545   2.534  17.792  0.00  0.00    +0.000 Br
ATOM      5  C   UNL     1       4.281   4.452  19.012  0.00  0.00    +0.000 A 
ATOM      6  F   UNL     1       3.461   4.389  20.071  0.00  0.00    +0.000 F 
ATOM      7  C   UNL     1       5.391   5.290  19.074  0.00  0.00    +0.000 A 
ATOM      8  C   UNL     1       6.259   5.414  17.973  0.00  0.00    +0.000 A 
ENDROOT
BRANCH   1  10
ATOM      9  C   UNL     1       6.440   4.198  14.539  0.00  0.00    +0.000 C 
ATOM     10  O   UNL     1       6.857   4.805  15.762  0.00  0.00    +0.000 OA
ENDBRANCH   1  10
BRANCH   8  11
ATOM     11  C   UNL     1       7.497   6.279  18.073  0.00  0.00    +0.000 C 
BRANCH  11  12
ATOM     12  N   UNL     1       7.494   7.393  17.122  0.00  0.00    +0.000 NA
ATOM     13  H   UNL     1       7.232   7.033  16.205  0.00  0.00    +0.000 HD
ATOM     14  H   UNL     1       8.445   7.742  17.026  0.00  0.00    +0.000 HD
ENDBRANCH  11  12
ENDBRANCH   8  11
TORSDOF 3
ENDMDL
