MODEL 1
REMARK VINA RESULT:      -8.2      0.000      0.000
REMARK  Name = 
REMARK  3 active torsions:
REMARK  status: ('A' for Active; 'I' for Inactive)
REMARK    1  A    between atoms: C_2  and  C_3
REMARK    2  A    between atoms: C_3  and  C_15
REMARK    3  A    between atoms: C_4  and  C_5
REMARK                            x       y       z     vdW  Elec       q    Type
REMARK                         _______ _______ _______ _____ _____    ______ ____
ROOT
ATOM      1  C   UNL     1       2.121   7.521  19.114  0.00  0.00    +0.000 C 
ATOM      2  C   UNL     1       2.745   7.235  17.948  0.00  0.00    +0.000 C 
ENDROOT
BRANCH   1   3
ATOM      3  C   UNL     1       1.536   8.800  19.406  0.00  0.00    +0.000 A 
ATOM      4  C   UNL     1       1.549   9.876  18.538  0.00  0.00    +0.000 A 
ATOM      5  N   UNL     1       0.917  10.925  19.147  0.00  0.00    +0.000 N 
ATOM      6  C   UNL     1       0.494  10.562  20.406  0.00  0.00    +0.000 A 
ATOM      7  C   UNL     1      -0.178  11.307  21.383  0.00  0.00    +0.000 A 
ATOM      8 BR   UNL     1      -0.653  13.112  21.088  0.00  0.00    +0.000 Br
ATOM      9  C   UNL     1      -0.490  10.688  22.593  0.00  0.00    +0.000 A 
ATOM     10  C   UNL     1      -0.136   9.361  22.818  0.00  0.00    +0.000 A 
ATOM     11  C   UNL     1       0.540   8.625  21.836  0.00  0.00    +0.000 A 
ATOM     12  C   UNL     1       0.862   9.227  20.599  0.00  0.00    +0.000 A 
ATOM     13  H   UNL     1       0.777  11.843  18.746  0.00  0.00    +0.000 HD
ENDBRANCH   1   3
BRANCH   2  14
ATOM     14  C   UNL     1       3.380   5.939  17.635  0.00  0.00    +0.000 A 
ATOM     15  C   UNL     1       2.567   4.794  17.609  0.00  0.00    +0.000 A 
ATOM     16  C   UNL     1       3.120   3.538  17.372  0.00  0.00    +0.000 A 
ATOM     17  C   UNL     1       4.492   3.413  17.155  0.00  0.00    +0.000 A 
ATOM     18  C   UNL     1       5.321   4.546  17.159  0.00  0.00    +0.000 A 
ATOM     19  C   UNL     1       6.697   4.450  16.933  0.00  0.00    +0.000 A 
ATOM     20  N   UNL     1       7.550   5.498  16.916  0.00  0.00    +0.000 NA
ATOM     21  C   UNL     1       7.013   6.710  17.143  0.00  0.00    +0.000 A 
ATOM     22  C   UNL     1       5.664   6.924  17.385  0.00  0.00    +0.000 A 
ATOM     23  C   UNL     1       4.777   5.828  17.398  0.00  0.00    +0.000 A 
ENDBRANCH   2  14
BRANCH   1  25
ATOM     24  N   UNL     1       1.930   5.513  21.029  0.00  0.00    +0.000 NA
ATOM     25  C   UNL     1       2.016   6.423  20.161  0.00  0.00    +0.000 C 
ENDBRANCH   1  25
TORSDOF 3
ENDMDL
MODEL 2
REMARK VINA RESULT:      -8.2      1.111      1.801
REMARK  Name = 
REMARK  3 active torsions:
REMARK  status: ('A' for Active; 'I' for Inactive)
REMARK    1  A    between atoms: C_2  and  C_3
REMARK    2  A    between atoms: C_3  and  C_15
REMARK    3  A    between atoms: C_4  and  C_5
REMARK                            x       y       z     vdW  Elec       q    Type
REMARK                         _______ _______ _______ _____ _____    ______ ____
ROOT
ATOM      1  C   UNL     1       2.101   7.073  19.834  0.00  0.00    +0.000 C 
ATOM      2  C   UNL     1       2.601   7.100  18.577  0.00  0.00    +0.000 C 
ENDROOT
BRANCH   1   3
ATOM      3  C   UNL     1       1.525   8.219  20.481  0.00  0.00    +0.000 A 
ATOM      4  C   UNL     1       1.541   8.429  21.847  0.00  0.00    +0.000 A 
ATOM      5  N   UNL     1       0.895   9.606  22.107  0.00  0.00    +0.000 N 
ATOM      6  C   UNL     1       0.444  10.172  20.936  0.00  0.00    +0.000 A 
ATOM      7  C   UNL     1      -0.272  11.356  20.721  0.00  0.00    +0.000 A 
ATOM      8 BR   UNL     1      -0.783  12.469  22.161  0.00  0.00    +0.000 Br
ATOM      9  C   UNL     1      -0.612  11.701  19.413  0.00  0.00    +0.000 A 
ATOM     10  C   UNL     1      -0.245  10.880  18.351  0.00  0.00    +0.000 A 
ATOM     11  C   UNL     1       0.468   9.695  18.575  0.00  0.00    +0.000 A 
ATOM     12  C   UNL     1       0.830   9.326  19.891  0.00  0.00    +0.000 A 
ATOM     13  H   UNL     1       0.755  10.013  23.023  0.00  0.00    +0.000 HD
ENDBRANCH   1   3
BRANCH   2  14
ATOM     14  C   UNL     1       3.225   5.945  17.900  0.00  0.00    +0.000 A 
ATOM     15  C   UNL     1       2.458   4.780  17.738  0.00  0.00    +0.000 A 
ATOM     16  C   UNL     1       3.012   3.643  17.155  0.00  0.00    +0.000 A 
ATOM     17  C   UNL     1       4.337   3.659  16.724  0.00  0.00    +0.000 A 
ATOM     18  C   UNL     1       5.118   4.819  16.861  0.00  0.00    +0.000 A 
ATOM     19  C   UNL     1       6.446   4.865  16.427  0.00  0.00    +0.000 A 
ATOM     20  N   UNL     1       7.250   5.947  16.520  0.00  0.00    +0.000 NA
ATOM     21  C   UNL     1       6.711   7.044  17.082  0.00  0.00    +0.000 A 
ATOM     22  C   UNL     1       5.409   7.111  17.553  0.00  0.00    +0.000 A 
ATOM     23  C   UNL     1       4.573   5.981  17.449  0.00  0.00    +0.000 A 
ENDBRANCH   2  14
BRANCH   1  25
ATOM     24  N   UNL     1       2.161   4.663  21.220  0.00  0.00    +0.000 NA
ATOM     25  C   UNL     1       2.134   5.755  20.592  0.00  0.00    +0.000 C 
ENDBRANCH   1  25
TORSDOF 3
ENDMDL
MODEL 3
REMARK VINA RESULT:      -8.2      3.401      7.815
REMARK  Name = 
REMARK  3 active torsions:
REMARK  status: ('A' for Active; 'I' for Inactive)
REMARK    1  A    between atoms: C_2  and  C_3
REMARK    2  A    between atoms: C_3  and  C_15
REMARK    3  A    between atoms: C_4  and  C_5
REMARK                            x       y       z     vdW  Elec       q    Type
REMARK                         _______ _______ _______ _____ _____    ______ ____
ROOT
ATOM      1  C   UNL     1       1.909   8.414  18.707  0.00  0.00    +0.000 C 
ATOM      2  C   UNL     1       1.355   9.470  18.068  0.00  0.00    +0.000 C 
ENDROOT
BRANCH   1   3
ATOM      3  C   UNL     1       2.830   7.505  18.084  0.00  0.00    +0.000 A 
ATOM      4  C   UNL     1       3.989   7.895  17.439  0.00  0.00    +0.000 A 
ATOM      5  N   UNL     1       4.609   6.775  16.958  0.00  0.00    +0.000 N 
ATOM      6  C   UNL     1       3.875   5.653  17.268  0.00  0.00    +0.000 A 
ATOM      7  C   UNL     1       4.115   4.305  16.971  0.00  0.00    +0.000 A 
ATOM      8 BR   UNL     1       5.642   3.772  15.995  0.00  0.00    +0.000 Br
ATOM      9  C   UNL     1       3.193   3.353  17.408  0.00  0.00    +0.000 A 
ATOM     10  C   UNL     1       2.063   3.742  18.120  0.00  0.00    +0.000 A 
ATOM     11  C   UNL     1       1.829   5.093  18.410  0.00  0.00    +0.000 A 
ATOM     12  C   UNL     1       2.750   6.076  17.984  0.00  0.00    +0.000 A 
ATOM     13  H   UNL     1       5.479   6.757  16.443  0.00  0.00    +0.000 HD
ENDBRANCH   1   3
BRANCH   2  14
ATOM     14  C   UNL     1       0.383  10.401  18.676  0.00  0.00    +0.000 A 
ATOM     15  C   UNL     1       0.815  11.199  19.747  0.00  0.00    +0.000 A 
ATOM     16  C   UNL     1      -0.073  12.056  20.394  0.00  0.00    +0.000 A 
ATOM     17  C   UNL     1      -1.400  12.127  19.974  0.00  0.00    +0.000 A 
ATOM     18  C   UNL     1      -1.849  11.351  18.893  0.00  0.00    +0.000 A 
ATOM     19  C   UNL     1      -3.172  11.412  18.445  0.00  0.00    +0.000 A 
ATOM     20  N   UNL     1      -3.668  10.700  17.409  0.00  0.00    +0.000 NA
ATOM     21  C   UNL     1      -2.808   9.875  16.785  0.00  0.00    +0.000 A 
ATOM     22  C   UNL     1      -1.477   9.728  17.147  0.00  0.00    +0.000 A 
ATOM     23  C   UNL     1      -0.963  10.477  18.225  0.00  0.00    +0.000 A 
ENDBRANCH   2  14
BRANCH   1  25
ATOM     24  N   UNL     1       1.254   8.007  21.379  0.00  0.00    +0.000 NA
ATOM     25  C   UNL     1       1.551   8.192  20.168  0.00  0.00    +0.000 C 
ENDBRANCH   1  25
TORSDOF 3
ENDMDL
MODEL 4
REMARK VINA RESULT:      -8.2      3.536      7.494
REMARK  Name = 
REMARK  3 active torsions:
REMARK  status: ('A' for Active; 'I' for Inactive)
REMARK    1  A    between atoms: C_2  and  C_3
REMARK    2  A    between atoms: C_3  and  C_15
REMARK    3  A    between atoms: C_4  and  C_5
REMARK                            x       y       z     vdW  Elec       q    Type
REMARK                         _______ _______ _______ _____ _____    ______ ____
ROOT
ATOM      1  C   UNL     1       1.953   7.929  18.953  0.00  0.00    +0.000 C 
ATOM      2  C   UNL     1       1.764   8.858  17.987  0.00  0.00    +0.000 C 
ENDROOT
BRANCH   1   3
ATOM      3  C   UNL     1       2.446   6.605  18.692  0.00  0.00    +0.000 A 
ATOM      4  C   UNL     1       3.368   6.300  17.709  0.00  0.00    +0.000 A 
ATOM      5  N   UNL     1       3.595   4.951  17.739  0.00  0.00    +0.000 N 
ATOM      6  C   UNL     1       2.832   4.360  18.720  0.00  0.00    +0.000 A 
ATOM      7  C   UNL     1       2.730   3.016  19.100  0.00  0.00    +0.000 A 
ATOM      8 BR   UNL     1       3.730   1.671  18.226  0.00  0.00    +0.000 Br
ATOM      9  C   UNL     1       1.865   2.682  20.141  0.00  0.00    +0.000 A 
ATOM     10  C   UNL     1       1.121   3.668  20.783  0.00  0.00    +0.000 A 
ATOM     11  C   UNL     1       1.226   5.010  20.394  0.00  0.00    +0.000 A 
ATOM     12  C   UNL     1       2.100   5.376  19.345  0.00  0.00    +0.000 A 
ATOM     13  H   UNL     1       4.226   4.445  17.131  0.00  0.00    +0.000 HD
ENDBRANCH   1   3
BRANCH   2  14
ATOM     14  C   UNL     1       1.230  10.214  18.223  0.00  0.00    +0.000 A 
ATOM     15  C   UNL     1       2.140  11.235  18.543  0.00  0.00    +0.000 A 
ATOM     16  C   UNL     1       1.688  12.522  18.828  0.00  0.00    +0.000 A 
ATOM     17  C   UNL     1       0.323  12.802  18.794  0.00  0.00    +0.000 A 
ATOM     18  C   UNL     1      -0.603  11.800  18.460  0.00  0.00    +0.000 A 
ATOM     19  C   UNL     1      -1.976  12.057  18.407  0.00  0.00    +0.000 A 
ATOM     20  N   UNL     1      -2.919  11.145  18.086  0.00  0.00    +0.000 NA
ATOM     21  C   UNL     1      -2.480   9.904  17.809  0.00  0.00    +0.000 A 
ATOM     22  C   UNL     1      -1.144   9.534  17.836  0.00  0.00    +0.000 A 
ATOM     23  C   UNL     1      -0.163  10.490  18.167  0.00  0.00    +0.000 A 
ENDBRANCH   2  14
BRANCH   1  25
ATOM     24  N   UNL     1       1.389   8.637  21.583  0.00  0.00    +0.000 NA
ATOM     25  C   UNL     1       1.645   8.316  20.390  0.00  0.00    +0.000 C 
ENDBRANCH   1  25
TORSDOF 3
ENDMDL
MODEL 5
REMARK VINA RESULT:      -8.0      2.197      3.694
REMARK  Name = 
REMARK  3 active torsions:
REMARK  status: ('A' for Active; 'I' for Inactive)
REMARK    1  A    between atoms: C_2  and  C_3
REMARK    2  A    between atoms: C_3  and  C_15
REMARK    3  A    between atoms: C_4  and  C_5
REMARK                            x       y       z     vdW  Elec       q    Type
REMARK                         _______ _______ _______ _____ _____    ______ ____
ROOT
ATOM      1  C   UNL     1       1.842   7.818  19.956  0.00  0.00    +0.000 C 
ATOM      2  C   UNL     1       2.244   6.615  20.429  0.00  0.00    +0.000 C 
ENDROOT
BRANCH   1   3
ATOM      3  C   UNL     1       1.116   8.775  20.743  0.00  0.00    +0.000 A 
ATOM      4  C   UNL     1       1.186   8.862  22.121  0.00  0.00    +0.000 A 
ATOM      5  N   UNL     1       0.359   9.871  22.529  0.00  0.00    +0.000 N 
ATOM      6  C   UNL     1      -0.263  10.448  21.445  0.00  0.00    +0.000 A 
ATOM      7  C   UNL     1      -1.191  11.495  21.386  0.00  0.00    +0.000 A 
ATOM      8 BR   UNL     1      -1.794  12.361  22.954  0.00  0.00    +0.000 Br
ATOM      9  C   UNL     1      -1.673  11.887  20.138  0.00  0.00    +0.000 A 
ATOM     10  C   UNL     1      -1.238  11.247  18.981  0.00  0.00    +0.000 A 
ATOM     11  C   UNL     1      -0.312  10.198  19.049  0.00  0.00    +0.000 A 
ATOM     12  C   UNL     1       0.197   9.785  20.302  0.00  0.00    +0.000 A 
ATOM     13  H   UNL     1       0.211  10.162  23.487  0.00  0.00    +0.000 HD
ENDBRANCH   1   3
BRANCH   2  14
ATOM     14  C   UNL     1       2.965   5.602  19.633  0.00  0.00    +0.000 A 
ATOM     15  C   UNL     1       4.257   5.913  19.182  0.00  0.00    +0.000 A 
ATOM     16  C   UNL     1       4.964   5.017  18.383  0.00  0.00    +0.000 A 
ATOM     17  C   UNL     1       4.387   3.798  18.029  0.00  0.00    +0.000 A 
ATOM     18  C   UNL     1       3.102   3.458  18.484  0.00  0.00    +0.000 A 
ATOM     19  C   UNL     1       2.505   2.239  18.153  0.00  0.00    +0.000 A 
ATOM     20  N   UNL     1       1.278   1.845  18.561  0.00  0.00    +0.000 NA
ATOM     21  C   UNL     1       0.600   2.712  19.335  0.00  0.00    +0.000 A 
ATOM     22  C   UNL     1       1.089   3.951  19.719  0.00  0.00    +0.000 A 
ATOM     23  C   UNL     1       2.372   4.355  19.295  0.00  0.00    +0.000 A 
ENDBRANCH   2  14
BRANCH   1  25
ATOM     24  N   UNL     1       2.490   8.480  17.334  0.00  0.00    +0.000 NA
ATOM     25  C   UNL     1       2.196   8.180  18.523  0.00  0.00    +0.000 C 
ENDBRANCH   1  25
TORSDOF 3
ENDMDL
MODEL 6
REMARK VINA RESULT:      -7.9      1.492      2.071
REMARK  Name = 
REMARK  3 active torsions:
REMARK  status: ('A' for Active; 'I' for Inactive)
REMARK    1  A    between atoms: C_2  and  C_3
REMARK    2  A    between atoms: C_3  and  C_15
REMARK    3  A    between atoms: C_4  and  C_5
REMARK                            x       y       z     vdW  Elec       q    Type
REMARK                         _______ _______ _______ _____ _____    ______ ____
ROOT
ATOM      1  C   UNL     1       3.082   7.271  17.789  0.00  0.00    +0.000 C 
ATOM      2  C   UNL     1       4.195   7.504  17.055  0.00  0.00    +0.000 C 
ENDROOT
BRANCH   1   3
ATOM      3  C   UNL     1       2.217   8.314  18.267  0.00  0.00    +0.000 A 
ATOM      4  C   UNL     1       1.854   9.423  17.526  0.00  0.00    +0.000 A 
ATOM      5  N   UNL     1       1.039  10.205  18.297  0.00  0.00    +0.000 N 
ATOM      6  C   UNL     1       0.864   9.635  19.538  0.00  0.00    +0.000 A 
ATOM      7  C   UNL     1       0.129  10.082  20.643  0.00  0.00    +0.000 A 
ATOM      8 BR   UNL     1      -0.830  11.709  20.590  0.00  0.00    +0.000 Br
ATOM      9  C   UNL     1       0.123   9.301  21.799  0.00  0.00    +0.000 A 
ATOM     10  C   UNL     1       0.835   8.106  21.845  0.00  0.00    +0.000 A 
ATOM     11  C   UNL     1       1.571   7.668  20.736  0.00  0.00    +0.000 A 
ATOM     12  C   UNL     1       1.588   8.438  19.551  0.00  0.00    +0.000 A 
ATOM     13  H   UNL     1       0.621  11.081  18.013  0.00  0.00    +0.000 HD
ENDBRANCH   1   3
BRANCH   2  14
ATOM     14  C   UNL     1       5.116   6.453  16.577  0.00  0.00    +0.000 A 
ATOM     15  C   UNL     1       4.928   5.951  15.279  0.00  0.00    +0.000 A 
ATOM     16  C   UNL     1       5.733   4.922  14.795  0.00  0.00    +0.000 A 
ATOM     17  C   UNL     1       6.737   4.387  15.601  0.00  0.00    +0.000 A 
ATOM     18  C   UNL     1       6.954   4.886  16.896  0.00  0.00    +0.000 A 
ATOM     19  C   UNL     1       7.960   4.375  17.720  0.00  0.00    +0.000 A 
ATOM     20  N   UNL     1       8.228   4.813  18.970  0.00  0.00    +0.000 NA
ATOM     21  C   UNL     1       7.450   5.807  19.434  0.00  0.00    +0.000 A 
ATOM     22  C   UNL     1       6.420   6.385  18.709  0.00  0.00    +0.000 A 
ATOM     23  C   UNL     1       6.147   5.929  17.403  0.00  0.00    +0.000 A 
ENDBRANCH   2  14
BRANCH   1  25
ATOM     24  N   UNL     1       2.418   4.633  18.367  0.00  0.00    +0.000 NA
ATOM     25  C   UNL     1       2.719   5.829  18.105  0.00  0.00    +0.000 C 
ENDBRANCH   1  25
TORSDOF 3
ENDMDL
MODEL 7
REMARK VINA RESULT:      -7.9      1.961      3.297
REMARK  Name = 
REMARK  3 active torsions:
REMARK  status: ('A' for Active; 'I' for Inactive)
REMARK    1  A    between atoms: C_2  and  C_3
REMARK    2  A    between atoms: C_3  and  C_15
REMARK    3  A    between atoms: C_4  and  C_5
REMARK                            x       y       z     vdW  Elec       q    Type
REMARK                         _______ _______ _______ _____ _____    ______ ____
ROOT
ATOM      1  C   UNL     1       2.093   7.862  19.137  0.00  0.00    +0.000 C 
ATOM      2  C   UNL     1       2.272   6.797  19.953  0.00  0.00    +0.000 C 
ENDROOT
BRANCH   1   3
ATOM      3  C   UNL     1       1.243   8.974  19.463  0.00  0.00    +0.000 A 
ATOM      4  C   UNL     1       0.824   9.924  18.551  0.00  0.00    +0.000 A 
ATOM      5  N   UNL     1       0.044  10.834  19.209  0.00  0.00    +0.000 N 
ATOM      6  C   UNL     1      -0.052  10.505  20.543  0.00  0.00    +0.000 A 
ATOM      7  C   UNL     1      -0.728  11.150  21.587  0.00  0.00    +0.000 A 
ATOM      8 BR   UNL     1      -1.711  12.736  21.287  0.00  0.00    +0.000 Br
ATOM      9  C   UNL     1      -0.658  10.598  22.866  0.00  0.00    +0.000 A 
ATOM     10  C   UNL     1       0.071   9.435  23.092  0.00  0.00    +0.000 A 
ATOM     11  C   UNL     1       0.748   8.799  22.042  0.00  0.00    +0.000 A 
ATOM     12  C   UNL     1       0.687   9.334  20.736  0.00  0.00    +0.000 A 
ATOM     13  H   UNL     1      -0.402  11.641  18.792  0.00  0.00    +0.000 HD
ENDBRANCH   1   3
BRANCH   2  14
ATOM     14  C   UNL     1       3.116   5.628  19.629  0.00  0.00    +0.000 A 
ATOM     15  C   UNL     1       4.497   5.831  19.486  0.00  0.00    +0.000 A 
ATOM     16  C   UNL     1       5.334   4.776  19.129  0.00  0.00    +0.000 A 
ATOM     17  C   UNL     1       4.799   3.507  18.915  0.00  0.00    +0.000 A 
ATOM     18  C   UNL     1       3.422   3.278  19.070  0.00  0.00    +0.000 A 
ATOM     19  C   UNL     1       2.861   2.013  18.872  0.00  0.00    +0.000 A 
ATOM     20  N   UNL     1       1.549   1.721  19.011  0.00  0.00    +0.000 NA
ATOM     21  C   UNL     1       0.744   2.741  19.358  0.00  0.00    +0.000 A 
ATOM     22  C   UNL     1       1.188   4.037  19.573  0.00  0.00    +0.000 A 
ATOM     23  C   UNL     1       2.559   4.336  19.432  0.00  0.00    +0.000 A 
ENDBRANCH   2  14
BRANCH   1  25
ATOM     24  N   UNL     1       3.470   7.914  16.722  0.00  0.00    +0.000 NA
ATOM     25  C   UNL     1       2.846   7.890  17.817  0.00  0.00    +0.000 C 
ENDBRANCH   1  25
TORSDOF 3
ENDMDL
MODEL 8
REMARK VINA RESULT:      -7.8      3.265      7.537
REMARK  Name = 
REMARK  3 active torsions:
REMARK  status: ('A' for Active; 'I' for Inactive)
REMARK    1  A    between atoms: C_2  and  C_3
REMARK    2  A    between atoms: C_3  and  C_15
REMARK    3  A    between atoms: C_4  and  C_5
REMARK                            x       y       z     vdW  Elec       q    Type
REMARK                         _______ _______ _______ _____ _____    ______ ____
ROOT
ATOM      1  C   UNL     1       1.886   8.428  18.542  0.00  0.00    +0.000 C 
ATOM      2  C   UNL     1       1.279   9.380  17.795  0.00  0.00    +0.000 C 
ENDROOT
BRANCH   1   3
ATOM      3  C   UNL     1       2.847   7.501  18.013  0.00  0.00    +0.000 A 
ATOM      4  C   UNL     1       4.085   7.863  17.516  0.00  0.00    +0.000 A 
ATOM      5  N   UNL     1       4.723   6.732  17.089  0.00  0.00    +0.000 N 
ATOM      6  C   UNL     1       3.924   5.629  17.288  0.00  0.00    +0.000 A 
ATOM      7  C   UNL     1       4.156   4.279  16.994  0.00  0.00    +0.000 A 
ATOM      8 BR   UNL     1       5.772   3.713  16.193  0.00  0.00    +0.000 Br
ATOM      9  C   UNL     1       3.161   3.351  17.300  0.00  0.00    +0.000 A 
ATOM     10  C   UNL     1       1.967   3.764  17.882  0.00  0.00    +0.000 A 
ATOM     11  C   UNL     1       1.741   5.117  18.169  0.00  0.00    +0.000 A 
ATOM     12  C   UNL     1       2.736   6.077  17.874  0.00  0.00    +0.000 A 
ATOM     13  H   UNL     1       5.647   6.694  16.679  0.00  0.00    +0.000 HD
ENDBRANCH   1   3
BRANCH   2  14
ATOM     14  C   UNL     1       0.267  10.326  18.307  0.00  0.00    +0.000 A 
ATOM     15  C   UNL     1      -1.082   9.937  18.265  0.00  0.00    +0.000 A 
ATOM     16  C   UNL     1      -2.084  10.809  18.685  0.00  0.00    +0.000 A 
ATOM     17  C   UNL     1      -1.748  12.078  19.155  0.00  0.00    +0.000 A 
ATOM     18  C   UNL     1      -0.404  12.481  19.222  0.00  0.00    +0.000 A 
ATOM     19  C   UNL     1      -0.039  13.743  19.700  0.00  0.00    +0.000 A 
ATOM     20  N   UNL     1       1.231  14.192  19.799  0.00  0.00    +0.000 NA
ATOM     21  C   UNL     1       2.196  13.346  19.395  0.00  0.00    +0.000 A 
ATOM     22  C   UNL     1       1.952  12.075  18.898  0.00  0.00    +0.000 A 
ATOM     23  C   UNL     1       0.625  11.609  18.801  0.00  0.00    +0.000 A 
ENDBRANCH   2  14
BRANCH   1  25
ATOM     24  N   UNL     1       1.265   8.289  21.249  0.00  0.00    +0.000 NA
ATOM     25  C   UNL     1       1.546   8.352  20.021  0.00  0.00    +0.000 C 
ENDBRANCH   1  25
TORSDOF 3
ENDMDL
MODEL 9
REMARK VINA RESULT:      -7.7      3.527      7.879
REMARK  Name = 
REMARK  3 active torsions:
REMARK  status: ('A' for Active; 'I' for Inactive)
REMARK    1  A    between atoms: C_2  and  C_3
REMARK    2  A    between atoms: C_3  and  C_15
REMARK    3  A    between atoms: C_4  and  C_5
REMARK                            x       y       z     vdW  Elec       q    Type
REMARK                         _______ _______ _______ _____ _____    ______ ____
ROOT
ATOM      1  C   UNL     1       1.263   8.994  19.308  0.00  0.00    +0.000 C 
ATOM      2  C   UNL     1       0.759   9.959  18.506  0.00  0.00    +0.000 C 
ENDROOT
BRANCH   1   3
ATOM      3  C   UNL     1       2.170   7.978  18.850  0.00  0.00    +0.000 A 
ATOM      4  C   UNL     1       3.008   8.118  17.760  0.00  0.00    +0.000 A 
ATOM      5  N   UNL     1       3.714   6.957  17.610  0.00  0.00    +0.000 N 
ATOM      6  C   UNL     1       3.350   6.048  18.578  0.00  0.00    +0.000 A 
ATOM      7  C   UNL     1       3.796   4.740  18.803  0.00  0.00    +0.000 A 
ATOM      8 BR   UNL     1       5.099   3.942  17.691  0.00  0.00    +0.000 Br
ATOM      9  C   UNL     1       3.251   4.025  19.870  0.00  0.00    +0.000 A 
ATOM     10  C   UNL     1       2.286   4.606  20.686  0.00  0.00    +0.000 A 
ATOM     11  C   UNL     1       1.842   5.914  20.452  0.00  0.00    +0.000 A 
ATOM     12  C   UNL     1       2.383   6.662  19.381  0.00  0.00    +0.000 A 
ATOM     13  H   UNL     1       4.404   6.774  16.893  0.00  0.00    +0.000 HD
ENDBRANCH   1   3
BRANCH   2  14
ATOM     14  C   UNL     1      -0.197  10.997  18.944  0.00  0.00    +0.000 A 
ATOM     15  C   UNL     1       0.288  12.048  19.738  0.00  0.00    +0.000 A 
ATOM     16  C   UNL     1      -0.578  13.025  20.225  0.00  0.00    +0.000 A 
ATOM     17  C   UNL     1      -1.936  12.964  19.918  0.00  0.00    +0.000 A 
ATOM     18  C   UNL     1      -2.440  11.931  19.111  0.00  0.00    +0.000 A 
ATOM     19  C   UNL     1      -3.795  11.852  18.779  0.00  0.00    +0.000 A 
ATOM     20  N   UNL     1      -4.345  10.893  18.003  0.00  0.00    +0.000 NA
ATOM     21  C   UNL     1      -3.506   9.952  17.533  0.00  0.00    +0.000 A 
ATOM     22  C   UNL     1      -2.146   9.926  17.802  0.00  0.00    +0.000 A 
ATOM     23  C   UNL     1      -1.577  10.932  18.609  0.00  0.00    +0.000 A 
ENDBRANCH   2  14
BRANCH   1  25
ATOM     24  N   UNL     1       0.531   9.001  21.991  0.00  0.00    +0.000 NA
ATOM     25  C   UNL     1       0.863   8.998  20.775  0.00  0.00    +0.000 C 
ENDBRANCH   1  25
TORSDOF 3
ENDMDL
