MODEL 1
REMARK VINA RESULT:      -8.4      0.000      0.000
REMARK  Name = 
REMARK  6 active torsions:
REMARK  status: ('A' for Active; 'I' for Inactive)
REMARK    1  A    between atoms: C_1  and  O_2
REMARK    2  A    between atoms: O_2  and  C_3
REMARK    3  A    between atoms: C_6  and  C_7
REMARK    4  A    between atoms: N_9  and  C_10
REMARK    5  A    between atoms: C_17  and  C_18
REMARK    6  A    between atoms: C_22  and  O_23
REMARK                            x       y       z     vdW  Elec       q    Type
REMARK                         _______ _______ _______ _____ _____    ______ ____
ROOT
ATOM      1  C   UNL     1       3.022   5.848  19.545  0.00  0.00    +0.000 A 
ATOM      2  N   UNL     1       2.711   7.154  19.602  0.00  0.00    +0.000 NA
ATOM      3  N   UNL     1       1.695   7.263  20.489  0.00  0.00    +0.000 N 
ATOM      4  C   UNL     1       1.379   6.041  21.025  0.00  0.00    +0.000 A 
ATOM      5  C   UNL     1       2.207   5.095  20.451  0.00  0.00    +0.000 A 
ENDROOT
BRANCH   5   6
ATOM      6  C   UNL     1       2.188   3.616  20.693  0.00  0.00    +0.000 C 
ATOM      7  O   UNL     1       3.471   3.216  21.215  0.00  0.00    +0.000 OA
ATOM      8  C   UNL     1       4.089   2.419  20.308  0.00  0.00    +0.000 C 
ATOM      9  O   UNL     1       5.225   1.984  20.375  0.00  0.00    +0.000 OA
ATOM     10  C   UNL     1       3.151   2.101  19.226  0.00  0.00    +0.000 C 
ATOM     11  C   UNL     1       2.037   2.779  19.473  0.00  0.00    +0.000 C 
ATOM     12 BR   UNL     1       0.448   2.727  18.544  0.00  0.00    +0.000 Br
BRANCH  10  13
ATOM     13  O   UNL     1       3.426   1.236  18.206  0.00  0.00    +0.000 OA
ATOM     14  H   UNL     1       4.378   1.021  18.285  0.00  0.00    +0.000 HD
ENDBRANCH  10  13
ENDBRANCH   5   6
BRANCH   1  18
ATOM     15  C   UNL     1       6.096   4.483  16.857  0.00  0.00    +0.000 A 
ATOM     16  C   UNL     1       4.763   4.548  16.447  0.00  0.00    +0.000 A 
ATOM     17  C   UNL     1       3.768   5.002  17.322  0.00  0.00    +0.000 A 
ATOM     18  C   UNL     1       4.082   5.375  18.636  0.00  0.00    +0.000 A 
ATOM     19  C   UNL     1       5.418   5.262  19.045  0.00  0.00    +0.000 A 
ATOM     20  C   UNL     1       6.420   4.838  18.161  0.00  0.00    +0.000 A 
BRANCH  15  22
ATOM     21  C   UNL     1       6.673   4.330  14.568  0.00  0.00    +0.000 C 
ATOM     22  O   UNL     1       6.976   4.013  15.921  0.00  0.00    +0.000 OA
ENDBRANCH  15  22
ENDBRANCH   1  18
BRANCH   3  23
ATOM     23  C   UNL     1       1.073   8.512  20.777  0.00  0.00    +0.000 A 
ATOM     24  C   UNL     1       0.621   8.787  22.074  0.00  0.00    +0.000 A 
ATOM     25  C   UNL     1       0.017  10.014  22.364  0.00  0.00    +0.000 A 
ATOM     26  C   UNL     1      -0.144  10.971  21.362  0.00  0.00    +0.000 A 
ATOM     27  C   UNL     1       0.306  10.708  20.070  0.00  0.00    +0.000 A 
ATOM     28  C   UNL     1       0.912   9.485  19.776  0.00  0.00    +0.000 A 
ENDBRANCH   3  23
TORSDOF 5
ENDMDL
MODEL 2
REMARK VINA RESULT:      -8.2      0.121      1.316
REMARK  Name = 
REMARK  6 active torsions:
REMARK  status: ('A' for Active; 'I' for Inactive)
REMARK    1  A    between atoms: C_1  and  O_2
REMARK    2  A    between atoms: O_2  and  C_3
REMARK    3  A    between atoms: C_6  and  C_7
REMARK    4  A    between atoms: N_9  and  C_10
REMARK    5  A    between atoms: C_17  and  C_18
REMARK    6  A    between atoms: C_22  and  O_23
REMARK                            x       y       z     vdW  Elec       q    Type
REMARK                         _______ _______ _______ _____ _____    ______ ____
ROOT
ATOM      1  C   UNL     1       2.968   5.827  19.588  0.00  0.00    +0.000 A 
ATOM      2  N   UNL     1       2.654   7.133  19.661  0.00  0.00    +0.000 NA
ATOM      3  N   UNL     1       1.658   7.231  20.572  0.00  0.00    +0.000 N 
ATOM      4  C   UNL     1       1.359   6.004  21.107  0.00  0.00    +0.000 A 
ATOM      5  C   UNL     1       2.177   5.066  20.506  0.00  0.00    +0.000 A 
ENDROOT
BRANCH   5   6
ATOM      6  C   UNL     1       2.170   3.585  20.738  0.00  0.00    +0.000 C 
ATOM      7  O   UNL     1       3.455   3.190  21.256  0.00  0.00    +0.000 OA
ATOM      8  C   UNL     1       4.078   2.404  20.343  0.00  0.00    +0.000 C 
ATOM      9  O   UNL     1       5.217   1.977  20.406  0.00  0.00    +0.000 OA
ATOM     10  C   UNL     1       3.142   2.087  19.260  0.00  0.00    +0.000 C 
ATOM     11  C   UNL     1       2.023   2.756  19.512  0.00  0.00    +0.000 C 
ATOM     12 BR   UNL     1       0.434   2.698  18.585  0.00  0.00    +0.000 Br
BRANCH  10  13
ATOM     13  O   UNL     1       3.422   1.231  18.234  0.00  0.00    +0.000 OA
ATOM     14  H   UNL     1       3.433   1.780  17.422  0.00  0.00    +0.000 HD
ENDBRANCH  10  13
ENDBRANCH   5   6
BRANCH   1  18
ATOM     15  C   UNL     1       6.028   4.465  16.882  0.00  0.00    +0.000 A 
ATOM     16  C   UNL     1       6.348   4.875  18.177  0.00  0.00    +0.000 A 
ATOM     17  C   UNL     1       5.348   5.309  19.057  0.00  0.00    +0.000 A 
ATOM     18  C   UNL     1       4.008   5.366  18.650  0.00  0.00    +0.000 A 
ATOM     19  C   UNL     1       3.709   4.991  17.332  0.00  0.00    +0.000 A 
ATOM     20  C   UNL     1       4.704   4.528  16.461  0.00  0.00    +0.000 A 
BRANCH  15  22
ATOM     21  C   UNL     1       7.017   4.424  14.733  0.00  0.00    +0.000 C 
ATOM     22  O   UNL     1       7.087   4.075  16.110  0.00  0.00    +0.000 OA
ENDBRANCH  15  22
ENDBRANCH   1  18
BRANCH   3  23
ATOM     23  C   UNL     1       1.039   8.476  20.884  0.00  0.00    +0.000 A 
ATOM     24  C   UNL     1       0.909   9.460  19.896  0.00  0.00    +0.000 A 
ATOM     25  C   UNL     1       0.296  10.681  20.196  0.00  0.00    +0.000 A 
ATOM     26  C   UNL     1      -0.185  10.929  21.482  0.00  0.00    +0.000 A 
ATOM     27  C   UNL     1      -0.062   9.954  22.469  0.00  0.00    +0.000 A 
ATOM     28  C   UNL     1       0.546   8.732  22.175  0.00  0.00    +0.000 A 
ENDBRANCH   3  23
TORSDOF 5
ENDMDL
MODEL 3
REMARK VINA RESULT:      -8.1      0.481      1.046
REMARK  Name = 
REMARK  6 active torsions:
REMARK  status: ('A' for Active; 'I' for Inactive)
REMARK    1  A    between atoms: C_1  and  O_2
REMARK    2  A    between atoms: O_2  and  C_3
REMARK    3  A    between atoms: C_6  and  C_7
REMARK    4  A    between atoms: N_9  and  C_10
REMARK    5  A    between atoms: C_17  and  C_18
REMARK    6  A    between atoms: C_22  and  O_23
REMARK                            x       y       z     vdW  Elec       q    Type
REMARK                         _______ _______ _______ _____ _____    ______ ____
ROOT
ATOM      1  C   UNL     1       3.146   5.877  19.501  0.00  0.00    +0.000 A 
ATOM      2  N   UNL     1       2.841   7.170  19.710  0.00  0.00    +0.000 NA
ATOM      3  N   UNL     1       1.753   7.176  20.514  0.00  0.00    +0.000 N 
ATOM      4  C   UNL     1       1.384   5.899  20.850  0.00  0.00    +0.000 A 
ATOM      5  C   UNL     1       2.251   5.025  20.223  0.00  0.00    +0.000 A 
ENDROOT
BRANCH   5   6
ATOM      6  C   UNL     1       2.201   3.527  20.259  0.00  0.00    +0.000 C 
ATOM      7  O   UNL     1       3.261   3.048  21.109  0.00  0.00    +0.000 OA
ATOM      8  C   UNL     1       4.160   2.367  20.356  0.00  0.00    +0.000 C 
ATOM      9  O   UNL     1       5.228   1.914  20.729  0.00  0.00    +0.000 OA
ATOM     10  C   UNL     1       3.627   2.202  18.999  0.00  0.00    +0.000 C 
ATOM     11  C   UNL     1       2.472   2.857  18.959  0.00  0.00    +0.000 C 
ATOM     12 BR   UNL     1       1.267   2.943  17.571  0.00  0.00    +0.000 Br
BRANCH  10  13
ATOM     13  O   UNL     1       4.240   1.473  18.021  0.00  0.00    +0.000 OA
ATOM     14  H   UNL     1       4.381   2.091  17.274  0.00  0.00    +0.000 HD
ENDBRANCH  10  13
ENDBRANCH   5   6
BRANCH   1  18
ATOM     15  C   UNL     1       6.433   4.838  16.921  0.00  0.00    +0.000 A 
ATOM     16  C   UNL     1       5.187   5.181  16.392  0.00  0.00    +0.000 A 
ATOM     17  C   UNL     1       4.123   5.527  17.235  0.00  0.00    +0.000 A 
ATOM     18  C   UNL     1       4.276   5.513  18.628  0.00  0.00    +0.000 A 
ATOM     19  C   UNL     1       5.521   5.124  19.144  0.00  0.00    +0.000 A 
ATOM     20  C   UNL     1       6.595   4.807  18.301  0.00  0.00    +0.000 A 
BRANCH  15  22
ATOM     21  C   UNL     1       6.965   4.472  14.645  0.00  0.00    +0.000 C 
ATOM     22  O   UNL     1       7.390   4.506  16.002  0.00  0.00    +0.000 OA
ENDBRANCH  15  22
ENDBRANCH   1  18
BRANCH   3  23
ATOM     23  C   UNL     1       1.118   8.387  20.918  0.00  0.00    +0.000 A 
ATOM     24  C   UNL     1       0.868   9.394  19.977  0.00  0.00    +0.000 A 
ATOM     25  C   UNL     1       0.239  10.580  20.367  0.00  0.00    +0.000 A 
ATOM     26  C   UNL     1      -0.138  10.771  21.697  0.00  0.00    +0.000 A 
ATOM     27  C   UNL     1       0.104   9.773  22.638  0.00  0.00    +0.000 A 
ATOM     28  C   UNL     1       0.729   8.585  22.254  0.00  0.00    +0.000 A 
ENDBRANCH   3  23
TORSDOF 5
ENDMDL
MODEL 4
REMARK VINA RESULT:      -7.8      1.462      2.020
REMARK  Name = 
REMARK  6 active torsions:
REMARK  status: ('A' for Active; 'I' for Inactive)
REMARK    1  A    between atoms: C_1  and  O_2
REMARK    2  A    between atoms: O_2  and  C_3
REMARK    3  A    between atoms: C_6  and  C_7
REMARK    4  A    between atoms: N_9  and  C_10
REMARK    5  A    between atoms: C_17  and  C_18
REMARK    6  A    between atoms: C_22  and  O_23
REMARK                            x       y       z     vdW  Elec       q    Type
REMARK                         _______ _______ _______ _____ _____    ______ ____
ROOT
ATOM      1  C   UNL     1       3.705   6.123  18.794  0.00  0.00    +0.000 A 
ATOM      2  N   UNL     1       3.218   7.353  19.034  0.00  0.00    +0.000 NA
ATOM      3  N   UNL     1       2.218   7.196  19.932  0.00  0.00    +0.000 N 
ATOM      4  C   UNL     1       2.087   5.880  20.294  0.00  0.00    +0.000 A 
ATOM      5  C   UNL     1       3.023   5.147  19.590  0.00  0.00    +0.000 A 
ENDROOT
BRANCH   5   6
ATOM      6  C   UNL     1       3.215   3.661  19.624  0.00  0.00    +0.000 C 
ATOM      7  O   UNL     1       3.531   3.204  18.294  0.00  0.00    +0.000 OA
ATOM      8  C   UNL     1       2.517   2.426  17.840  0.00  0.00    +0.000 C 
ATOM      9  O   UNL     1       2.404   1.956  16.722  0.00  0.00    +0.000 OA
ATOM     10  C   UNL     1       1.572   2.177  18.935  0.00  0.00    +0.000 C 
ATOM     11  C   UNL     1       2.001   2.877  19.978  0.00  0.00    +0.000 C 
ATOM     12 BR   UNL     1       1.312   2.906  21.684  0.00  0.00    +0.000 Br
BRANCH  10  13
ATOM     13  O   UNL     1       0.494   1.345  18.839  0.00  0.00    +0.000 OA
ATOM     14  H   UNL     1       0.043   1.584  18.003  0.00  0.00    +0.000 HD
ENDBRANCH  10  13
ENDBRANCH   5   6
BRANCH   1  18
ATOM     15  C   UNL     1       6.874   5.590  15.929  0.00  0.00    +0.000 A 
ATOM     16  C   UNL     1       5.546   5.710  15.515  0.00  0.00    +0.000 A 
ATOM     17  C   UNL     1       4.519   5.893  16.449  0.00  0.00    +0.000 A 
ATOM     18  C   UNL     1       4.797   5.933  17.822  0.00  0.00    +0.000 A 
ATOM     19  C   UNL     1       6.130   5.767  18.225  0.00  0.00    +0.000 A 
ATOM     20  C   UNL     1       7.162   5.615  17.288  0.00  0.00    +0.000 A 
BRANCH  15  22
ATOM     21  C   UNL     1       7.277   4.866  13.712  0.00  0.00    +0.000 C 
ATOM     22  O   UNL     1       7.787   5.402  14.928  0.00  0.00    +0.000 OA
ENDBRANCH  15  22
ENDBRANCH   1  18
BRANCH   3  23
ATOM     23  C   UNL     1       1.438   8.295  20.395  0.00  0.00    +0.000 A 
ATOM     24  C   UNL     1       1.081   9.321  19.512  0.00  0.00    +0.000 A 
ATOM     25  C   UNL     1       0.309  10.398  19.959  0.00  0.00    +0.000 A 
ATOM     26  C   UNL     1      -0.106  10.460  21.290  0.00  0.00    +0.000 A 
ATOM     27  C   UNL     1       0.243   9.441  22.174  0.00  0.00    +0.000 A 
ATOM     28  C   UNL     1       1.010   8.362  21.732  0.00  0.00    +0.000 A 
ENDBRANCH   3  23
TORSDOF 5
ENDMDL
MODEL 5
REMARK VINA RESULT:      -7.7      1.502      2.206
REMARK  Name = 
REMARK  6 active torsions:
REMARK  status: ('A' for Active; 'I' for Inactive)
REMARK    1  A    between atoms: C_1  and  O_2
REMARK    2  A    between atoms: O_2  and  C_3
REMARK    3  A    between atoms: C_6  and  C_7
REMARK    4  A    between atoms: N_9  and  C_10
REMARK    5  A    between atoms: C_17  and  C_18
REMARK    6  A    between atoms: C_22  and  O_23
REMARK                            x       y       z     vdW  Elec       q    Type
REMARK                         _______ _______ _______ _____ _____    ______ ____
ROOT
ATOM      1  C   UNL     1       3.817   6.324  18.391  0.00  0.00    +0.000 A 
ATOM      2  N   UNL     1       3.188   7.512  18.372  0.00  0.00    +0.000 NA
ATOM      3  N   UNL     1       2.285   7.477  19.380  0.00  0.00    +0.000 N 
ATOM      4  C   UNL     1       2.359   6.290  20.064  0.00  0.00    +0.000 A 
ATOM      5  C   UNL     1       3.332   5.513  19.467  0.00  0.00    +0.000 A 
ENDROOT
BRANCH   5   6
ATOM      6  C   UNL     1       3.723   4.115  19.842  0.00  0.00    +0.000 C 
ATOM      7  O   UNL     1       4.430   3.519  18.736  0.00  0.00    +0.000 OA
ATOM      8  C   UNL     1       3.689   2.499  18.235  0.00  0.00    +0.000 C 
ATOM      9  O   UNL     1       3.933   1.843  17.239  0.00  0.00    +0.000 OA
ATOM     10  C   UNL     1       2.545   2.254  19.120  0.00  0.00    +0.000 C 
ATOM     11  C   UNL     1       2.588   3.182  20.069  0.00  0.00    +0.000 C 
ATOM     12 BR   UNL     1       1.492   3.353  21.537  0.00  0.00    +0.000 Br
BRANCH  10  13
ATOM     13  O   UNL     1       1.659   1.228  18.957  0.00  0.00    +0.000 OA
ATOM     14  H   UNL     1       0.799   1.559  19.289  0.00  0.00    +0.000 HD
ENDBRANCH  10  13
ENDBRANCH   5   6
BRANCH   1  18
ATOM     15  C   UNL     1       6.867   5.422  15.489  0.00  0.00    +0.000 A 
ATOM     16  C   UNL     1       7.180   6.092  16.673  0.00  0.00    +0.000 A 
ATOM     17  C   UNL     1       6.186   6.375  17.618  0.00  0.00    +0.000 A 
ATOM     18  C   UNL     1       4.852   6.016  17.387  0.00  0.00    +0.000 A 
ATOM     19  C   UNL     1       4.546   5.382  16.174  0.00  0.00    +0.000 A 
ATOM     20  C   UNL     1       5.545   5.071  15.241  0.00  0.00    +0.000 A 
BRANCH  15  22
ATOM     21  C   UNL     1       7.583   5.068  13.262  0.00  0.00    +0.000 C 
ATOM     22  O   UNL     1       7.916   5.213  14.637  0.00  0.00    +0.000 OA
ENDBRANCH  15  22
ENDBRANCH   1  18
BRANCH   3  23
ATOM     23  C   UNL     1       1.400   8.563  19.640  0.00  0.00    +0.000 A 
ATOM     24  C   UNL     1       1.112   9.489  18.629  0.00  0.00    +0.000 A 
ATOM     25  C   UNL     1       0.239  10.552  18.877  0.00  0.00    +0.000 A 
ATOM     26  C   UNL     1      -0.349  10.701  20.134  0.00  0.00    +0.000 A 
ATOM     27  C   UNL     1      -0.071   9.782  21.143  0.00  0.00    +0.000 A 
ATOM     28  C   UNL     1       0.799   8.717  20.901  0.00  0.00    +0.000 A 
ENDBRANCH   3  23
TORSDOF 5
ENDMDL
MODEL 6
REMARK VINA RESULT:      -7.6      5.615      8.010
REMARK  Name = 
REMARK  6 active torsions:
REMARK  status: ('A' for Active; 'I' for Inactive)
REMARK    1  A    between atoms: C_1  and  O_2
REMARK    2  A    between atoms: O_2  and  C_3
REMARK    3  A    between atoms: C_6  and  C_7
REMARK    4  A    between atoms: N_9  and  C_10
REMARK    5  A    between atoms: C_17  and  C_18
REMARK    6  A    between atoms: C_22  and  O_23
REMARK                            x       y       z     vdW  Elec       q    Type
REMARK                         _______ _______ _______ _____ _____    ______ ____
ROOT
ATOM      1  C   UNL     1       0.890  10.974  18.915  0.00  0.00    +0.000 A 
ATOM      2  N   UNL     1       1.772  11.988  18.950  0.00  0.00    +0.000 NA
ATOM      3  N   UNL     1       1.079  13.102  18.618  0.00  0.00    +0.000 N 
ATOM      4  C   UNL     1      -0.245  12.812  18.407  0.00  0.00    +0.000 A 
ATOM      5  C   UNL     1      -0.418  11.453  18.588  0.00  0.00    +0.000 A 
ENDROOT
BRANCH   5   6
ATOM      6  C   UNL     1      -1.688  10.676  18.410  0.00  0.00    +0.000 C 
ATOM      7  O   UNL     1      -1.649  10.010  17.133  0.00  0.00    +0.000 OA
ATOM      8  C   UNL     1      -2.605  10.537  16.329  0.00  0.00    +0.000 C 
ATOM      9  O   UNL     1      -2.789  10.283  15.152  0.00  0.00    +0.000 OA
ATOM     10  C   UNL     1      -3.449  11.446  17.113  0.00  0.00    +0.000 C 
ATOM     11  C   UNL     1      -2.925  11.499  18.332  0.00  0.00    +0.000 C 
ATOM     12 BR   UNL     1      -3.578  12.381  19.809  0.00  0.00    +0.000 Br
BRANCH  10  13
ATOM     13  O   UNL     1      -4.567  12.061  16.628  0.00  0.00    +0.000 OA
ATOM     14  H   UNL     1      -5.284  11.396  16.679  0.00  0.00    +0.000 HD
ENDBRANCH  10  13
ENDBRANCH   5   6
BRANCH   1  18
ATOM     15  C   UNL     1       2.212   6.955  19.716  0.00  0.00    +0.000 A 
ATOM     16  C   UNL     1       2.408   7.538  18.462  0.00  0.00    +0.000 A 
ATOM     17  C   UNL     1       1.985   8.848  18.209  0.00  0.00    +0.000 A 
ATOM     18  C   UNL     1       1.332   9.596  19.199  0.00  0.00    +0.000 A 
ATOM     19  C   UNL     1       1.104   8.981  20.438  0.00  0.00    +0.000 A 
ATOM     20  C   UNL     1       1.555   7.681  20.702  0.00  0.00    +0.000 A 
BRANCH  15  22
ATOM     21  C   UNL     1       1.882   4.821  20.683  0.00  0.00    +0.000 C 
ATOM     22  O   UNL     1       2.656   5.667  19.841  0.00  0.00    +0.000 OA
ENDBRANCH  15  22
ENDBRANCH   1  18
BRANCH   3  23
ATOM     23  C   UNL     1       1.704  14.378  18.513  0.00  0.00    +0.000 A 
ATOM     24  C   UNL     1       3.008  14.480  18.010  0.00  0.00    +0.000 A 
ATOM     25  C   UNL     1       3.623  15.730  17.898  0.00  0.00    +0.000 A 
ATOM     26  C   UNL     1       2.945  16.885  18.292  0.00  0.00    +0.000 A 
ATOM     27  C   UNL     1       1.647  16.793  18.790  0.00  0.00    +0.000 A 
ATOM     28  C   UNL     1       1.027  15.547  18.900  0.00  0.00    +0.000 A 
ENDBRANCH   3  23
TORSDOF 5
ENDMDL
MODEL 7
REMARK VINA RESULT:      -7.6      5.690      8.069
REMARK  Name = 
REMARK  6 active torsions:
REMARK  status: ('A' for Active; 'I' for Inactive)
REMARK    1  A    between atoms: C_1  and  O_2
REMARK    2  A    between atoms: O_2  and  C_3
REMARK    3  A    between atoms: C_6  and  C_7
REMARK    4  A    between atoms: N_9  and  C_10
REMARK    5  A    between atoms: C_17  and  C_18
REMARK    6  A    between atoms: C_22  and  O_23
REMARK                            x       y       z     vdW  Elec       q    Type
REMARK                         _______ _______ _______ _____ _____    ______ ____
ROOT
ATOM      1  C   UNL     1       0.463  11.151  18.827  0.00  0.00    +0.000 A 
ATOM      2  N   UNL     1       1.197  12.271  18.952  0.00  0.00    +0.000 NA
ATOM      3  N   UNL     1       0.363  13.301  18.677  0.00  0.00    +0.000 N 
ATOM      4  C   UNL     1      -0.905  12.850  18.412  0.00  0.00    +0.000 A 
ATOM      5  C   UNL     1      -0.893  11.471  18.497  0.00  0.00    +0.000 A 
ENDROOT
BRANCH   5   6
ATOM      6  C   UNL     1      -2.041  10.544  18.236  0.00  0.00    +0.000 C 
ATOM      7  O   UNL     1      -1.810   9.860  16.988  0.00  0.00    +0.000 OA
ATOM      8  C   UNL     1      -2.746  10.251  16.088  0.00  0.00    +0.000 C 
ATOM      9  O   UNL     1      -2.792   9.953  14.908  0.00  0.00    +0.000 OA
ATOM     10  C   UNL     1      -3.757  11.068  16.768  0.00  0.00    +0.000 C 
ATOM     11  C   UNL     1      -3.354  11.210  18.025  0.00  0.00    +0.000 C 
ATOM     12 BR   UNL     1      -4.237  12.038  19.412  0.00  0.00    +0.000 Br
BRANCH  10  13
ATOM     13  O   UNL     1      -4.892  11.534  16.168  0.00  0.00    +0.000 OA
ATOM     14  H   UNL     1      -5.150  10.853  15.514  0.00  0.00    +0.000 HD
ENDBRANCH  10  13
ENDBRANCH   5   6
BRANCH   1  18
ATOM     15  C   UNL     1       2.251   7.284  19.445  0.00  0.00    +0.000 A 
ATOM     16  C   UNL     1       1.599   7.947  20.487  0.00  0.00    +0.000 A 
ATOM     17  C   UNL     1       1.011   9.200  20.279  0.00  0.00    +0.000 A 
ATOM     18  C   UNL     1       1.085   9.830  19.029  0.00  0.00    +0.000 A 
ATOM     19  C   UNL     1       1.781   9.171  18.005  0.00  0.00    +0.000 A 
ATOM     20  C   UNL     1       2.343   7.902  18.204  0.00  0.00    +0.000 A 
BRANCH  15  22
ATOM     21  C   UNL     1       1.992   5.224  20.581  0.00  0.00    +0.000 C 
ATOM     22  O   UNL     1       2.797   6.073  19.771  0.00  0.00    +0.000 OA
ENDBRANCH  15  22
ENDBRANCH   1  18
BRANCH   3  23
ATOM     23  C   UNL     1       0.810  14.655  18.673  0.00  0.00    +0.000 A 
ATOM     24  C   UNL     1       2.180  14.940  18.626  0.00  0.00    +0.000 A 
ATOM     25  C   UNL     1       2.623  16.266  18.615  0.00  0.00    +0.000 A 
ATOM     26  C   UNL     1       1.703  17.314  18.657  0.00  0.00    +0.000 A 
ATOM     27  C   UNL     1       0.338  17.039  18.701  0.00  0.00    +0.000 A 
ATOM     28  C   UNL     1      -0.109  15.717  18.709  0.00  0.00    +0.000 A 
ENDBRANCH   3  23
TORSDOF 5
ENDMDL
MODEL 8
REMARK VINA RESULT:      -7.4      2.056      2.430
REMARK  Name = 
REMARK  6 active torsions:
REMARK  status: ('A' for Active; 'I' for Inactive)
REMARK    1  A    between atoms: C_1  and  O_2
REMARK    2  A    between atoms: O_2  and  C_3
REMARK    3  A    between atoms: C_6  and  C_7
REMARK    4  A    between atoms: N_9  and  C_10
REMARK    5  A    between atoms: C_17  and  C_18
REMARK    6  A    between atoms: C_22  and  O_23
REMARK                            x       y       z     vdW  Elec       q    Type
REMARK                         _______ _______ _______ _____ _____    ______ ____
ROOT
ATOM      1  C   UNL     1       3.564   7.273  17.918  0.00  0.00    +0.000 A 
ATOM      2  N   UNL     1       2.973   8.440  17.605  0.00  0.00    +0.000 NA
ATOM      3  N   UNL     1       1.952   8.593  18.481  0.00  0.00    +0.000 N 
ATOM      4  C   UNL     1       1.910   7.551  19.372  0.00  0.00    +0.000 A 
ATOM      5  C   UNL     1       2.929   6.674  19.052  0.00  0.00    +0.000 A 
ENDROOT
BRANCH   5   6
ATOM      6  C   UNL     1       3.235   5.368  19.721  0.00  0.00    +0.000 C 
ATOM      7  O   UNL     1       4.653   5.294  19.967  0.00  0.00    +0.000 OA
ATOM      8  C   UNL     1       5.184   4.304  19.207  0.00  0.00    +0.000 C 
ATOM      9  O   UNL     1       6.365   4.031  19.088  0.00  0.00    +0.000 OA
ATOM     10  C   UNL     1       4.099   3.551  18.569  0.00  0.00    +0.000 C 
ATOM     11  C   UNL     1       2.965   4.160  18.896  0.00  0.00    +0.000 C 
ATOM     12 BR   UNL     1       1.244   3.642  18.496  0.00  0.00    +0.000 Br
BRANCH  10  13
ATOM     13  O   UNL     1       4.288   2.426  17.819  0.00  0.00    +0.000 OA
ATOM     14  H   UNL     1       5.240   2.208  17.896  0.00  0.00    +0.000 HD
ENDBRANCH  10  13
ENDBRANCH   5   6
BRANCH   1  18
ATOM     15  C   UNL     1       6.877   5.842  15.569  0.00  0.00    +0.000 A 
ATOM     16  C   UNL     1       5.570   5.445  15.282  0.00  0.00    +0.000 A 
ATOM     17  C   UNL     1       4.494   5.920  16.042  0.00  0.00    +0.000 A 
ATOM     18  C   UNL     1       4.706   6.784  17.125  0.00  0.00    +0.000 A 
ATOM     19  C   UNL     1       6.029   7.140  17.427  0.00  0.00    +0.000 A 
ATOM     20  C   UNL     1       7.103   6.689  16.648  0.00  0.00    +0.000 A 
BRANCH  15  22
ATOM     21  C   UNL     1       7.414   4.857  13.486  0.00  0.00    +0.000 C 
ATOM     22  O   UNL     1       7.845   5.304  14.767  0.00  0.00    +0.000 OA
ENDBRANCH  15  22
ENDBRANCH   1  18
BRANCH   3  23
ATOM     23  C   UNL     1       1.070   9.711  18.426  0.00  0.00    +0.000 A 
ATOM     24  C   UNL     1      -0.252   9.539  17.997  0.00  0.00    +0.000 A 
ATOM     25  C   UNL     1      -1.124  10.631  17.948  0.00  0.00    +0.000 A 
ATOM     26  C   UNL     1      -0.681  11.900  18.320  0.00  0.00    +0.000 A 
ATOM     27  C   UNL     1       0.632  12.079  18.751  0.00  0.00    +0.000 A 
ATOM     28  C   UNL     1       1.505  10.992  18.805  0.00  0.00    +0.000 A 
ENDBRANCH   3  23
TORSDOF 5
ENDMDL
MODEL 9
REMARK VINA RESULT:      -7.4      4.031      7.006
REMARK  Name = 
REMARK  6 active torsions:
REMARK  status: ('A' for Active; 'I' for Inactive)
REMARK    1  A    between atoms: C_1  and  O_2
REMARK    2  A    between atoms: O_2  and  C_3
REMARK    3  A    between atoms: C_6  and  C_7
REMARK    4  A    between atoms: N_9  and  C_10
REMARK    5  A    between atoms: C_17  and  C_18
REMARK    6  A    between atoms: C_22  and  O_23
REMARK                            x       y       z     vdW  Elec       q    Type
REMARK                         _______ _______ _______ _____ _____    ______ ____
ROOT
ATOM      1  C   UNL     1       6.282   5.727  16.665  0.00  0.00    +0.000 A 
ATOM      2  N   UNL     1       6.538   5.479  15.369  0.00  0.00    +0.000 NA
ATOM      3  N   UNL     1       5.686   4.497  14.997  0.00  0.00    +0.000 N 
ATOM      4  C   UNL     1       4.863   4.141  16.035  0.00  0.00    +0.000 A 
ATOM      5  C   UNL     1       5.207   4.906  17.133  0.00  0.00    +0.000 A 
ENDROOT
BRANCH   5   6
ATOM      6  C   UNL     1       4.613   4.826  18.507  0.00  0.00    +0.000 C 
ATOM      7  O   UNL     1       5.425   3.949  19.313  0.00  0.00    +0.000 OA
ATOM      8  C   UNL     1       4.706   2.844  19.627  0.00  0.00    +0.000 C 
ATOM      9  O   UNL     1       5.110   1.853  20.209  0.00  0.00    +0.000 OA
ATOM     10  C   UNL     1       3.315   3.035  19.202  0.00  0.00    +0.000 C 
ATOM     11  C   UNL     1       3.263   4.205  18.575  0.00  0.00    +0.000 C 
ATOM     12 BR   UNL     1       1.782   5.065  17.900  0.00  0.00    +0.000 Br
BRANCH  10  13
ATOM     13  O   UNL     1       2.307   2.152  19.462  0.00  0.00    +0.000 OA
ATOM     14  H   UNL     1       2.657   1.267  19.226  0.00  0.00    +0.000 HD
ENDBRANCH  10  13
ENDBRANCH   5   6
BRANCH   1  18
ATOM     15  C   UNL     1       8.555   8.700  18.795  0.00  0.00    +0.000 A 
ATOM     16  C   UNL     1       7.812   9.041  17.663  0.00  0.00    +0.000 A 
ATOM     17  C   UNL     1       7.067   8.073  16.979  0.00  0.00    +0.000 A 
ATOM     18  C   UNL     1       7.070   6.735  17.398  0.00  0.00    +0.000 A 
ATOM     19  C   UNL     1       7.855   6.401  18.511  0.00  0.00    +0.000 A 
ATOM     20  C   UNL     1       8.577   7.375  19.215  0.00  0.00    +0.000 A 
BRANCH  15  22
ATOM     21  C   UNL     1       9.399  10.900  18.581  0.00  0.00    +0.000 C 
ATOM     22  O   UNL     1       9.252   9.726  19.371  0.00  0.00    +0.000 OA
ENDBRANCH  15  22
ENDBRANCH   1  18
BRANCH   3  23
ATOM     23  C   UNL     1       5.697   3.944  13.683  0.00  0.00    +0.000 A 
ATOM     24  C   UNL     1       6.915   3.701  13.036  0.00  0.00    +0.000 A 
ATOM     25  C   UNL     1       6.932   3.151  11.751  0.00  0.00    +0.000 A 
ATOM     26  C   UNL     1       5.735   2.847  11.102  0.00  0.00    +0.000 A 
ATOM     27  C   UNL     1       4.519   3.083  11.739  0.00  0.00    +0.000 A 
ATOM     28  C   UNL     1       4.497   3.628  13.024  0.00  0.00    +0.000 A 
ENDBRANCH   3  23
TORSDOF 5
ENDMDL
