MODEL 1
REMARK VINA RESULT:      -7.8      0.000      0.000
REMARK  Name = 
REMARK  7 active torsions:
REMARK  status: ('A' for Active; 'I' for Inactive)
REMARK    1  A    between atoms: C_1  and  C_2
REMARK    2  A    between atoms: C_2  and  C_3
REMARK    3  A    between atoms: C_5  and  C_6
REMARK    4  A    between atoms: N_8  and  C_9
REMARK    5  A    between atoms: C_17  and  C_18
REMARK    6  A    between atoms: N_20  and  C_21
REMARK    7  A    between atoms: C_21  and  C_22
REMARK                            x       y       z     vdW  Elec       q    Type
REMARK                         _______ _______ _______ _____ _____    ______ ____
ROOT
ATOM      1  C   UNL     1       2.407   3.710  17.993  0.00  0.00    +0.000 A 
ATOM      2  C   UNL     1       2.021   4.938  18.529  0.00  0.00    +0.000 A 
ATOM      3  C   UNL     1       2.843   6.057  18.334  0.00  0.00    +0.000 A 
ATOM      4  C   UNL     1       4.043   5.900  17.612  0.00  0.00    +0.000 A 
ATOM      5  C   UNL     1       5.168   6.662  17.175  0.00  0.00    +0.000 A 
ATOM      6  C   UNL     1       5.522   8.088  17.398  0.00  0.00    +0.000 C 
ATOM      7  N   UNL     1       6.038   5.922  16.470  0.00  0.00    +0.000 NA
ATOM      8  N   UNL     1       5.496   4.686  16.474  0.00  0.00    +0.000 N 
ATOM      9  C   UNL     1       4.304   4.615  17.141  0.00  0.00    +0.000 A 
ATOM     10  N   UNL     1       3.543   3.515  17.293  0.00  0.00    +0.000 NA
ENDROOT
BRANCH   3  11
ATOM     11  C   UNL     1       2.372   7.377  18.795  0.00  0.00    +0.000 C 
ATOM     12  O   UNL     1       2.338   7.591  19.999  0.00  0.00    +0.000 OA
ATOM     13  N   UNL     1       1.980   8.255  17.793  0.00  0.00    +0.000 N 
ATOM     14  H   UNL     1       1.789   7.865  16.878  0.00  0.00    +0.000 HD
BRANCH  13  15
ATOM     15  C   UNL     1       1.500   9.559  18.048  0.00  0.00    +0.000 A 
ATOM     16  C   UNL     1       2.352  10.668  18.127  0.00  0.00    +0.000 A 
ATOM     17  C   UNL     1       1.847  11.938  18.429  0.00  0.00    +0.000 A 
ATOM     18  C   UNL     1       0.487  12.100  18.676  0.00  0.00    +0.000 A 
ATOM     19  C   UNL     1      -0.357  11.000  18.579  0.00  0.00    +0.000 A 
ATOM     20  F   UNL     1      -1.662  11.151  18.844  0.00  0.00    +0.000 F 
ATOM     21  C   UNL     1       0.128   9.740  18.238  0.00  0.00    +0.000 A 
ENDBRANCH  13  15
ENDBRANCH   3  11
BRANCH   1  23
ATOM     22  C   UNL     1       0.671   2.666  19.441  0.00  0.00    +0.000 C 
ATOM     23  C   UNL     1       1.548   2.490  18.213  0.00  0.00    +0.000 C 
ENDBRANCH   1  23
BRANCH   8  24
ATOM     24  C   UNL     1       6.128   3.613  15.727  0.00  0.00    +0.000 C 
BRANCH  24  25
ATOM     25  C   UNL     1       6.496   4.028  14.323  0.00  0.00    +0.000 A 
ATOM     26  C   UNL     1       7.523   4.956  14.102  0.00  0.00    +0.000 A 
ATOM     27  C   UNL     1       7.903   5.295  12.803  0.00  0.00    +0.000 A 
ATOM     28  C   UNL     1       7.253   4.719  11.713  0.00  0.00    +0.000 A 
ATOM     29  C   UNL     1       6.208   3.821  11.921  0.00  0.00    +0.000 A 
ATOM     30  C   UNL     1       5.826   3.482  13.220  0.00  0.00    +0.000 A 
ENDBRANCH  24  25
ENDBRANCH   8  24
TORSDOF 5
ENDMDL
MODEL 2
REMARK VINA RESULT:      -7.6      0.957      1.581
REMARK  Name = 
REMARK  7 active torsions:
REMARK  status: ('A' for Active; 'I' for Inactive)
REMARK    1  A    between atoms: C_1  and  C_2
REMARK    2  A    between atoms: C_2  and  C_3
REMARK    3  A    between atoms: C_5  and  C_6
REMARK    4  A    between atoms: N_8  and  C_9
REMARK    5  A    between atoms: C_17  and  C_18
REMARK    6  A    between atoms: N_20  and  C_21
REMARK    7  A    between atoms: C_21  and  C_22
REMARK                            x       y       z     vdW  Elec       q    Type
REMARK                         _______ _______ _______ _____ _____    ______ ____
ROOT
ATOM      1  C   UNL     1       2.152   3.729  18.141  0.00  0.00    +0.000 A 
ATOM      2  C   UNL     1       1.848   4.979  18.678  0.00  0.00    +0.000 A 
ATOM      3  C   UNL     1       2.695   6.062  18.411  0.00  0.00    +0.000 A 
ATOM      4  C   UNL     1       3.839   5.849  17.615  0.00  0.00    +0.000 A 
ATOM      5  C   UNL     1       4.960   6.562  17.093  0.00  0.00    +0.000 A 
ATOM      6  C   UNL     1       5.379   7.977  17.268  0.00  0.00    +0.000 C 
ATOM      7  N   UNL     1       5.755   5.778  16.347  0.00  0.00    +0.000 NA
ATOM      8  N   UNL     1       5.170   4.564  16.408  0.00  0.00    +0.000 N 
ATOM      9  C   UNL     1       4.022   4.549  17.153  0.00  0.00    +0.000 A 
ATOM     10  N   UNL     1       3.233   3.480  17.373  0.00  0.00    +0.000 NA
ENDROOT
BRANCH   3  11
ATOM     11  C   UNL     1       2.303   7.406  18.877  0.00  0.00    +0.000 C 
ATOM     12  O   UNL     1       2.360   7.642  20.076  0.00  0.00    +0.000 OA
ATOM     13  N   UNL     1       1.874   8.281  17.887  0.00  0.00    +0.000 N 
ATOM     14  H   UNL     1       1.607   7.883  16.995  0.00  0.00    +0.000 HD
BRANCH  13  15
ATOM     15  C   UNL     1       1.459   9.606  18.149  0.00  0.00    +0.000 A 
ATOM     16  C   UNL     1       0.131   9.925  18.462  0.00  0.00    +0.000 A 
ATOM     17  C   UNL     1      -0.255  11.254  18.668  0.00  0.00    +0.000 A 
ATOM     18  C   UNL     1       0.682  12.274  18.540  0.00  0.00    +0.000 A 
ATOM     19  C   UNL     1       2.002  11.952  18.246  0.00  0.00    +0.000 A 
ATOM     20  F   UNL     1       2.899  12.935  18.095  0.00  0.00    +0.000 F 
ATOM     21  C   UNL     1       2.407  10.628  18.081  0.00  0.00    +0.000 A 
ENDBRANCH  13  15
ENDBRANCH   3  11
BRANCH   1  23
ATOM     22  C   UNL     1       0.823   2.558  19.892  0.00  0.00    +0.000 C 
ATOM     23  C   UNL     1       1.266   2.545  18.438  0.00  0.00    +0.000 C 
ENDBRANCH   1  23
BRANCH   8  24
ATOM     24  C   UNL     1       5.712   3.456  15.642  0.00  0.00    +0.000 C 
BRANCH  24  25
ATOM     25  C   UNL     1       6.315   3.903  14.333  0.00  0.00    +0.000 A 
ATOM     26  C   UNL     1       5.829   3.400  13.117  0.00  0.00    +0.000 A 
ATOM     27  C   UNL     1       6.346   3.859  11.905  0.00  0.00    +0.000 A 
ATOM     28  C   UNL     1       7.360   4.814  11.895  0.00  0.00    +0.000 A 
ATOM     29  C   UNL     1       7.875   5.296  13.098  0.00  0.00    +0.000 A 
ATOM     30  C   UNL     1       7.360   4.837  14.312  0.00  0.00    +0.000 A 
ENDBRANCH  24  25
ENDBRANCH   8  24
TORSDOF 5
ENDMDL
MODEL 3
REMARK VINA RESULT:      -7.5      4.289     10.757
REMARK  Name = 
REMARK  7 active torsions:
REMARK  status: ('A' for Active; 'I' for Inactive)
REMARK    1  A    between atoms: C_1  and  C_2
REMARK    2  A    between atoms: C_2  and  C_3
REMARK    3  A    between atoms: C_5  and  C_6
REMARK    4  A    between atoms: N_8  and  C_9
REMARK    5  A    between atoms: C_17  and  C_18
REMARK    6  A    between atoms: N_20  and  C_21
REMARK    7  A    between atoms: C_21  and  C_22
REMARK                            x       y       z     vdW  Elec       q    Type
REMARK                         _______ _______ _______ _____ _____    ______ ____
ROOT
ATOM      1  C   UNL     1       1.096  13.084  19.564  0.00  0.00    +0.000 A 
ATOM      2  C   UNL     1       1.443  11.849  19.017  0.00  0.00    +0.000 A 
ATOM      3  C   UNL     1       1.009  10.676  19.649  0.00  0.00    +0.000 A 
ATOM      4  C   UNL     1       0.244  10.783  20.828  0.00  0.00    +0.000 A 
ATOM      5  C   UNL     1      -0.390   9.955  21.804  0.00  0.00    +0.000 A 
ATOM      6  C   UNL     1      -0.432   8.476  21.944  0.00  0.00    +0.000 C 
ATOM      7  N   UNL     1      -1.017  10.675  22.747  0.00  0.00    +0.000 NA
ATOM      8  N   UNL     1      -0.770  11.956  22.402  0.00  0.00    +0.000 N 
ATOM      9  C   UNL     1      -0.021  12.079  21.263  0.00  0.00    +0.000 A 
ATOM     10  N   UNL     1       0.364  13.234  20.687  0.00  0.00    +0.000 NA
ENDROOT
BRANCH   3  11
ATOM     11  C   UNL     1       1.272   9.377  19.000  0.00  0.00    +0.000 C 
ATOM     12  O   UNL     1       0.798   9.178  17.890  0.00  0.00    +0.000 OA
ATOM     13  N   UNL     1       2.027   8.480  19.744  0.00  0.00    +0.000 N 
ATOM     14  H   UNL     1       2.113   8.652  20.738  0.00  0.00    +0.000 HD
BRANCH  13  15
ATOM     15  C   UNL     1       2.374   7.189  19.284  0.00  0.00    +0.000 A 
ATOM     16  C   UNL     1       3.120   6.987  18.116  0.00  0.00    +0.000 A 
ATOM     17  C   UNL     1       3.405   5.693  17.665  0.00  0.00    +0.000 A 
ATOM     18  C   UNL     1       2.924   4.594  18.369  0.00  0.00    +0.000 A 
ATOM     19  C   UNL     1       2.199   4.799  19.538  0.00  0.00    +0.000 A 
ATOM     20  F   UNL     1       1.713   3.742  20.201  0.00  0.00    +0.000 F 
ATOM     21  C   UNL     1       1.947   6.082  20.019  0.00  0.00    +0.000 A 
ENDBRANCH  13  15
ENDBRANCH   3  11
BRANCH   1  23
ATOM     22  C   UNL     1       2.853  14.110  18.129  0.00  0.00    +0.000 C 
ATOM     23  C   UNL     1       1.574  14.356  18.912  0.00  0.00    +0.000 C 
ENDBRANCH   1  23
BRANCH   8  24
ATOM     24  C   UNL     1      -1.367  13.041  23.159  0.00  0.00    +0.000 C 
BRANCH  24  25
ATOM     25  C   UNL     1      -2.873  13.041  23.074  0.00  0.00    +0.000 A 
ATOM     26  C   UNL     1      -3.516  13.162  21.833  0.00  0.00    +0.000 A 
ATOM     27  C   UNL     1      -4.907  13.102  21.749  0.00  0.00    +0.000 A 
ATOM     28  C   UNL     1      -5.670  12.932  22.902  0.00  0.00    +0.000 A 
ATOM     29  C   UNL     1      -5.044  12.846  24.144  0.00  0.00    +0.000 A 
ATOM     30  C   UNL     1      -3.652  12.907  24.231  0.00  0.00    +0.000 A 
ENDBRANCH  24  25
ENDBRANCH   8  24
TORSDOF 5
ENDMDL
MODEL 4
REMARK VINA RESULT:      -7.5      1.818      1.931
REMARK  Name = 
REMARK  7 active torsions:
REMARK  status: ('A' for Active; 'I' for Inactive)
REMARK    1  A    between atoms: C_1  and  C_2
REMARK    2  A    between atoms: C_2  and  C_3
REMARK    3  A    between atoms: C_5  and  C_6
REMARK    4  A    between atoms: N_8  and  C_9
REMARK    5  A    between atoms: C_17  and  C_18
REMARK    6  A    between atoms: N_20  and  C_21
REMARK    7  A    between atoms: C_21  and  C_22
REMARK                            x       y       z     vdW  Elec       q    Type
REMARK                         _______ _______ _______ _____ _____    ______ ____
ROOT
ATOM      1  C   UNL     1       3.039   3.644  17.746  0.00  0.00    +0.000 A 
ATOM      2  C   UNL     1       2.399   4.791  18.211  0.00  0.00    +0.000 A 
ATOM      3  C   UNL     1       3.049   6.028  18.101  0.00  0.00    +0.000 A 
ATOM      4  C   UNL     1       4.339   6.069  17.533  0.00  0.00    +0.000 A 
ATOM      5  C   UNL     1       5.373   7.004  17.225  0.00  0.00    +0.000 A 
ATOM      6  C   UNL     1       5.464   8.467  17.469  0.00  0.00    +0.000 C 
ATOM      7  N   UNL     1       6.430   6.416  16.644  0.00  0.00    +0.000 NA
ATOM      8  N   UNL     1       6.096   5.109  16.601  0.00  0.00    +0.000 N 
ATOM      9  C   UNL     1       4.858   4.845  17.118  0.00  0.00    +0.000 A 
ATOM     10  N   UNL     1       4.270   3.636  17.193  0.00  0.00    +0.000 NA
ENDROOT
BRANCH   3  11
ATOM     11  C   UNL     1       2.320   7.253  18.480  0.00  0.00    +0.000 C 
ATOM     12  O   UNL     1       2.013   8.041  17.595  0.00  0.00    +0.000 OA
ATOM     13  N   UNL     1       2.072   7.406  19.838  0.00  0.00    +0.000 N 
ATOM     14  H   UNL     1       2.615   6.840  20.479  0.00  0.00    +0.000 HD
BRANCH  13  15
ATOM     15  C   UNL     1       1.390   8.517  20.382  0.00  0.00    +0.000 A 
ATOM     16  C   UNL     1       0.979   9.602  19.596  0.00  0.00    +0.000 A 
ATOM     17  C   UNL     1       0.349  10.707  20.178  0.00  0.00    +0.000 A 
ATOM     18  C   UNL     1       0.146  10.743  21.554  0.00  0.00    +0.000 A 
ATOM     19  C   UNL     1       0.540   9.658  22.328  0.00  0.00    +0.000 A 
ATOM     20  F   UNL     1       0.371   9.704  23.656  0.00  0.00    +0.000 F 
ATOM     21  C   UNL     1       1.130   8.533  21.754  0.00  0.00    +0.000 A 
ENDBRANCH  13  15
ENDBRANCH   3  11
BRANCH   1  23
ATOM     22  C   UNL     1       1.378   2.307  19.032  0.00  0.00    +0.000 C 
ATOM     23  C   UNL     1       2.366   2.301  17.878  0.00  0.00    +0.000 C 
ENDBRANCH   1  23
BRANCH   8  24
ATOM     24  C   UNL     1       6.979   4.155  15.953  0.00  0.00    +0.000 C 
BRANCH  24  25
ATOM     25  C   UNL     1       6.922   4.248  14.448  0.00  0.00    +0.000 A 
ATOM     26  C   UNL     1       7.739   5.157  13.760  0.00  0.00    +0.000 A 
ATOM     27  C   UNL     1       7.730   5.201  12.366  0.00  0.00    +0.000 A 
ATOM     28  C   UNL     1       6.897   4.347  11.646  0.00  0.00    +0.000 A 
ATOM     29  C   UNL     1       6.055   3.464  12.320  0.00  0.00    +0.000 A 
ATOM     30  C   UNL     1       6.062   3.419  13.715  0.00  0.00    +0.000 A 
ENDBRANCH  24  25
ENDBRANCH   8  24
TORSDOF 5
ENDMDL
MODEL 5
REMARK VINA RESULT:      -7.4      3.193      7.867
REMARK  Name = 
REMARK  7 active torsions:
REMARK  status: ('A' for Active; 'I' for Inactive)
REMARK    1  A    between atoms: C_1  and  C_2
REMARK    2  A    between atoms: C_2  and  C_3
REMARK    3  A    between atoms: C_5  and  C_6
REMARK    4  A    between atoms: N_8  and  C_9
REMARK    5  A    between atoms: C_17  and  C_18
REMARK    6  A    between atoms: N_20  and  C_21
REMARK    7  A    between atoms: C_21  and  C_22
REMARK                            x       y       z     vdW  Elec       q    Type
REMARK                         _______ _______ _______ _____ _____    ______ ____
ROOT
ATOM      1  C   UNL     1       3.216   3.675  20.052  0.00  0.00    +0.000 A 
ATOM      2  C   UNL     1       4.072   3.474  18.971  0.00  0.00    +0.000 A 
ATOM      3  C   UNL     1       4.335   4.541  18.100  0.00  0.00    +0.000 A 
ATOM      4  C   UNL     1       3.712   5.782  18.340  0.00  0.00    +0.000 A 
ATOM      5  C   UNL     1       3.633   7.095  17.785  0.00  0.00    +0.000 A 
ATOM      6  C   UNL     1       4.248   7.672  16.562  0.00  0.00    +0.000 C 
ATOM      7  N   UNL     1       2.839   7.902  18.508  0.00  0.00    +0.000 NA
ATOM      8  N   UNL     1       2.387   7.113  19.504  0.00  0.00    +0.000 N 
ATOM      9  C   UNL     1       2.876   5.836  19.453  0.00  0.00    +0.000 A 
ATOM     10  N   UNL     1       2.601   4.845  20.322  0.00  0.00    +0.000 NA
ENDROOT
BRANCH   3  11
ATOM     11  C   UNL     1       5.335   4.359  17.031  0.00  0.00    +0.000 C 
ATOM     12  O   UNL     1       6.494   4.134  17.355  0.00  0.00    +0.000 OA
ATOM     13  N   UNL     1       4.856   4.491  15.735  0.00  0.00    +0.000 N 
ATOM     14  H   UNL     1       3.961   4.950  15.611  0.00  0.00    +0.000 HD
BRANCH  13  15
ATOM     15  C   UNL     1       5.670   4.353  14.588  0.00  0.00    +0.000 A 
ATOM     16  C   UNL     1       6.842   5.099  14.409  0.00  0.00    +0.000 A 
ATOM     17  C   UNL     1       7.599   4.971  13.239  0.00  0.00    +0.000 A 
ATOM     18  C   UNL     1       7.173   4.112  12.231  0.00  0.00    +0.000 A 
ATOM     19  C   UNL     1       6.019   3.361  12.420  0.00  0.00    +0.000 A 
ATOM     20  F   UNL     1       5.593   2.555  11.437  0.00  0.00    +0.000 F 
ATOM     21  C   UNL     1       5.281   3.448  13.598  0.00  0.00    +0.000 A 
ENDBRANCH  13  15
ENDBRANCH   3  11
BRANCH   1  23
ATOM     22  C   UNL     1       1.537   2.723  21.626  0.00  0.00    +0.000 C 
ATOM     23  C   UNL     1       2.902   2.533  20.986  0.00  0.00    +0.000 C 
ENDBRANCH   1  23
BRANCH   8  24
ATOM     24  C   UNL     1       1.549   7.671  20.550  0.00  0.00    +0.000 C 
BRANCH  24  25
ATOM     25  C   UNL     1       1.047   9.052  20.209  0.00  0.00    +0.000 A 
ATOM     26  C   UNL     1       0.680   9.372  18.894  0.00  0.00    +0.000 A 
ATOM     27  C   UNL     1       0.159  10.630  18.590  0.00  0.00    +0.000 A 
ATOM     28  C   UNL     1       0.011  11.585  19.594  0.00  0.00    +0.000 A 
ATOM     29  C   UNL     1       0.405  11.291  20.898  0.00  0.00    +0.000 A 
ATOM     30  C   UNL     1       0.927  10.032  21.204  0.00  0.00    +0.000 A 
ENDBRANCH  24  25
ENDBRANCH   8  24
TORSDOF 5
ENDMDL
MODEL 6
REMARK VINA RESULT:      -7.4      4.399     10.875
REMARK  Name = 
REMARK  7 active torsions:
REMARK  status: ('A' for Active; 'I' for Inactive)
REMARK    1  A    between atoms: C_1  and  C_2
REMARK    2  A    between atoms: C_2  and  C_3
REMARK    3  A    between atoms: C_5  and  C_6
REMARK    4  A    between atoms: N_8  and  C_9
REMARK    5  A    between atoms: C_17  and  C_18
REMARK    6  A    between atoms: N_20  and  C_21
REMARK    7  A    between atoms: C_21  and  C_22
REMARK                            x       y       z     vdW  Elec       q    Type
REMARK                         _______ _______ _______ _____ _____    ______ ____
ROOT
ATOM      1  C   UNL     1       0.829  13.152  19.574  0.00  0.00    +0.000 A 
ATOM      2  C   UNL     1       1.222  11.930  19.030  0.00  0.00    +0.000 A 
ATOM      3  C   UNL     1       0.867  10.744  19.686  0.00  0.00    +0.000 A 
ATOM      4  C   UNL     1       0.133  10.826  20.886  0.00  0.00    +0.000 A 
ATOM      5  C   UNL     1      -0.429   9.979  21.889  0.00  0.00    +0.000 A 
ATOM      6  C   UNL     1      -0.392   8.502  22.045  0.00  0.00    +0.000 C 
ATOM      7  N   UNL     1      -1.064  10.677  22.843  0.00  0.00    +0.000 NA
ATOM      8  N   UNL     1      -0.893  11.965  22.477  0.00  0.00    +0.000 N 
ATOM      9  C   UNL     1      -0.185  12.112  21.316  0.00  0.00    +0.000 A 
ATOM     10  N   UNL     1       0.123  13.278  20.717  0.00  0.00    +0.000 NA
ENDROOT
BRANCH   3  11
ATOM     11  C   UNL     1       1.177   9.453  19.043  0.00  0.00    +0.000 C 
ATOM     12  O   UNL     1       0.748   9.250  17.916  0.00  0.00    +0.000 OA
ATOM     13  N   UNL     1       1.921   8.567  19.811  0.00  0.00    +0.000 N 
ATOM     14  H   UNL     1       1.968   8.737  20.808  0.00  0.00    +0.000 HD
BRANCH  13  15
ATOM     15  C   UNL     1       2.308   7.285  19.360  0.00  0.00    +0.000 A 
ATOM     16  C   UNL     1       3.000   7.092  18.157  0.00  0.00    +0.000 A 
ATOM     17  C   UNL     1       3.325   5.804  17.718  0.00  0.00    +0.000 A 
ATOM     18  C   UNL     1       2.939   4.699  18.470  0.00  0.00    +0.000 A 
ATOM     19  C   UNL     1       2.268   4.895  19.672  0.00  0.00    +0.000 A 
ATOM     20  F   UNL     1       1.871   3.831  20.382  0.00  0.00    +0.000 F 
ATOM     21  C   UNL     1       1.977   6.175  20.140  0.00  0.00    +0.000 A 
ENDBRANCH  13  15
ENDBRANCH   3  11
BRANCH   1  23
ATOM     22  C   UNL     1       0.065  15.424  18.900  0.00  0.00    +0.000 C 
ATOM     23  C   UNL     1       1.223  14.440  18.895  0.00  0.00    +0.000 C 
ENDBRANCH   1  23
BRANCH   8  24
ATOM     24  C   UNL     1      -1.522  13.027  23.241  0.00  0.00    +0.000 C 
BRANCH  24  25
ATOM     25  C   UNL     1      -3.029  12.966  23.178  0.00  0.00    +0.000 A 
ATOM     26  C   UNL     1      -3.778  12.674  24.327  0.00  0.00    +0.000 A 
ATOM     27  C   UNL     1      -5.173  12.677  24.281  0.00  0.00    +0.000 A 
ATOM     28  C   UNL     1      -5.832  12.960  23.086  0.00  0.00    +0.000 A 
ATOM     29  C   UNL     1      -5.097  13.218  21.931  0.00  0.00    +0.000 A 
ATOM     30  C   UNL     1      -3.702  13.215  21.974  0.00  0.00    +0.000 A 
ENDBRANCH  24  25
ENDBRANCH   8  24
TORSDOF 5
ENDMDL
MODEL 7
REMARK VINA RESULT:      -7.4      3.114      4.353
REMARK  Name = 
REMARK  7 active torsions:
REMARK  status: ('A' for Active; 'I' for Inactive)
REMARK    1  A    between atoms: C_1  and  C_2
REMARK    2  A    between atoms: C_2  and  C_3
REMARK    3  A    between atoms: C_5  and  C_6
REMARK    4  A    between atoms: N_8  and  C_9
REMARK    5  A    between atoms: C_17  and  C_18
REMARK    6  A    between atoms: N_20  and  C_21
REMARK    7  A    between atoms: C_21  and  C_22
REMARK                            x       y       z     vdW  Elec       q    Type
REMARK                         _______ _______ _______ _____ _____    ______ ____
ROOT
ATOM      1  C   UNL     1       2.185   5.399  20.710  0.00  0.00    +0.000 A 
ATOM      2  C   UNL     1       1.333   6.353  21.263  0.00  0.00    +0.000 A 
ATOM      3  C   UNL     1       1.172   7.584  20.614  0.00  0.00    +0.000 A 
ATOM      4  C   UNL     1       1.892   7.824  19.426  0.00  0.00    +0.000 A 
ATOM      5  C   UNL     1       2.088   8.848  18.450  0.00  0.00    +0.000 A 
ATOM      6  C   UNL     1       1.541  10.227  18.364  0.00  0.00    +0.000 C 
ATOM      7  N   UNL     1       2.934   8.466  17.480  0.00  0.00    +0.000 NA
ATOM      8  N   UNL     1       3.304   7.219  17.839  0.00  0.00    +0.000 N 
ATOM      9  C   UNL     1       2.712   6.785  18.993  0.00  0.00    +0.000 A 
ATOM     10  N   UNL     1       2.890   5.583  19.575  0.00  0.00    +0.000 NA
ENDROOT
BRANCH   3  11
ATOM     11  C   UNL     1       0.177   8.541  21.135  0.00  0.00    +0.000 C 
ATOM     12  O   UNL     1      -0.972   8.150  21.295  0.00  0.00    +0.000 OA
ATOM     13  N   UNL     1       0.648   9.825  21.371  0.00  0.00    +0.000 N 
ATOM     14  H   UNL     1       1.525  10.089  20.937  0.00  0.00    +0.000 HD
BRANCH  13  15
ATOM     15  C   UNL     1      -0.163  10.871  21.866  0.00  0.00    +0.000 A 
ATOM     16  C   UNL     1      -1.002  10.706  22.975  0.00  0.00    +0.000 A 
ATOM     17  C   UNL     1      -1.827  11.750  23.409  0.00  0.00    +0.000 A 
ATOM     18  C   UNL     1      -1.834  12.958  22.719  0.00  0.00    +0.000 A 
ATOM     19  C   UNL     1      -0.987  13.124  21.629  0.00  0.00    +0.000 A 
ATOM     20  F   UNL     1      -1.014  14.277  20.948  0.00  0.00    +0.000 F 
ATOM     21  C   UNL     1      -0.130  12.106  21.215  0.00  0.00    +0.000 A 
ENDBRANCH  13  15
ENDBRANCH   3  11
BRANCH   1  23
ATOM     22  C   UNL     1       1.302   3.091  21.015  0.00  0.00    +0.000 C 
ATOM     23  C   UNL     1       2.389   4.077  21.407  0.00  0.00    +0.000 C 
ENDBRANCH   1  23
BRANCH   8  24
ATOM     24  C   UNL     1       4.169   6.439  16.972  0.00  0.00    +0.000 C 
BRANCH  24  25
ATOM     25  C   UNL     1       5.587   6.372  17.484  0.00  0.00    +0.000 A 
ATOM     26  C   UNL     1       6.460   7.454  17.306  0.00  0.00    +0.000 A 
ATOM     27  C   UNL     1       7.752   7.415  17.832  0.00  0.00    +0.000 A 
ATOM     28  C   UNL     1       8.188   6.291  18.530  0.00  0.00    +0.000 A 
ATOM     29  C   UNL     1       7.340   5.195  18.682  0.00  0.00    +0.000 A 
ATOM     30  C   UNL     1       6.048   5.232  18.156  0.00  0.00    +0.000 A 
ENDBRANCH  24  25
ENDBRANCH   8  24
TORSDOF 5
ENDMDL
MODEL 8
REMARK VINA RESULT:      -7.4      2.359      2.603
REMARK  Name = 
REMARK  7 active torsions:
REMARK  status: ('A' for Active; 'I' for Inactive)
REMARK    1  A    between atoms: C_1  and  C_2
REMARK    2  A    between atoms: C_2  and  C_3
REMARK    3  A    between atoms: C_5  and  C_6
REMARK    4  A    between atoms: N_8  and  C_9
REMARK    5  A    between atoms: C_17  and  C_18
REMARK    6  A    between atoms: N_20  and  C_21
REMARK    7  A    between atoms: C_21  and  C_22
REMARK                            x       y       z     vdW  Elec       q    Type
REMARK                         _______ _______ _______ _____ _____    ______ ____
ROOT
ATOM      1  C   UNL     1       2.905   4.046  20.466  0.00  0.00    +0.000 A 
ATOM      2  C   UNL     1       2.285   5.269  20.719  0.00  0.00    +0.000 A 
ATOM      3  C   UNL     1       2.502   6.339  19.841  0.00  0.00    +0.000 A 
ATOM      4  C   UNL     1       3.353   6.147  18.734  0.00  0.00    +0.000 A 
ATOM      5  C   UNL     1       3.885   6.867  17.622  0.00  0.00    +0.000 A 
ATOM      6  C   UNL     1       3.722   8.287  17.215  0.00  0.00    +0.000 C 
ATOM      7  N   UNL     1       4.681   6.101  16.858  0.00  0.00    +0.000 NA
ATOM      8  N   UNL     1       4.685   4.906  17.483  0.00  0.00    +0.000 N 
ATOM      9  C   UNL     1       3.909   4.877  18.610  0.00  0.00    +0.000 A 
ATOM     10  N   UNL     1       3.724   3.816  19.419  0.00  0.00    +0.000 NA
ENDROOT
BRANCH   3  11
ATOM     11  C   UNL     1       1.748   7.591  20.043  0.00  0.00    +0.000 C 
ATOM     12  O   UNL     1       1.417   8.233  19.055  0.00  0.00    +0.000 OA
ATOM     13  N   UNL     1       1.507   7.937  21.366  0.00  0.00    +0.000 N 
ATOM     14  H   UNL     1       2.067   7.484  22.077  0.00  0.00    +0.000 HD
BRANCH  13  15
ATOM     15  C   UNL     1       0.804   9.102  21.748  0.00  0.00    +0.000 A 
ATOM     16  C   UNL     1      -0.111   9.109  22.809  0.00  0.00    +0.000 A 
ATOM     17  C   UNL     1      -0.825  10.270  23.129  0.00  0.00    +0.000 A 
ATOM     18  C   UNL     1      -0.643  11.424  22.373  0.00  0.00    +0.000 A 
ATOM     19  C   UNL     1       0.278  11.417  21.332  0.00  0.00    +0.000 A 
ATOM     20  F   UNL     1       0.433  12.519  20.587  0.00  0.00    +0.000 F 
ATOM     21  C   UNL     1       1.026  10.280  21.032  0.00  0.00    +0.000 A 
ENDBRANCH  13  15
ENDBRANCH   3  11
BRANCH   1  23
ATOM     22  C   UNL     1       1.223   2.632  21.637  0.00  0.00    +0.000 C 
ATOM     23  C   UNL     1       2.704   2.890  21.413  0.00  0.00    +0.000 C 
ENDBRANCH   1  23
BRANCH   8  24
ATOM     24  C   UNL     1       5.388   3.780  16.894  0.00  0.00    +0.000 C 
BRANCH  24  25
ATOM     25  C   UNL     1       5.910   4.087  15.512  0.00  0.00    +0.000 A 
ATOM     26  C   UNL     1       7.072   4.855  15.345  0.00  0.00    +0.000 A 
ATOM     27  C   UNL     1       7.588   5.089  14.070  0.00  0.00    +0.000 A 
ATOM     28  C   UNL     1       6.944   4.568  12.950  0.00  0.00    +0.000 A 
ATOM     29  C   UNL     1       5.769   3.833  13.101  0.00  0.00    +0.000 A 
ATOM     30  C   UNL     1       5.251   3.599  14.376  0.00  0.00    +0.000 A 
ENDBRANCH  24  25
ENDBRANCH   8  24
TORSDOF 5
ENDMDL
MODEL 9
REMARK VINA RESULT:      -7.4      4.639      8.607
REMARK  Name = 
REMARK  7 active torsions:
REMARK  status: ('A' for Active; 'I' for Inactive)
REMARK    1  A    between atoms: C_1  and  C_2
REMARK    2  A    between atoms: C_2  and  C_3
REMARK    3  A    between atoms: C_5  and  C_6
REMARK    4  A    between atoms: N_8  and  C_9
REMARK    5  A    between atoms: C_17  and  C_18
REMARK    6  A    between atoms: N_20  and  C_21
REMARK    7  A    between atoms: C_21  and  C_22
REMARK                            x       y       z     vdW  Elec       q    Type
REMARK                         _______ _______ _______ _____ _____    ______ ____
ROOT
ATOM      1  C   UNL     1       0.155   9.685  21.989  0.00  0.00    +0.000 A 
ATOM      2  C   UNL     1       0.603   8.387  21.746  0.00  0.00    +0.000 A 
ATOM      3  C   UNL     1       1.253   8.104  20.538  0.00  0.00    +0.000 A 
ATOM      4  C   UNL     1       1.421   9.141  19.598  0.00  0.00    +0.000 A 
ATOM      5  C   UNL     1       1.962   9.364  18.296  0.00  0.00    +0.000 A 
ATOM      6  C   UNL     1       2.596   8.426  17.333  0.00  0.00    +0.000 C 
ATOM      7  N   UNL     1       1.831  10.642  17.906  0.00  0.00    +0.000 NA
ATOM      8  N   UNL     1       1.188  11.234  18.933  0.00  0.00    +0.000 N 
ATOM      9  C   UNL     1       0.918  10.384  19.971  0.00  0.00    +0.000 A 
ATOM     10  N   UNL     1       0.297  10.708  21.121  0.00  0.00    +0.000 NA
ENDROOT
BRANCH   3  11
ATOM     11  C   UNL     1       1.833   6.763  20.338  0.00  0.00    +0.000 C 
ATOM     12  O   UNL     1       3.033   6.679  20.110  0.00  0.00    +0.000 OA
ATOM     13  N   UNL     1       0.935   5.706  20.404  0.00  0.00    +0.000 N 
ATOM     14  H   UNL     1      -0.050   5.923  20.314  0.00  0.00    +0.000 HD
BRANCH  13  15
ATOM     15  C   UNL     1       1.312   4.355  20.234  0.00  0.00    +0.000 A 
ATOM     16  C   UNL     1       1.582   3.511  21.319  0.00  0.00    +0.000 A 
ATOM     17  C   UNL     1       1.999   2.191  21.112  0.00  0.00    +0.000 A 
ATOM     18  C   UNL     1       2.169   1.715  19.816  0.00  0.00    +0.000 A 
ATOM     19  C   UNL     1       1.884   2.550  18.742  0.00  0.00    +0.000 A 
ATOM     20  F   UNL     1       2.075   2.102  17.494  0.00  0.00    +0.000 F 
ATOM     21  C   UNL     1       1.427   3.852  18.936  0.00  0.00    +0.000 A 
ENDBRANCH  13  15
ENDBRANCH   3  11
BRANCH   1  23
ATOM     22  C   UNL     1      -1.451  11.229  23.102  0.00  0.00    +0.000 C 
ATOM     23  C   UNL     1      -0.568  10.004  23.274  0.00  0.00    +0.000 C 
ENDBRANCH   1  23
BRANCH   8  24
ATOM     24  C   UNL     1       0.938  12.665  18.906  0.00  0.00    +0.000 C 
BRANCH  24  25
ATOM     25  C   UNL     1       2.181  13.471  19.190  0.00  0.00    +0.000 A 
ATOM     26  C   UNL     1       2.889  14.079  18.144  0.00  0.00    +0.000 A 
ATOM     27  C   UNL     1       4.004  14.874  18.412  0.00  0.00    +0.000 A 
ATOM     28  C   UNL     1       4.429  15.060  19.726  0.00  0.00    +0.000 A 
ATOM     29  C   UNL     1       3.754  14.433  20.771  0.00  0.00    +0.000 A 
ATOM     30  C   UNL     1       2.639  13.636  20.505  0.00  0.00    +0.000 A 
ENDBRANCH  24  25
ENDBRANCH   8  24
TORSDOF 5
ENDMDL
