MODEL 1
REMARK VINA RESULT:      -8.5      0.000      0.000
REMARK  Name = 
REMARK  5 active torsions:
REMARK  status: ('A' for Active; 'I' for Inactive)
REMARK    1  A    between atoms: C_2  and  C_17
REMARK    2  A    between atoms: N_3  and  C_4
REMARK    3  A    between atoms: C_8  and  C_9
REMARK    4  A    between atoms: N_20  and  C_21
REMARK    5  A    between atoms: C_21  and  C_22
REMARK                            x       y       z     vdW  Elec       q    Type
REMARK                         _______ _______ _______ _____ _____    ______ ____
ROOT
ATOM      1  O   UNL     1       5.296   2.028  19.745  0.00  0.00    +0.000 OA
ATOM      2  C   UNL     1       4.270   2.683  19.586  0.00  0.00    +0.000 C 
ATOM      3  N   UNL     1       4.198   3.895  18.914  0.00  0.00    +0.000 N 
ATOM      4  H   UNL     1       3.315   4.389  18.923  0.00  0.00    +0.000 HD
ENDROOT
BRANCH   3   5
ATOM      5  C   UNL     1       5.270   4.543  18.255  0.00  0.00    +0.000 A 
ATOM      6  C   UNL     1       6.150   5.408  18.904  0.00  0.00    +0.000 A 
ATOM      7  C   UNL     1       7.204   5.995  18.214  0.00  0.00    +0.000 A 
ATOM      8  C   UNL     1       7.386   5.729  16.858  0.00  0.00    +0.000 A 
ATOM      9  C   UNL     1       6.514   4.882  16.153  0.00  0.00    +0.000 A 
ATOM     10  C   UNL     1       5.461   4.287  16.886  0.00  0.00    +0.000 A 
BRANCH   9  11
ATOM     11  C   UNL     1       6.696   4.650  14.696  0.00  0.00    +0.000 A 
ATOM     12  C   UNL     1       7.628   5.398  13.945  0.00  0.00    +0.000 A 
ATOM     13  C   UNL     1       7.818   5.183  12.576  0.00  0.00    +0.000 A 
ATOM     14  C   UNL     1       7.063   4.221  11.915  0.00  0.00    +0.000 A 
ATOM     15  C   UNL     1       6.131   3.476  12.629  0.00  0.00    +0.000 A 
ATOM     16 CL   UNL     1       5.183   2.293  11.814  0.00  0.00    +0.000 Cl
ATOM     17  C   UNL     1       5.953   3.678  14.002  0.00  0.00    +0.000 A 
ENDBRANCH   9  11
ENDBRANCH   3   5
BRANCH   2  18
ATOM     18  C   UNL     1       2.923   2.164  20.113  0.00  0.00    +0.000 C 
ATOM     19  C   UNL     1       1.753   2.405  19.159  0.00  0.00    +0.000 C 
ATOM     20  C   UNL     1       1.346   3.881  19.097  0.00  0.00    +0.000 C 
ATOM     21  N   UNL     1       1.023   4.421  20.427  0.00  0.00    +0.000 NA
ATOM     22  C   UNL     1       2.173   4.264  21.339  0.00  0.00    +0.000 C 
ATOM     23  C   UNL     1       2.590   2.794  21.474  0.00  0.00    +0.000 C 
BRANCH  21  24
ATOM     24  C   UNL     1       0.627   5.850  20.374  0.00  0.00    +0.000 C 
BRANCH  24  25
ATOM     25  C   UNL     1       1.797   6.848  20.497  0.00  0.00    +0.000 C 
ATOM     26  C   UNL     1       1.380   8.185  21.079  0.00  0.00    +0.000 C 
ATOM     27  C   UNL     1       1.213   9.098  19.886  0.00  0.00    +0.000 C 
ATOM     28  O   UNL     1       1.938   8.533  18.795  0.00  0.00    +0.000 OA
ATOM     29  C   UNL     1       2.401   7.226  19.153  0.00  0.00    +0.000 C 
ENDBRANCH  24  25
ENDBRANCH  21  24
ENDBRANCH   2  18
TORSDOF 5
ENDMDL
MODEL 2
REMARK VINA RESULT:      -8.4      3.315      6.083
REMARK  Name = 
REMARK  5 active torsions:
REMARK  status: ('A' for Active; 'I' for Inactive)
REMARK    1  A    between atoms: C_2  and  C_17
REMARK    2  A    between atoms: N_3  and  C_4
REMARK    3  A    between atoms: C_8  and  C_9
REMARK    4  A    between atoms: N_20  and  C_21
REMARK    5  A    between atoms: C_21  and  C_22
REMARK                            x       y       z     vdW  Elec       q    Type
REMARK                         _______ _______ _______ _____ _____    ______ ____
ROOT
ATOM      1  O   UNL     1       1.670   8.657  18.861  0.00  0.00    +0.000 OA
ATOM      2  C   UNL     1       1.476   8.564  20.069  0.00  0.00    +0.000 C 
ATOM      3  N   UNL     1       1.586   7.392  20.803  0.00  0.00    +0.000 N 
ATOM      4  H   UNL     1       1.314   7.417  21.777  0.00  0.00    +0.000 HD
ENDROOT
BRANCH   3   5
ATOM      5  C   UNL     1       1.994   6.133  20.301  0.00  0.00    +0.000 A 
ATOM      6  C   UNL     1       1.265   4.962  20.503  0.00  0.00    +0.000 A 
ATOM      7  C   UNL     1       1.698   3.756  19.962  0.00  0.00    +0.000 A 
ATOM      8  C   UNL     1       2.873   3.708  19.214  0.00  0.00    +0.000 A 
ATOM      9  C   UNL     1       3.655   4.857  19.000  0.00  0.00    +0.000 A 
ATOM     10  C   UNL     1       3.181   6.070  19.549  0.00  0.00    +0.000 A 
BRANCH   9  11
ATOM     11  C   UNL     1       4.931   4.774  18.242  0.00  0.00    +0.000 A 
ATOM     12  C   UNL     1       6.162   5.127  18.838  0.00  0.00    +0.000 A 
ATOM     13  C   UNL     1       7.371   5.044  18.141  0.00  0.00    +0.000 A 
ATOM     14  C   UNL     1       7.380   4.622  16.817  0.00  0.00    +0.000 A 
ATOM     15  C   UNL     1       6.180   4.278  16.203  0.00  0.00    +0.000 A 
ATOM     16 CL   UNL     1       6.182   3.767  14.559  0.00  0.00    +0.000 Cl
ATOM     17  C   UNL     1       4.973   4.343  16.905  0.00  0.00    +0.000 A 
ENDBRANCH   9  11
ENDBRANCH   3   5
BRANCH   2  18
ATOM     18  C   UNL     1       1.116   9.807  20.899  0.00  0.00    +0.000 C 
ATOM     19  C   UNL     1      -0.364   9.892  21.272  0.00  0.00    +0.000 C 
ATOM     20  C   UNL     1      -1.250  10.236  20.071  0.00  0.00    +0.000 C 
ATOM     21  N   UNL     1      -0.830  11.483  19.414  0.00  0.00    +0.000 NA
ATOM     22  C   UNL     1       0.577  11.387  18.978  0.00  0.00    +0.000 C 
ATOM     23  C   UNL     1       1.514  11.092  20.156  0.00  0.00    +0.000 C 
BRANCH  21  24
ATOM     24  C   UNL     1      -1.685  11.823  18.249  0.00  0.00    +0.000 C 
BRANCH  24  25
ATOM     25  C   UNL     1      -2.665  10.710  17.823  0.00  0.00    +0.000 C 
ATOM     26  C   UNL     1      -2.235   9.992  16.558  0.00  0.00    +0.000 C 
ATOM     27  C   UNL     1      -3.049  10.621  15.452  0.00  0.00    +0.000 C 
ATOM     28  O   UNL     1      -4.182  11.254  16.046  0.00  0.00    +0.000 OA
ATOM     29  C   UNL     1      -4.048  11.235  17.472  0.00  0.00    +0.000 C 
ENDBRANCH  24  25
ENDBRANCH  21  24
ENDBRANCH   2  18
TORSDOF 5
ENDMDL
MODEL 3
REMARK VINA RESULT:      -8.0      3.580      6.232
REMARK  Name = 
REMARK  5 active torsions:
REMARK  status: ('A' for Active; 'I' for Inactive)
REMARK    1  A    between atoms: C_2  and  C_17
REMARK    2  A    between atoms: N_3  and  C_4
REMARK    3  A    between atoms: C_8  and  C_9
REMARK    4  A    between atoms: N_20  and  C_21
REMARK    5  A    between atoms: C_21  and  C_22
REMARK                            x       y       z     vdW  Elec       q    Type
REMARK                         _______ _______ _______ _____ _____    ______ ____
ROOT
ATOM      1  O   UNL     1       1.634   8.809  19.037  0.00  0.00    +0.000 OA
ATOM      2  C   UNL     1       1.397   8.640  20.230  0.00  0.00    +0.000 C 
ATOM      3  N   UNL     1       1.486   7.423  20.891  0.00  0.00    +0.000 N 
ATOM      4  H   UNL     1       1.181   7.387  21.855  0.00  0.00    +0.000 HD
ENDROOT
BRANCH   3   5
ATOM      5  C   UNL     1       1.917   6.200  20.325  0.00  0.00    +0.000 A 
ATOM      6  C   UNL     1       1.319   4.975  20.618  0.00  0.00    +0.000 A 
ATOM      7  C   UNL     1       1.765   3.806  20.010  0.00  0.00    +0.000 A 
ATOM      8  C   UNL     1       2.823   3.850  19.104  0.00  0.00    +0.000 A 
ATOM      9  C   UNL     1       3.474   5.056  18.792  0.00  0.00    +0.000 A 
ATOM     10  C   UNL     1       2.987   6.229  19.413  0.00  0.00    +0.000 A 
BRANCH   9  11
ATOM     11  C   UNL     1       4.632   5.074  17.861  0.00  0.00    +0.000 A 
ATOM     12  C   UNL     1       4.822   4.050  16.907  0.00  0.00    +0.000 A 
ATOM     13  C   UNL     1       5.901   4.060  16.018  0.00  0.00    +0.000 A 
ATOM     14  C   UNL     1       6.834   5.088  16.071  0.00  0.00    +0.000 A 
ATOM     15  C   UNL     1       6.676   6.103  17.009  0.00  0.00    +0.000 A 
ATOM     16 CL   UNL     1       7.836   7.373  17.090  0.00  0.00    +0.000 Cl
ATOM     17  C   UNL     1       5.588   6.105  17.886  0.00  0.00    +0.000 A 
ENDBRANCH   9  11
ENDBRANCH   3   5
BRANCH   2  18
ATOM     18  C   UNL     1       1.003   9.827  21.123  0.00  0.00    +0.000 C 
ATOM     19  C   UNL     1      -0.483   9.862  21.481  0.00  0.00    +0.000 C 
ATOM     20  C   UNL     1      -1.360  10.256  20.290  0.00  0.00    +0.000 C 
ATOM     21  N   UNL     1      -0.958  11.547  19.709  0.00  0.00    +0.000 NA
ATOM     22  C   UNL     1       0.456  11.502  19.287  0.00  0.00    +0.000 C 
ATOM     23  C   UNL     1       1.385  11.158  20.459  0.00  0.00    +0.000 C 
BRANCH  21  24
ATOM     24  C   UNL     1      -1.805  11.935  18.555  0.00  0.00    +0.000 C 
BRANCH  24  25
ATOM     25  C   UNL     1      -2.703  10.806  18.006  0.00  0.00    +0.000 C 
ATOM     26  C   UNL     1      -2.140  10.152  16.758  0.00  0.00    +0.000 C 
ATOM     27  C   UNL     1      -2.879  10.796  15.609  0.00  0.00    +0.000 C 
ATOM     28  O   UNL     1      -4.081  11.366  16.124  0.00  0.00    +0.000 OA
ATOM     29  C   UNL     1      -4.069  11.297  17.555  0.00  0.00    +0.000 C 
ENDBRANCH  24  25
ENDBRANCH  21  24
ENDBRANCH   2  18
TORSDOF 5
ENDMDL
MODEL 4
REMARK VINA RESULT:      -7.8      3.828      8.437
REMARK  Name = 
REMARK  5 active torsions:
REMARK  status: ('A' for Active; 'I' for Inactive)
REMARK    1  A    between atoms: C_2  and  C_17
REMARK    2  A    between atoms: N_3  and  C_4
REMARK    3  A    between atoms: C_8  and  C_9
REMARK    4  A    between atoms: N_20  and  C_21
REMARK    5  A    between atoms: C_21  and  C_22
REMARK                            x       y       z     vdW  Elec       q    Type
REMARK                         _______ _______ _______ _____ _____    ______ ____
ROOT
ATOM      1  O   UNL     1       0.707   4.852  19.819  0.00  0.00    +0.000 OA
ATOM      2  C   UNL     1       1.934   4.833  19.778  0.00  0.00    +0.000 C 
ATOM      3  N   UNL     1       2.735   5.923  19.471  0.00  0.00    +0.000 N 
ATOM      4  H   UNL     1       3.730   5.767  19.380  0.00  0.00    +0.000 HD
ENDROOT
BRANCH   3   5
ATOM      5  C   UNL     1       2.283   7.240  19.216  0.00  0.00    +0.000 A 
ATOM      6  C   UNL     1       2.569   7.925  18.036  0.00  0.00    +0.000 A 
ATOM      7  C   UNL     1       2.074   9.208  17.825  0.00  0.00    +0.000 A 
ATOM      8  C   UNL     1       1.290   9.823  18.798  0.00  0.00    +0.000 A 
ATOM      9  C   UNL     1       0.991   9.183  20.014  0.00  0.00    +0.000 A 
ATOM     10  C   UNL     1       1.495   7.874  20.192  0.00  0.00    +0.000 A 
BRANCH   9  11
ATOM     11  C   UNL     1       0.195   9.876  21.060  0.00  0.00    +0.000 A 
ATOM     12  C   UNL     1       0.085   9.350  22.365  0.00  0.00    +0.000 A 
ATOM     13  C   UNL     1      -0.652   9.997  23.363  0.00  0.00    +0.000 A 
ATOM     14  C   UNL     1      -1.316  11.184  23.075  0.00  0.00    +0.000 A 
ATOM     15  C   UNL     1      -1.231  11.718  21.793  0.00  0.00    +0.000 A 
ATOM     16 CL   UNL     1      -2.063  13.180  21.425  0.00  0.00    +0.000 Cl
ATOM     17  C   UNL     1      -0.480  11.082  20.800  0.00  0.00    +0.000 A 
ENDBRANCH   9  11
ENDBRANCH   3   5
BRANCH   2  18
ATOM     18  C   UNL     1       2.705   3.547  20.117  0.00  0.00    +0.000 C 
ATOM     19  C   UNL     1       4.219   3.742  20.206  0.00  0.00    +0.000 C 
ATOM     20  C   UNL     1       4.861   3.960  18.832  0.00  0.00    +0.000 C 
ATOM     21  N   UNL     1       4.554   2.866  17.899  0.00  0.00    +0.000 NA
ATOM     22  C   UNL     1       3.094   2.716  17.743  0.00  0.00    +0.000 C 
ATOM     23  C   UNL     1       2.407   2.446  19.088  0.00  0.00    +0.000 C 
BRANCH  21  24
ATOM     24  C   UNL     1       5.174   3.070  16.566  0.00  0.00    +0.000 C 
BRANCH  24  25
ATOM     25  C   UNL     1       5.624   4.518  16.281  0.00  0.00    +0.000 C 
ATOM     26  C   UNL     1       5.479   4.910  14.822  0.00  0.00    +0.000 C 
ATOM     27  C   UNL     1       6.863   4.756  14.235  0.00  0.00    +0.000 C 
ATOM     28  O   UNL     1       7.801   4.781  15.309  0.00  0.00    +0.000 OA
ATOM     29  C   UNL     1       7.101   4.749  16.558  0.00  0.00    +0.000 C 
ENDBRANCH  24  25
ENDBRANCH  21  24
ENDBRANCH   2  18
TORSDOF 5
ENDMDL
MODEL 5
REMARK VINA RESULT:      -7.8      3.401      8.616
REMARK  Name = 
REMARK  5 active torsions:
REMARK  status: ('A' for Active; 'I' for Inactive)
REMARK    1  A    between atoms: C_2  and  C_17
REMARK    2  A    between atoms: N_3  and  C_4
REMARK    3  A    between atoms: C_8  and  C_9
REMARK    4  A    between atoms: N_20  and  C_21
REMARK    5  A    between atoms: C_21  and  C_22
REMARK                            x       y       z     vdW  Elec       q    Type
REMARK                         _______ _______ _______ _____ _____    ______ ____
ROOT
ATOM      1  O   UNL     1       6.118   4.851  19.536  0.00  0.00    +0.000 OA
ATOM      2  C   UNL     1       5.809   5.467  18.521  0.00  0.00    +0.000 C 
ATOM      3  N   UNL     1       4.542   5.963  18.250  0.00  0.00    +0.000 N 
ATOM      4  H   UNL     1       4.382   6.377  17.341  0.00  0.00    +0.000 HD
ENDROOT
BRANCH   3   5
ATOM      5  C   UNL     1       3.422   5.896  19.112  0.00  0.00    +0.000 A 
ATOM      6  C   UNL     1       2.919   4.696  19.612  0.00  0.00    +0.000 A 
ATOM      7  C   UNL     1       1.832   4.690  20.480  0.00  0.00    +0.000 A 
ATOM      8  C   UNL     1       1.230   5.890  20.854  0.00  0.00    +0.000 A 
ATOM      9  C   UNL     1       1.686   7.125  20.360  0.00  0.00    +0.000 A 
ATOM     10  C   UNL     1       2.802   7.099  19.492  0.00  0.00    +0.000 A 
BRANCH   9  11
ATOM     11  C   UNL     1       0.998   8.389  20.731  0.00  0.00    +0.000 A 
ATOM     12  C   UNL     1       0.259   8.498  21.929  0.00  0.00    +0.000 A 
ATOM     13  C   UNL     1      -0.383   9.684  22.297  0.00  0.00    +0.000 A 
ATOM     14  C   UNL     1      -0.319  10.794  21.463  0.00  0.00    +0.000 A 
ATOM     15  C   UNL     1       0.395  10.711  20.272  0.00  0.00    +0.000 A 
ATOM     16 CL   UNL     1       0.467  12.078  19.227  0.00  0.00    +0.000 Cl
ATOM     17  C   UNL     1       1.053   9.531  19.912  0.00  0.00    +0.000 A 
ENDBRANCH   9  11
ENDBRANCH   3   5
BRANCH   2  18
ATOM     18  C   UNL     1       6.862   5.780  17.447  0.00  0.00    +0.000 C 
ATOM     19  C   UNL     1       6.339   6.653  16.306  0.00  0.00    +0.000 C 
ATOM     20  C   UNL     1       5.383   5.894  15.381  0.00  0.00    +0.000 C 
ATOM     21  N   UNL     1       5.996   4.674  14.833  0.00  0.00    +0.000 NA
ATOM     22  C   UNL     1       6.438   3.785  15.925  0.00  0.00    +0.000 C 
ATOM     23  C   UNL     1       7.438   4.484  16.854  0.00  0.00    +0.000 C 
BRANCH  21  24
ATOM     24  C   UNL     1       5.076   3.934  13.935  0.00  0.00    +0.000 C 
BRANCH  24  25
ATOM     25  C   UNL     1       5.421   4.033  12.435  0.00  0.00    +0.000 C 
ATOM     26  C   UNL     1       4.658   3.037  11.582  0.00  0.00    +0.000 C 
ATOM     27  C   UNL     1       5.621   1.897  11.350  0.00  0.00    +0.000 C 
ATOM     28  O   UNL     1       6.942   2.383  11.585  0.00  0.00    +0.000 OA
ATOM     29  C   UNL     1       6.875   3.704  12.135  0.00  0.00    +0.000 C 
ENDBRANCH  24  25
ENDBRANCH  21  24
ENDBRANCH   2  18
TORSDOF 5
ENDMDL
MODEL 6
REMARK VINA RESULT:      -7.8      6.155      7.984
REMARK  Name = 
REMARK  5 active torsions:
REMARK  status: ('A' for Active; 'I' for Inactive)
REMARK    1  A    between atoms: C_2  and  C_17
REMARK    2  A    between atoms: N_3  and  C_4
REMARK    3  A    between atoms: C_8  and  C_9
REMARK    4  A    between atoms: N_20  and  C_21
REMARK    5  A    between atoms: C_21  and  C_22
REMARK                            x       y       z     vdW  Elec       q    Type
REMARK                         _______ _______ _______ _____ _____    ______ ____
ROOT
ATOM      1  O   UNL     1       8.137   6.866  18.775  0.00  0.00    +0.000 OA
ATOM      2  C   UNL     1       7.644   7.404  17.787  0.00  0.00    +0.000 C 
ATOM      3  N   UNL     1       7.725   8.758  17.497  0.00  0.00    +0.000 N 
ATOM      4  H   UNL     1       7.204   9.102  16.702  0.00  0.00    +0.000 HD
ENDROOT
BRANCH   3   5
ATOM      5  C   UNL     1       8.431   9.727  18.249  0.00  0.00    +0.000 A 
ATOM      6  C   UNL     1       9.245   9.402  19.334  0.00  0.00    +0.000 A 
ATOM      7  C   UNL     1       9.940  10.392  20.019  0.00  0.00    +0.000 A 
ATOM      8  C   UNL     1       9.823  11.725  19.630  0.00  0.00    +0.000 A 
ATOM      9  C   UNL     1       8.999  12.107  18.557  0.00  0.00    +0.000 A 
ATOM     10  C   UNL     1       8.318  11.076  17.869  0.00  0.00    +0.000 A 
BRANCH   9  11
ATOM     11  C   UNL     1       8.849  13.539  18.189  0.00  0.00    +0.000 A 
ATOM     12  C   UNL     1       7.575  14.137  18.074  0.00  0.00    +0.000 A 
ATOM     13  C   UNL     1       7.419  15.486  17.740  0.00  0.00    +0.000 A 
ATOM     14  C   UNL     1       8.538  16.272  17.491  0.00  0.00    +0.000 A 
ATOM     15  C   UNL     1       9.804  15.705  17.588  0.00  0.00    +0.000 A 
ATOM     16 CL   UNL     1      11.194  16.670  17.268  0.00  0.00    +0.000 Cl
ATOM     17  C   UNL     1       9.962  14.361  17.940  0.00  0.00    +0.000 A 
ENDBRANCH   9  11
ENDBRANCH   3   5
BRANCH   2  18
ATOM     18  C   UNL     1       6.899   6.567  16.734  0.00  0.00    +0.000 C 
ATOM     19  C   UNL     1       5.438   6.974  16.545  0.00  0.00    +0.000 C 
ATOM     20  C   UNL     1       4.560   6.563  17.730  0.00  0.00    +0.000 C 
ATOM     21  N   UNL     1       4.643   5.121  18.006  0.00  0.00    +0.000 NA
ATOM     22  C   UNL     1       6.041   4.726  18.268  0.00  0.00    +0.000 C 
ATOM     23  C   UNL     1       6.956   5.073  17.086  0.00  0.00    +0.000 C 
BRANCH  21  24
ATOM     24  C   UNL     1       3.793   4.715  19.154  0.00  0.00    +0.000 C 
BRANCH  24  25
ATOM     25  C   UNL     1       2.280   4.928  18.941  0.00  0.00    +0.000 C 
ATOM     26  C   UNL     1       1.438   4.404  20.089  0.00  0.00    +0.000 C 
ATOM     27  C   UNL     1       0.938   3.055  19.626  0.00  0.00    +0.000 C 
ATOM     28  O   UNL     1       1.032   3.017  18.203  0.00  0.00    +0.000 OA
ATOM     29  C   UNL     1       1.735   4.176  17.738  0.00  0.00    +0.000 C 
ENDBRANCH  24  25
ENDBRANCH  21  24
ENDBRANCH   2  18
TORSDOF 5
ENDMDL
MODEL 7
REMARK VINA RESULT:      -7.7      5.033      8.565
REMARK  Name = 
REMARK  5 active torsions:
REMARK  status: ('A' for Active; 'I' for Inactive)
REMARK    1  A    between atoms: C_2  and  C_17
REMARK    2  A    between atoms: N_3  and  C_4
REMARK    3  A    between atoms: C_8  and  C_9
REMARK    4  A    between atoms: N_20  and  C_21
REMARK    5  A    between atoms: C_21  and  C_22
REMARK                            x       y       z     vdW  Elec       q    Type
REMARK                         _______ _______ _______ _____ _____    ______ ____
ROOT
ATOM      1  O   UNL     1      -1.153  10.034  19.225  0.00  0.00    +0.000 OA
ATOM      2  C   UNL     1      -0.408  10.378  20.137  0.00  0.00    +0.000 C 
ATOM      3  N   UNL     1       0.859   9.861  20.365  0.00  0.00    +0.000 N 
ATOM      4  H   UNL     1       1.347  10.157  21.201  0.00  0.00    +0.000 HD
ENDROOT
BRANCH   3   5
ATOM      5  C   UNL     1       1.523   8.905  19.559  0.00  0.00    +0.000 A 
ATOM      6  C   UNL     1       2.068   9.210  18.313  0.00  0.00    +0.000 A 
ATOM      7  C   UNL     1       2.736   8.238  17.576  0.00  0.00    +0.000 A 
ATOM      8  C   UNL     1       2.860   6.944  18.076  0.00  0.00    +0.000 A 
ATOM      9  C   UNL     1       2.309   6.581  19.318  0.00  0.00    +0.000 A 
ATOM     10  C   UNL     1       1.651   7.595  20.051  0.00  0.00    +0.000 A 
BRANCH   9  11
ATOM     11  C   UNL     1       2.410   5.182  19.811  0.00  0.00    +0.000 A 
ATOM     12  C   UNL     1       2.073   4.848  21.141  0.00  0.00    +0.000 A 
ATOM     13  C   UNL     1       2.152   3.535  21.616  0.00  0.00    +0.000 A 
ATOM     14  C   UNL     1       2.590   2.519  20.775  0.00  0.00    +0.000 A 
ATOM     15  C   UNL     1       2.938   2.823  19.463  0.00  0.00    +0.000 A 
ATOM     16 CL   UNL     1       3.495   1.572  18.420  0.00  0.00    +0.000 Cl
ATOM     17  C   UNL     1       2.842   4.133  18.982  0.00  0.00    +0.000 A 
ENDBRANCH   9  11
ENDBRANCH   3   5
BRANCH   2  18
ATOM     18  C   UNL     1      -0.832  11.486  21.115  0.00  0.00    +0.000 C 
ATOM     19  C   UNL     1      -1.939  12.392  20.577  0.00  0.00    +0.000 C 
ATOM     20  C   UNL     1      -1.440  13.331  19.474  0.00  0.00    +0.000 C 
ATOM     21  N   UNL     1      -0.300  14.148  19.917  0.00  0.00    +0.000 NA
ATOM     22  C   UNL     1       0.808  13.283  20.368  0.00  0.00    +0.000 C 
ATOM     23  C   UNL     1       0.372  12.355  21.509  0.00  0.00    +0.000 C 
BRANCH  21  24
ATOM     24  C   UNL     1       0.188  15.060  18.853  0.00  0.00    +0.000 C 
BRANCH  24  25
ATOM     25  C   UNL     1       0.105  16.560  19.203  0.00  0.00    +0.000 C 
ATOM     26  C   UNL     1      -0.569  17.387  18.125  0.00  0.00    +0.000 C 
ATOM     27  C   UNL     1       0.563  18.011  17.342  0.00  0.00    +0.000 C 
ATOM     28  O   UNL     1       1.730  17.985  18.162  0.00  0.00    +0.000 OA
ATOM     29  C   UNL     1       1.470  17.216  19.342  0.00  0.00    +0.000 C 
ENDBRANCH  24  25
ENDBRANCH  21  24
ENDBRANCH   2  18
TORSDOF 5
ENDMDL
MODEL 8
REMARK VINA RESULT:      -7.7      1.152      1.437
REMARK  Name = 
REMARK  5 active torsions:
REMARK  status: ('A' for Active; 'I' for Inactive)
REMARK    1  A    between atoms: C_2  and  C_17
REMARK    2  A    between atoms: N_3  and  C_4
REMARK    3  A    between atoms: C_8  and  C_9
REMARK    4  A    between atoms: N_20  and  C_21
REMARK    5  A    between atoms: C_21  and  C_22
REMARK                            x       y       z     vdW  Elec       q    Type
REMARK                         _______ _______ _______ _____ _____    ______ ____
ROOT
ATOM      1  O   UNL     1       4.410   2.075  19.466  0.00  0.00    +0.000 OA
ATOM      2  C   UNL     1       3.704   3.071  19.341  0.00  0.00    +0.000 C 
ATOM      3  N   UNL     1       4.101   4.253  18.731  0.00  0.00    +0.000 N 
ATOM      4  H   UNL     1       3.464   5.038  18.765  0.00  0.00    +0.000 HD
ENDROOT
BRANCH   3   5
ATOM      5  C   UNL     1       5.349   4.486  18.105  0.00  0.00    +0.000 A 
ATOM      6  C   UNL     1       6.500   4.830  18.812  0.00  0.00    +0.000 A 
ATOM      7  C   UNL     1       7.708   5.019  18.149  0.00  0.00    +0.000 A 
ATOM      8  C   UNL     1       7.775   4.872  16.765  0.00  0.00    +0.000 A 
ATOM      9  C   UNL     1       6.638   4.548  16.004  0.00  0.00    +0.000 A 
ATOM     10  C   UNL     1       5.429   4.346  16.709  0.00  0.00    +0.000 A 
BRANCH   9  11
ATOM     11  C   UNL     1       6.721   4.445  14.524  0.00  0.00    +0.000 A 
ATOM     12  C   UNL     1       7.694   5.160  13.792  0.00  0.00    +0.000 A 
ATOM     13  C   UNL     1       7.790   5.064  12.401  0.00  0.00    +0.000 A 
ATOM     14  C   UNL     1       6.899   4.261  11.698  0.00  0.00    +0.000 A 
ATOM     15  C   UNL     1       5.925   3.554  12.394  0.00  0.00    +0.000 A 
ATOM     16 CL   UNL     1       4.809   2.568  11.529  0.00  0.00    +0.000 Cl
ATOM     17  C   UNL     1       5.839   3.635  13.787  0.00  0.00    +0.000 A 
ENDBRANCH   9  11
ENDBRANCH   3   5
BRANCH   2  18
ATOM     18  C   UNL     1       2.251   3.066  19.841  0.00  0.00    +0.000 C 
ATOM     19  C   UNL     1       1.288   3.844  18.944  0.00  0.00    +0.000 C 
ATOM     20  C   UNL     1       1.490   5.359  19.047  0.00  0.00    +0.000 C 
ATOM     21  N   UNL     1       1.377   5.839  20.432  0.00  0.00    +0.000 NA
ATOM     22  C   UNL     1       2.356   5.151  21.297  0.00  0.00    +0.000 C 
ATOM     23  C   UNL     1       2.163   3.629  21.267  0.00  0.00    +0.000 C 
BRANCH  21  24
ATOM     24  C   UNL     1       1.571   7.306  20.539  0.00  0.00    +0.000 C 
BRANCH  24  25
ATOM     25  C   UNL     1       0.803   7.975  21.697  0.00  0.00    +0.000 C 
ATOM     26  C   UNL     1      -0.504   8.608  21.258  0.00  0.00    +0.000 C 
ATOM     27  C   UNL     1      -0.196  10.079  21.103  0.00  0.00    +0.000 C 
ATOM     28  O   UNL     1       0.984  10.362  21.853  0.00  0.00    +0.000 OA
ATOM     29  C   UNL     1       1.559   9.137  22.322  0.00  0.00    +0.000 C 
ENDBRANCH  24  25
ENDBRANCH  21  24
ENDBRANCH   2  18
TORSDOF 5
ENDMDL
MODEL 9
REMARK VINA RESULT:      -7.7      4.707      8.247
REMARK  Name = 
REMARK  5 active torsions:
REMARK  status: ('A' for Active; 'I' for Inactive)
REMARK    1  A    between atoms: C_2  and  C_17
REMARK    2  A    between atoms: N_3  and  C_4
REMARK    3  A    between atoms: C_8  and  C_9
REMARK    4  A    between atoms: N_20  and  C_21
REMARK    5  A    between atoms: C_21  and  C_22
REMARK                            x       y       z     vdW  Elec       q    Type
REMARK                         _______ _______ _______ _____ _____    ______ ____
ROOT
ATOM      1  O   UNL     1      -1.002  10.162  18.351  0.00  0.00    +0.000 OA
ATOM      2  C   UNL     1      -0.512  10.412  19.448  0.00  0.00    +0.000 C 
ATOM      3  N   UNL     1       0.634   9.821  19.958  0.00  0.00    +0.000 N 
ATOM      4  H   UNL     1       0.894  10.040  20.911  0.00  0.00    +0.000 HD
ENDROOT
BRANCH   3   5
ATOM      5  C   UNL     1       1.456   8.886  19.285  0.00  0.00    +0.000 A 
ATOM      6  C   UNL     1       2.178   9.200  18.134  0.00  0.00    +0.000 A 
ATOM      7  C   UNL     1       2.994   8.250  17.529  0.00  0.00    +0.000 A 
ATOM      8  C   UNL     1       3.092   6.969  18.067  0.00  0.00    +0.000 A 
ATOM      9  C   UNL     1       2.368   6.596  19.213  0.00  0.00    +0.000 A 
ATOM     10  C   UNL     1       1.560   7.588  19.815  0.00  0.00    +0.000 A 
BRANCH   9  11
ATOM     11  C   UNL     1       2.448   5.209  19.742  0.00  0.00    +0.000 A 
ATOM     12  C   UNL     1       2.084   4.910  21.073  0.00  0.00    +0.000 A 
ATOM     13  C   UNL     1       2.144   3.609  21.581  0.00  0.00    +0.000 A 
ATOM     14  C   UNL     1       2.589   2.569  20.773  0.00  0.00    +0.000 A 
ATOM     15  C   UNL     1       2.962   2.838  19.461  0.00  0.00    +0.000 A 
ATOM     16 CL   UNL     1       3.528   1.558  18.458  0.00  0.00    +0.000 Cl
ATOM     17  C   UNL     1       2.886   4.136  18.946  0.00  0.00    +0.000 A 
ENDBRANCH   9  11
ENDBRANCH   3   5
BRANCH   2  18
ATOM     18  C   UNL     1      -1.144  11.476  20.360  0.00  0.00    +0.000 C 
ATOM     19  C   UNL     1      -1.506  12.773  19.636  0.00  0.00    +0.000 C 
ATOM     20  C   UNL     1      -0.270  13.595  19.259  0.00  0.00    +0.000 C 
ATOM     21  N   UNL     1       0.572  13.896  20.427  0.00  0.00    +0.000 NA
ATOM     22  C   UNL     1       0.994  12.648  21.092  0.00  0.00    +0.000 C 
ATOM     23  C   UNL     1      -0.212  11.808  21.535  0.00  0.00    +0.000 C 
BRANCH  21  24
ATOM     24  C   UNL     1       1.771  14.693  20.068  0.00  0.00    +0.000 C 
BRANCH  24  25
ATOM     25  C   UNL     1       1.794  15.201  18.612  0.00  0.00    +0.000 C 
ATOM     26  C   UNL     1       3.097  14.897  17.896  0.00  0.00    +0.000 C 
ATOM     27  C   UNL     1       3.893  16.180  17.966  0.00  0.00    +0.000 C 
ATOM     28  O   UNL     1       2.982  17.248  18.221  0.00  0.00    +0.000 OA
ATOM     29  C   UNL     1       1.684  16.714  18.507  0.00  0.00    +0.000 C 
ENDBRANCH  24  25
ENDBRANCH  21  24
ENDBRANCH   2  18
TORSDOF 5
ENDMDL
