MODEL 1
REMARK VINA RESULT:      -8.6      0.000      0.000
REMARK  Name = 
REMARK  10 active torsions:
REMARK  status: ('A' for Active; 'I' for Inactive)
REMARK    1  A    between atoms: C_1  and  C_2
REMARK    2  A    between atoms: C_2  and  C_3
REMARK    3  A    between atoms: C_3  and  C_5
REMARK    4  A    between atoms: C_11  and  C_12
REMARK    5  A    between atoms: C_15  and  C_16
REMARK    6  A    between atoms: C_16  and  C_17
REMARK    7  A    between atoms: C_16  and  N_18
REMARK    8  A    between atoms: C_19  and  C_21
REMARK    9  A    between atoms: C_21  and  N_22
REMARK   10  A    between atoms: C_23  and  C_25
REMARK                            x       y       z     vdW  Elec       q    Type
REMARK                         _______ _______ _______ _____ _____    ______ ____
ROOT
ATOM      1  C   UNL     1       0.636   9.877  19.148  0.00  0.00    +0.000 A 
ATOM      2  C   UNL     1       1.315   9.584  17.957  0.00  0.00    +0.000 A 
ATOM      3  C   UNL     1       2.095   8.424  17.811  0.00  0.00    +0.000 A 
ATOM      4  C   UNL     1       2.258   7.523  18.871  0.00  0.00    +0.000 A 
ATOM      5  C   UNL     1       1.641   7.846  20.079  0.00  0.00    +0.000 A 
ATOM      6  F   UNL     1       1.784   7.046  21.146  0.00  0.00    +0.000 F 
ATOM      7  C   UNL     1       0.843   8.986  20.219  0.00  0.00    +0.000 A 
ENDROOT
BRANCH   1  14
ATOM      8  C   UNL     1       0.223  12.391  19.687  0.00  0.00    +0.000 A 
ATOM      9  C   UNL     1      -0.714  13.448  19.774  0.00  0.00    +0.000 A 
ATOM     10 CL   UNL     1      -0.311  15.101  20.101  0.00  0.00    +0.000 Cl
ATOM     11  C   UNL     1      -2.074  13.231  19.520  0.00  0.00    +0.000 A 
ATOM     12  C   UNL     1      -2.523  11.975  19.150  0.00  0.00    +0.000 A 
ATOM     13  C   UNL     1      -1.614  10.925  19.051  0.00  0.00    +0.000 A 
ATOM     14  C   UNL     1      -0.228  11.086  19.308  0.00  0.00    +0.000 A 
BRANCH   8  15
ATOM     15  C   UNL     1       1.686  12.669  19.893  0.00  0.00    +0.000 C 
ATOM     16  O   UNL     1       2.151  12.625  21.030  0.00  0.00    +0.000 OA
BRANCH  15  18
ATOM     17  C   UNL     1       3.299  14.295  18.770  0.00  0.00    +0.000 C 
ATOM     18  C   UNL     1       2.578  12.960  18.690  0.00  0.00    +0.000 C 
ENDBRANCH  15  18
ENDBRANCH   8  15
ENDBRANCH   1  14
BRANCH   4  19
ATOM     19  C   UNL     1       3.051   6.238  18.741  0.00  0.00    +0.000 C 
ATOM     20  C   UNL     1       2.309   5.148  17.957  0.00  0.00    +0.000 C 
BRANCH  19  21
ATOM     21  N   UNL     1       4.353   6.486  18.128  0.00  0.00    +0.000 N 
ATOM     22  C   UNL     1       5.441   5.693  18.377  0.00  0.00    +0.000 C 
ATOM     23  O   UNL     1       5.465   4.730  19.132  0.00  0.00    +0.000 OA
ATOM     24  H   UNL     1       4.429   7.193  17.405  0.00  0.00    +0.000 HD
BRANCH  22  25
ATOM     25  C   UNL     1       6.666   6.009  17.545  0.00  0.00    +0.000 C 
ATOM     26  C   UNL     1       7.254   7.407  17.570  0.00  0.00    +0.000 C 
ATOM     27  C   UNL     1       7.948   6.309  18.310  0.00  0.00    +0.000 C 
BRANCH  25  28
ATOM     28  N   UNL     1       6.795   5.207  16.350  0.00  0.00    +0.000 N 
ATOM     29  C   UNL     1       6.000   5.428  15.230  0.00  0.00    +0.000 C 
ATOM     30  O   UNL     1       5.287   6.426  15.121  0.00  0.00    +0.000 OA
ATOM     31  H   UNL     1       7.189   4.275  16.470  0.00  0.00    +0.000 HD
BRANCH  29  32
ATOM     32  C   UNL     1       6.128   4.336  14.151  0.00  0.00    +0.000 C 
ATOM     33  F   UNL     1       6.468   3.129  14.698  0.00  0.00    +0.000 F 
ATOM     34  F   UNL     1       4.970   4.132  13.471  0.00  0.00    +0.000 F 
ATOM     35  F   UNL     1       7.088   4.616  13.226  0.00  0.00    +0.000 F 
ENDBRANCH  29  32
ENDBRANCH  25  28
ENDBRANCH  22  25
ENDBRANCH  19  21
ENDBRANCH   4  19
TORSDOF 8
ENDMDL
MODEL 2
REMARK VINA RESULT:      -8.6      1.701      2.401
REMARK  Name = 
REMARK  10 active torsions:
REMARK  status: ('A' for Active; 'I' for Inactive)
REMARK    1  A    between atoms: C_1  and  C_2
REMARK    2  A    between atoms: C_2  and  C_3
REMARK    3  A    between atoms: C_3  and  C_5
REMARK    4  A    between atoms: C_11  and  C_12
REMARK    5  A    between atoms: C_15  and  C_16
REMARK    6  A    between atoms: C_16  and  C_17
REMARK    7  A    between atoms: C_16  and  N_18
REMARK    8  A    between atoms: C_19  and  C_21
REMARK    9  A    between atoms: C_21  and  N_22
REMARK   10  A    between atoms: C_23  and  C_25
REMARK                            x       y       z     vdW  Elec       q    Type
REMARK                         _______ _______ _______ _____ _____    ______ ____
ROOT
ATOM      1  C   UNL     1       0.866   8.632  20.552  0.00  0.00    +0.000 A 
ATOM      2  C   UNL     1       1.587   8.833  19.365  0.00  0.00    +0.000 A 
ATOM      3  C   UNL     1       2.328   7.804  18.762  0.00  0.00    +0.000 A 
ATOM      4  C   UNL     1       2.411   6.533  19.344  0.00  0.00    +0.000 A 
ATOM      5  C   UNL     1       1.752   6.348  20.560  0.00  0.00    +0.000 A 
ATOM      6  F   UNL     1       1.818   5.167  21.191  0.00  0.00    +0.000 F 
ATOM      7  C   UNL     1       0.992   7.363  21.149  0.00  0.00    +0.000 A 
ENDROOT
BRANCH   1  14
ATOM      8  C   UNL     1      -0.527  10.831  20.509  0.00  0.00    +0.000 A 
ATOM      9  C   UNL     1      -1.309  11.757  21.242  0.00  0.00    +0.000 A 
ATOM     10 CL   UNL     1      -2.160  13.098  20.549  0.00  0.00    +0.000 Cl
ATOM     11  C   UNL     1      -1.512  11.599  22.618  0.00  0.00    +0.000 A 
ATOM     12  C   UNL     1      -0.970  10.514  23.285  0.00  0.00    +0.000 A 
ATOM     13  C   UNL     1      -0.206   9.589  22.578  0.00  0.00    +0.000 A 
ATOM     14  C   UNL     1       0.041   9.705  21.186  0.00  0.00    +0.000 A 
BRANCH   8  15
ATOM     15  C   UNL     1      -0.387  10.985  19.020  0.00  0.00    +0.000 C 
ATOM     16  O   UNL     1       0.529  11.670  18.570  0.00  0.00    +0.000 OA
BRANCH  15  18
ATOM     17  C   UNL     1      -2.226  11.188  17.263  0.00  0.00    +0.000 C 
ATOM     18  C   UNL     1      -1.353  10.258  18.090  0.00  0.00    +0.000 C 
ENDBRANCH  15  18
ENDBRANCH   8  15
ENDBRANCH   1  14
BRANCH   4  19
ATOM     19  C   UNL     1       3.160   5.382  18.703  0.00  0.00    +0.000 C 
ATOM     20  C   UNL     1       2.301   4.575  17.721  0.00  0.00    +0.000 C 
BRANCH  19  21
ATOM     21  N   UNL     1       4.366   5.855  18.029  0.00  0.00    +0.000 N 
ATOM     22  C   UNL     1       5.622   5.495  18.439  0.00  0.00    +0.000 C 
ATOM     23  O   UNL     1       5.882   4.781  19.398  0.00  0.00    +0.000 OA
ATOM     24  H   UNL     1       4.273   6.369  17.159  0.00  0.00    +0.000 HD
BRANCH  22  25
ATOM     25  C   UNL     1       6.746   5.958  17.537  0.00  0.00    +0.000 C 
ATOM     26  C   UNL     1       7.182   7.411  17.560  0.00  0.00    +0.000 C 
ATOM     27  C   UNL     1       8.038   6.379  18.223  0.00  0.00    +0.000 C 
BRANCH  25  28
ATOM     28  N   UNL     1       6.878   5.198  16.315  0.00  0.00    +0.000 N 
ATOM     29  C   UNL     1       6.039   5.410  15.226  0.00  0.00    +0.000 C 
ATOM     30  O   UNL     1       5.273   6.372  15.169  0.00  0.00    +0.000 OA
ATOM     31  H   UNL     1       7.322   4.284  16.395  0.00  0.00    +0.000 HD
BRANCH  29  32
ATOM     32  C   UNL     1       6.188   4.357  14.111  0.00  0.00    +0.000 C 
ATOM     33  F   UNL     1       5.021   4.195  13.416  0.00  0.00    +0.000 F 
ATOM     34  F   UNL     1       7.132   4.695  13.194  0.00  0.00    +0.000 F 
ATOM     35  F   UNL     1       6.518   3.126  14.587  0.00  0.00    +0.000 F 
ENDBRANCH  29  32
ENDBRANCH  25  28
ENDBRANCH  22  25
ENDBRANCH  19  21
ENDBRANCH   4  19
TORSDOF 8
ENDMDL
MODEL 3
REMARK VINA RESULT:      -8.3      5.335     10.172
REMARK  Name = 
REMARK  10 active torsions:
REMARK  status: ('A' for Active; 'I' for Inactive)
REMARK    1  A    between atoms: C_1  and  C_2
REMARK    2  A    between atoms: C_2  and  C_3
REMARK    3  A    between atoms: C_3  and  C_5
REMARK    4  A    between atoms: C_11  and  C_12
REMARK    5  A    between atoms: C_15  and  C_16
REMARK    6  A    between atoms: C_16  and  C_17
REMARK    7  A    between atoms: C_16  and  N_18
REMARK    8  A    between atoms: C_19  and  C_21
REMARK    9  A    between atoms: C_21  and  N_22
REMARK   10  A    between atoms: C_23  and  C_25
REMARK                            x       y       z     vdW  Elec       q    Type
REMARK                         _______ _______ _______ _____ _____    ______ ____
ROOT
ATOM      1  C   UNL     1       2.689   7.033  18.899  0.00  0.00    +0.000 A 
ATOM      2  C   UNL     1       2.469   7.795  17.742  0.00  0.00    +0.000 A 
ATOM      3  C   UNL     1       1.685   8.960  17.757  0.00  0.00    +0.000 A 
ATOM      4  C   UNL     1       1.053   9.394  18.929  0.00  0.00    +0.000 A 
ATOM      5  C   UNL     1       1.213   8.601  20.066  0.00  0.00    +0.000 A 
ATOM      6  F   UNL     1       0.608   8.937  21.214  0.00  0.00    +0.000 F 
ATOM      7  C   UNL     1       2.014   7.455  20.060  0.00  0.00    +0.000 A 
ENDROOT
BRANCH   1  14
ATOM      8  C   UNL     1       3.087   4.461  18.833  0.00  0.00    +0.000 A 
ATOM      9  C   UNL     1       4.030   3.404  18.830  0.00  0.00    +0.000 A 
ATOM     10 CL   UNL     1       3.636   1.729  18.622  0.00  0.00    +0.000 Cl
ATOM     11  C   UNL     1       5.402   3.662  18.924  0.00  0.00    +0.000 A 
ATOM     12  C   UNL     1       5.866   4.964  18.997  0.00  0.00    +0.000 A 
ATOM     13  C   UNL     1       4.954   6.015  18.992  0.00  0.00    +0.000 A 
ATOM     14  C   UNL     1       3.552   5.813  18.909  0.00  0.00    +0.000 A 
BRANCH   8  15
ATOM     15  C   UNL     1       1.625   4.159  18.656  0.00  0.00    +0.000 C 
ATOM     16  O   UNL     1       1.154   4.116  17.521  0.00  0.00    +0.000 OA
BRANCH  15  18
ATOM     17  C   UNL     1       1.551   3.514  21.123  0.00  0.00    +0.000 C 
ATOM     18  C   UNL     1       0.758   3.872  19.877  0.00  0.00    +0.000 C 
ENDBRANCH  15  18
ENDBRANCH   8  15
ENDBRANCH   1  14
BRANCH   4  19
ATOM     19  C   UNL     1       0.238  10.669  19.000  0.00  0.00    +0.000 C 
ATOM     20  C   UNL     1       1.078  11.935  18.783  0.00  0.00    +0.000 C 
BRANCH  19  21
ATOM     21  N   UNL     1      -0.864  10.639  18.042  0.00  0.00    +0.000 N 
ATOM     22  C   UNL     1      -2.091  11.178  18.323  0.00  0.00    +0.000 C 
ATOM     23  O   UNL     1      -2.413  11.709  19.377  0.00  0.00    +0.000 OA
ATOM     24  H   UNL     1      -0.685  10.317  17.097  0.00  0.00    +0.000 HD
BRANCH  22  25
ATOM     25  C   UNL     1      -3.065  11.188  17.163  0.00  0.00    +0.000 C 
ATOM     26  C   UNL     1      -2.571  10.885  15.762  0.00  0.00    +0.000 C 
ATOM     27  C   UNL     1      -3.348   9.845  16.504  0.00  0.00    +0.000 C 
BRANCH  25  28
ATOM     28  N   UNL     1      -4.192  12.074  17.342  0.00  0.00    +0.000 N 
ATOM     29  C   UNL     1      -5.394  11.631  17.886  0.00  0.00    +0.000 C 
ATOM     30  O   UNL     1      -5.503  10.525  18.415  0.00  0.00    +0.000 OA
ATOM     31  H   UNL     1      -4.223  12.895  16.740  0.00  0.00    +0.000 HD
BRANCH  29  32
ATOM     32  C   UNL     1      -6.537  12.658  17.787  0.00  0.00    +0.000 C 
ATOM     33  F   UNL     1      -7.597  12.305  18.577  0.00  0.00    +0.000 F 
ATOM     34  F   UNL     1      -6.162  13.901  18.188  0.00  0.00    +0.000 F 
ATOM     35  F   UNL     1      -7.031  12.780  16.524  0.00  0.00    +0.000 F 
ENDBRANCH  29  32
ENDBRANCH  25  28
ENDBRANCH  22  25
ENDBRANCH  19  21
ENDBRANCH   4  19
TORSDOF 8
ENDMDL
MODEL 4
REMARK VINA RESULT:      -8.2      1.624      2.025
REMARK  Name = 
REMARK  10 active torsions:
REMARK  status: ('A' for Active; 'I' for Inactive)
REMARK    1  A    between atoms: C_1  and  C_2
REMARK    2  A    between atoms: C_2  and  C_3
REMARK    3  A    between atoms: C_3  and  C_5
REMARK    4  A    between atoms: C_11  and  C_12
REMARK    5  A    between atoms: C_15  and  C_16
REMARK    6  A    between atoms: C_16  and  C_17
REMARK    7  A    between atoms: C_16  and  N_18
REMARK    8  A    between atoms: C_19  and  C_21
REMARK    9  A    between atoms: C_21  and  N_22
REMARK   10  A    between atoms: C_23  and  C_25
REMARK                            x       y       z     vdW  Elec       q    Type
REMARK                         _______ _______ _______ _____ _____    ______ ____
ROOT
ATOM      1  C   UNL     1       1.000   8.448  20.580  0.00  0.00    +0.000 A 
ATOM      2  C   UNL     1       1.739   8.592  19.397  0.00  0.00    +0.000 A 
ATOM      3  C   UNL     1       2.415   7.512  18.805  0.00  0.00    +0.000 A 
ATOM      4  C   UNL     1       2.410   6.242  19.397  0.00  0.00    +0.000 A 
ATOM      5  C   UNL     1       1.733   6.111  20.611  0.00  0.00    +0.000 A 
ATOM      6  F   UNL     1       1.717   4.933  21.250  0.00  0.00    +0.000 F 
ATOM      7  C   UNL     1       1.038   7.178  21.187  0.00  0.00    +0.000 A 
ENDROOT
BRANCH   1  14
ATOM      8  C   UNL     1      -0.111  10.803  20.551  0.00  0.00    +0.000 A 
ATOM      9  C   UNL     1      -0.853  11.775  21.264  0.00  0.00    +0.000 A 
ATOM     10 CL   UNL     1      -1.460  13.249  20.585  0.00  0.00    +0.000 Cl
ATOM     11  C   UNL     1      -1.220  11.566  22.598  0.00  0.00    +0.000 A 
ATOM     12  C   UNL     1      -0.885  10.386  23.239  0.00  0.00    +0.000 A 
ATOM     13  C   UNL     1      -0.164   9.415  22.550  0.00  0.00    +0.000 A 
ATOM     14  C   UNL     1       0.244   9.578  21.201  0.00  0.00    +0.000 A 
BRANCH   8  15
ATOM     15  C   UNL     1       0.206  11.021  19.097  0.00  0.00    +0.000 C 
ATOM     16  O   UNL     1      -0.642  10.747  18.250  0.00  0.00    +0.000 OA
BRANCH  15  18
ATOM     17  C   UNL     1       1.908  12.889  19.447  0.00  0.00    +0.000 C 
ATOM     18  C   UNL     1       1.552  11.616  18.697  0.00  0.00    +0.000 C 
ENDBRANCH  15  18
ENDBRANCH   8  15
ENDBRANCH   1  14
BRANCH   4  19
ATOM     19  C   UNL     1       3.085   5.041  18.769  0.00  0.00    +0.000 C 
ATOM     20  C   UNL     1       2.225   4.355  17.699  0.00  0.00    +0.000 C 
BRANCH  19  21
ATOM     21  N   UNL     1       4.380   5.406  18.200  0.00  0.00    +0.000 N 
ATOM     22  C   UNL     1       5.527   4.716  18.490  0.00  0.00    +0.000 C 
ATOM     23  O   UNL     1       5.612   3.761  19.249  0.00  0.00    +0.000 OA
ATOM     24  H   UNL     1       4.416   6.117  17.477  0.00  0.00    +0.000 HD
BRANCH  22  25
ATOM     25  C   UNL     1       6.745   5.142  17.699  0.00  0.00    +0.000 C 
ATOM     26  C   UNL     1       7.389   6.488  17.972  0.00  0.00    +0.000 C 
ATOM     27  C   UNL     1       8.054   5.245  18.470  0.00  0.00    +0.000 C 
BRANCH  25  28
ATOM     28  N   UNL     1       6.817   4.578  16.370  0.00  0.00    +0.000 N 
ATOM     29  C   UNL     1       6.138   5.145  15.296  0.00  0.00    +0.000 C 
ATOM     30  O   UNL     1       5.602   6.250  15.372  0.00  0.00    +0.000 OA
ATOM     31  H   UNL     1       7.050   3.588  16.309  0.00  0.00    +0.000 HD
BRANCH  29  32
ATOM     32  C   UNL     1       6.156   4.279  14.022  0.00  0.00    +0.000 C 
ATOM     33  F   UNL     1       6.515   2.987  14.299  0.00  0.00    +0.000 F 
ATOM     34  F   UNL     1       4.942   4.214  13.415  0.00  0.00    +0.000 F 
ATOM     35  F   UNL     1       7.043   4.725  13.091  0.00  0.00    +0.000 F 
ENDBRANCH  29  32
ENDBRANCH  25  28
ENDBRANCH  22  25
ENDBRANCH  19  21
ENDBRANCH   4  19
TORSDOF 8
ENDMDL
MODEL 5
REMARK VINA RESULT:      -8.1      1.499      2.023
REMARK  Name = 
REMARK  10 active torsions:
REMARK  status: ('A' for Active; 'I' for Inactive)
REMARK    1  A    between atoms: C_1  and  C_2
REMARK    2  A    between atoms: C_2  and  C_3
REMARK    3  A    between atoms: C_3  and  C_5
REMARK    4  A    between atoms: C_11  and  C_12
REMARK    5  A    between atoms: C_15  and  C_16
REMARK    6  A    between atoms: C_16  and  C_17
REMARK    7  A    between atoms: C_16  and  N_18
REMARK    8  A    between atoms: C_19  and  C_21
REMARK    9  A    between atoms: C_21  and  N_22
REMARK   10  A    between atoms: C_23  and  C_25
REMARK                            x       y       z     vdW  Elec       q    Type
REMARK                         _______ _______ _______ _____ _____    ______ ____
ROOT
ATOM      1  C   UNL     1       0.614   9.236  19.197  0.00  0.00    +0.000 A 
ATOM      2  C   UNL     1       1.565   9.031  18.187  0.00  0.00    +0.000 A 
ATOM      3  C   UNL     1       2.454   7.944  18.212  0.00  0.00    +0.000 A 
ATOM      4  C   UNL     1       2.454   7.032  19.276  0.00  0.00    +0.000 A 
ATOM      5  C   UNL     1       1.557   7.272  20.317  0.00  0.00    +0.000 A 
ATOM      6  F   UNL     1       1.526   6.459  21.383  0.00  0.00    +0.000 F 
ATOM      7  C   UNL     1       0.653   8.338  20.281  0.00  0.00    +0.000 A 
ENDROOT
BRANCH   1  14
ATOM      8  C   UNL     1      -0.631  11.270  20.242  0.00  0.00    +0.000 A 
ATOM      9  C   UNL     1      -1.574  12.309  20.056  0.00  0.00    +0.000 A 
ATOM     10 CL   UNL     1      -1.917  13.552  21.213  0.00  0.00    +0.000 Cl
ATOM     11  C   UNL     1      -2.265  12.448  18.846  0.00  0.00    +0.000 A 
ATOM     12  C   UNL     1      -2.017  11.581  17.796  0.00  0.00    +0.000 A 
ATOM     13  C   UNL     1      -1.087  10.559  17.959  0.00  0.00    +0.000 A 
ATOM     14  C   UNL     1      -0.366  10.365  19.165  0.00  0.00    +0.000 A 
BRANCH   8  15
ATOM     15  C   UNL     1       0.149  11.190  21.525  0.00  0.00    +0.000 C 
ATOM     16  O   UNL     1       1.332  11.523  21.529  0.00  0.00    +0.000 OA
BRANCH  15  18
ATOM     17  C   UNL     1      -0.015   9.424  23.360  0.00  0.00    +0.000 C 
ATOM     18  C   UNL     1      -0.544  10.736  22.806  0.00  0.00    +0.000 C 
ENDBRANCH  15  18
ENDBRANCH   8  15
ENDBRANCH   1  14
BRANCH   4  19
ATOM     19  C   UNL     1       3.364   5.821  19.320  0.00  0.00    +0.000 C 
ATOM     20  C   UNL     1       2.734   4.570  18.692  0.00  0.00    +0.000 C 
BRANCH  19  21
ATOM     21  N   UNL     1       4.643   6.105  18.676  0.00  0.00    +0.000 N 
ATOM     22  C   UNL     1       5.708   5.247  18.756  0.00  0.00    +0.000 C 
ATOM     23  O   UNL     1       5.729   4.191  19.374  0.00  0.00    +0.000 OA
ATOM     24  H   UNL     1       4.713   6.900  18.050  0.00  0.00    +0.000 HD
BRANCH  22  25
ATOM     25  C   UNL     1       6.902   5.631  17.908  0.00  0.00    +0.000 C 
ATOM     26  C   UNL     1       7.532   7.001  18.068  0.00  0.00    +0.000 C 
ATOM     27  C   UNL     1       8.226   5.807  18.639  0.00  0.00    +0.000 C 
BRANCH  25  28
ATOM     28  N   UNL     1       6.953   4.972  16.623  0.00  0.00    +0.000 N 
ATOM     29  C   UNL     1       6.140   5.367  15.565  0.00  0.00    +0.000 C 
ATOM     30  O   UNL     1       5.479   6.405  15.601  0.00  0.00    +0.000 OA
ATOM     31  H   UNL     1       7.299   4.014  16.617  0.00  0.00    +0.000 HD
BRANCH  29  32
ATOM     32  C   UNL     1       6.178   4.407  14.360  0.00  0.00    +0.000 C 
ATOM     33  F   UNL     1       7.130   4.782  13.452  0.00  0.00    +0.000 F 
ATOM     34  F   UNL     1       6.474   3.130  14.716  0.00  0.00    +0.000 F 
ATOM     35  F   UNL     1       5.000   4.367  13.679  0.00  0.00    +0.000 F 
ENDBRANCH  29  32
ENDBRANCH  25  28
ENDBRANCH  22  25
ENDBRANCH  19  21
ENDBRANCH   4  19
TORSDOF 8
ENDMDL
MODEL 6
REMARK VINA RESULT:      -8.1      5.356     10.234
REMARK  Name = 
REMARK  10 active torsions:
REMARK  status: ('A' for Active; 'I' for Inactive)
REMARK    1  A    between atoms: C_1  and  C_2
REMARK    2  A    between atoms: C_2  and  C_3
REMARK    3  A    between atoms: C_3  and  C_5
REMARK    4  A    between atoms: C_11  and  C_12
REMARK    5  A    between atoms: C_15  and  C_16
REMARK    6  A    between atoms: C_16  and  C_17
REMARK    7  A    between atoms: C_16  and  N_18
REMARK    8  A    between atoms: C_19  and  C_21
REMARK    9  A    between atoms: C_21  and  N_22
REMARK   10  A    between atoms: C_23  and  C_25
REMARK                            x       y       z     vdW  Elec       q    Type
REMARK                         _______ _______ _______ _____ _____    ______ ____
ROOT
ATOM      1  C   UNL     1       2.675   6.918  19.268  0.00  0.00    +0.000 A 
ATOM      2  C   UNL     1       2.044   7.223  20.483  0.00  0.00    +0.000 A 
ATOM      3  C   UNL     1       1.224   8.354  20.631  0.00  0.00    +0.000 A 
ATOM      4  C   UNL     1       1.030   9.253  19.574  0.00  0.00    +0.000 A 
ATOM      5  C   UNL     1       1.711   8.990  18.385  0.00  0.00    +0.000 A 
ATOM      6  F   UNL     1       1.599   9.827  17.343  0.00  0.00    +0.000 F 
ATOM      7  C   UNL     1       2.506   7.851  18.226  0.00  0.00    +0.000 A 
ENDROOT
BRANCH   1  14
ATOM      8  C   UNL     1       3.030   4.367  18.886  0.00  0.00    +0.000 A 
ATOM      9  C   UNL     1       3.955   3.311  18.700  0.00  0.00    +0.000 A 
ATOM     10 CL   UNL     1       3.524   1.673  18.332  0.00  0.00    +0.000 Cl
ATOM     11  C   UNL     1       5.335   3.547  18.729  0.00  0.00    +0.000 A 
ATOM     12  C   UNL     1       5.821   4.829  18.916  0.00  0.00    +0.000 A 
ATOM     13  C   UNL     1       4.926   5.881  19.092  0.00  0.00    +0.000 A 
ATOM     14  C   UNL     1       3.519   5.698  19.082  0.00  0.00    +0.000 A 
BRANCH   8  15
ATOM     15  C   UNL     1       1.555   4.097  18.776  0.00  0.00    +0.000 C 
ATOM     16  O   UNL     1       1.039   4.030  17.662  0.00  0.00    +0.000 OA
BRANCH  15  18
ATOM     17  C   UNL     1       1.497   3.187  21.159  0.00  0.00    +0.000 C 
ATOM     18  C   UNL     1       0.730   3.871  20.039  0.00  0.00    +0.000 C 
ENDBRANCH  15  18
ENDBRANCH   8  15
ENDBRANCH   1  14
BRANCH   4  19
ATOM     19  C   UNL     1       0.117  10.458  19.677  0.00  0.00    +0.000 C 
ATOM     20  C   UNL     1       0.870  11.793  19.613  0.00  0.00    +0.000 C 
BRANCH  19  21
ATOM     21  N   UNL     1      -0.914  10.423  18.643  0.00  0.00    +0.000 N 
ATOM     22  C   UNL     1      -2.063  11.162  18.731  0.00  0.00    +0.000 C 
ATOM     23  O   UNL     1      -2.370  11.897  19.660  0.00  0.00    +0.000 OA
ATOM     24  H   UNL     1      -0.724   9.930  17.777  0.00  0.00    +0.000 HD
BRANCH  22  25
ATOM     25  C   UNL     1      -2.948  11.116  17.503  0.00  0.00    +0.000 C 
ATOM     26  C   UNL     1      -2.383  10.620  16.186  0.00  0.00    +0.000 C 
ATOM     27  C   UNL     1      -3.297   9.734  16.970  0.00  0.00    +0.000 C 
BRANCH  25  28
ATOM     28  N   UNL     1      -4.005  12.101  17.496  0.00  0.00    +0.000 N 
ATOM     29  C   UNL     1      -5.275  11.816  17.987  0.00  0.00    +0.000 C 
ATOM     30  O   UNL     1      -5.514  10.789  18.622  0.00  0.00    +0.000 OA
ATOM     31  H   UNL     1      -3.924  12.849  16.809  0.00  0.00    +0.000 HD
BRANCH  29  32
ATOM     32  C   UNL     1      -6.317  12.910  17.689  0.00  0.00    +0.000 C 
ATOM     33  F   UNL     1      -6.271  13.914  18.618  0.00  0.00    +0.000 F 
ATOM     34  F   UNL     1      -6.124  13.503  16.481  0.00  0.00    +0.000 F 
ATOM     35  F   UNL     1      -7.595  12.442  17.702  0.00  0.00    +0.000 F 
ENDBRANCH  29  32
ENDBRANCH  25  28
ENDBRANCH  22  25
ENDBRANCH  19  21
ENDBRANCH   4  19
TORSDOF 8
ENDMDL
MODEL 7
REMARK VINA RESULT:      -8.0      1.825      2.589
REMARK  Name = 
REMARK  10 active torsions:
REMARK  status: ('A' for Active; 'I' for Inactive)
REMARK    1  A    between atoms: C_1  and  C_2
REMARK    2  A    between atoms: C_2  and  C_3
REMARK    3  A    between atoms: C_3  and  C_5
REMARK    4  A    between atoms: C_11  and  C_12
REMARK    5  A    between atoms: C_15  and  C_16
REMARK    6  A    between atoms: C_16  and  C_17
REMARK    7  A    between atoms: C_16  and  N_18
REMARK    8  A    between atoms: C_19  and  C_21
REMARK    9  A    between atoms: C_21  and  N_22
REMARK   10  A    between atoms: C_23  and  C_25
REMARK                            x       y       z     vdW  Elec       q    Type
REMARK                         _______ _______ _______ _____ _____    ______ ____
ROOT
ATOM      1  C   UNL     1       1.047   8.283  20.540  0.00  0.00    +0.000 A 
ATOM      2  C   UNL     1       1.086   6.991  21.083  0.00  0.00    +0.000 A 
ATOM      3  C   UNL     1       1.813   5.952  20.478  0.00  0.00    +0.000 A 
ATOM      4  C   UNL     1       2.504   6.154  19.277  0.00  0.00    +0.000 A 
ATOM      5  C   UNL     1       2.410   7.420  18.697  0.00  0.00    +0.000 A 
ATOM      6  F   UNL     1       3.018   7.674  17.530  0.00  0.00    +0.000 F 
ATOM      7  C   UNL     1       1.710   8.463  19.311  0.00  0.00    +0.000 A 
ENDROOT
BRANCH   1  14
ATOM      8  C   UNL     1      -0.193  10.573  20.526  0.00  0.00    +0.000 A 
ATOM      9  C   UNL     1      -0.893  11.549  21.275  0.00  0.00    +0.000 A 
ATOM     10 CL   UNL     1      -1.666  12.946  20.601  0.00  0.00    +0.000 Cl
ATOM     11  C   UNL     1      -1.078  11.404  22.655  0.00  0.00    +0.000 A 
ATOM     12  C   UNL     1      -0.597  10.284  23.311  0.00  0.00    +0.000 A 
ATOM     13  C   UNL     1       0.086   9.310  22.589  0.00  0.00    +0.000 A 
ATOM     14  C   UNL     1       0.311   9.410  21.191  0.00  0.00    +0.000 A 
BRANCH   8  15
ATOM     15  C   UNL     1      -0.075  10.718  19.035  0.00  0.00    +0.000 C 
ATOM     16  O   UNL     1       0.899  11.301  18.563  0.00  0.00    +0.000 OA
BRANCH  15  18
ATOM     17  C   UNL     1      -2.077  11.127  17.507  0.00  0.00    +0.000 C 
ATOM     18  C   UNL     1      -1.138  10.106  18.128  0.00  0.00    +0.000 C 
ENDBRANCH  15  18
ENDBRANCH   8  15
ENDBRANCH   1  14
BRANCH   4  19
ATOM     19  C   UNL     1       3.338   5.075  18.617  0.00  0.00    +0.000 C 
ATOM     20  C   UNL     1       2.536   4.208  17.637  0.00  0.00    +0.000 C 
BRANCH  19  21
ATOM     21  N   UNL     1       4.493   5.651  17.934  0.00  0.00    +0.000 N 
ATOM     22  C   UNL     1       5.711   5.787  18.545  0.00  0.00    +0.000 C 
ATOM     23  O   UNL     1       5.967   5.478  19.701  0.00  0.00    +0.000 OA
ATOM     24  H   UNL     1       4.429   5.848  16.941  0.00  0.00    +0.000 HD
BRANCH  22  25
ATOM     25  C   UNL     1       6.828   6.266  17.643  0.00  0.00    +0.000 C 
ATOM     26  C   UNL     1       7.218   7.732  17.640  0.00  0.00    +0.000 C 
ATOM     27  C   UNL     1       8.100   6.742  18.332  0.00  0.00    +0.000 C 
BRANCH  25  28
ATOM     28  N   UNL     1       6.996   5.485  16.439  0.00  0.00    +0.000 N 
ATOM     29  C   UNL     1       6.146   5.632  15.347  0.00  0.00    +0.000 C 
ATOM     30  O   UNL     1       5.336   6.555  15.269  0.00  0.00    +0.000 OA
ATOM     31  H   UNL     1       7.483   4.596  16.539  0.00  0.00    +0.000 HD
BRANCH  29  32
ATOM     32  C   UNL     1       6.345   4.562  14.257  0.00  0.00    +0.000 C 
ATOM     33  F   UNL     1       6.781   3.379  14.789  0.00  0.00    +0.000 F 
ATOM     34  F   UNL     1       5.198   4.276  13.587  0.00  0.00    +0.000 F 
ATOM     35  F   UNL     1       7.270   4.921  13.325  0.00  0.00    +0.000 F 
ENDBRANCH  29  32
ENDBRANCH  25  28
ENDBRANCH  22  25
ENDBRANCH  19  21
ENDBRANCH   4  19
TORSDOF 8
ENDMDL
MODEL 8
REMARK VINA RESULT:      -8.0      2.218      2.835
REMARK  Name = 
REMARK  10 active torsions:
REMARK  status: ('A' for Active; 'I' for Inactive)
REMARK    1  A    between atoms: C_1  and  C_2
REMARK    2  A    between atoms: C_2  and  C_3
REMARK    3  A    between atoms: C_3  and  C_5
REMARK    4  A    between atoms: C_11  and  C_12
REMARK    5  A    between atoms: C_15  and  C_16
REMARK    6  A    between atoms: C_16  and  C_17
REMARK    7  A    between atoms: C_16  and  N_18
REMARK    8  A    between atoms: C_19  and  C_21
REMARK    9  A    between atoms: C_21  and  N_22
REMARK   10  A    between atoms: C_23  and  C_25
REMARK                            x       y       z     vdW  Elec       q    Type
REMARK                         _______ _______ _______ _____ _____    ______ ____
ROOT
ATOM      1  C   UNL     1       0.692   9.990  19.150  0.00  0.00    +0.000 A 
ATOM      2  C   UNL     1       1.351   9.697  17.948  0.00  0.00    +0.000 A 
ATOM      3  C   UNL     1       2.108   8.526  17.781  0.00  0.00    +0.000 A 
ATOM      4  C   UNL     1       2.269   7.611  18.829  0.00  0.00    +0.000 A 
ATOM      5  C   UNL     1       1.672   7.933  20.049  0.00  0.00    +0.000 A 
ATOM      6  F   UNL     1       1.814   7.120  21.105  0.00  0.00    +0.000 F 
ATOM      7  C   UNL     1       0.896   9.085  20.209  0.00  0.00    +0.000 A 
ENDROOT
BRANCH   1  14
ATOM      8  C   UNL     1       0.337  12.519  19.661  0.00  0.00    +0.000 A 
ATOM      9  C   UNL     1      -0.582  13.589  19.778  0.00  0.00    +0.000 A 
ATOM     10 CL   UNL     1      -0.143  15.243  20.050  0.00  0.00    +0.000 Cl
ATOM     11  C   UNL     1      -1.956  13.384  19.602  0.00  0.00    +0.000 A 
ATOM     12  C   UNL     1      -2.439  12.127  19.282  0.00  0.00    +0.000 A 
ATOM     13  C   UNL     1      -1.549  11.064  19.154  0.00  0.00    +0.000 A 
ATOM     14  C   UNL     1      -0.149  11.213  19.332  0.00  0.00    +0.000 A 
BRANCH   8  15
ATOM     15  C   UNL     1       1.812  12.783  19.782  0.00  0.00    +0.000 C 
ATOM     16  O   UNL     1       2.319  12.856  20.899  0.00  0.00    +0.000 OA
BRANCH  15  18
ATOM     17  C   UNL     1       2.914  14.353  18.100  0.00  0.00    +0.000 C 
ATOM     18  C   UNL     1       2.663  12.915  18.523  0.00  0.00    +0.000 C 
ENDBRANCH  15  18
ENDBRANCH   8  15
ENDBRANCH   1  14
BRANCH   4  19
ATOM     19  C   UNL     1       3.037   6.314  18.677  0.00  0.00    +0.000 C 
ATOM     20  C   UNL     1       2.165   5.150  18.186  0.00  0.00    +0.000 C 
BRANCH  19  21
ATOM     21  N   UNL     1       4.180   6.485  17.785  0.00  0.00    +0.000 N 
ATOM     22  C   UNL     1       5.168   5.543  17.674  0.00  0.00    +0.000 C 
ATOM     23  O   UNL     1       5.229   4.495  18.302  0.00  0.00    +0.000 OA
ATOM     24  H   UNL     1       4.186   7.266  17.138  0.00  0.00    +0.000 HD
BRANCH  22  25
ATOM     25  C   UNL     1       6.195   5.818  16.596  0.00  0.00    +0.000 C 
ATOM     26  C   UNL     1       6.868   4.661  15.883  0.00  0.00    +0.000 C 
ATOM     27  C   UNL     1       5.805   5.438  15.174  0.00  0.00    +0.000 C 
BRANCH  25  28
ATOM     28  N   UNL     1       6.912   7.062  16.762  0.00  0.00    +0.000 N 
ATOM     29  C   UNL     1       7.705   7.307  17.879  0.00  0.00    +0.000 C 
ATOM     30  O   UNL     1       7.993   6.420  18.683  0.00  0.00    +0.000 OA
ATOM     31  H   UNL     1       6.542   7.869  16.264  0.00  0.00    +0.000 HD
BRANCH  29  32
ATOM     32  C   UNL     1       8.201   8.761  17.983  0.00  0.00    +0.000 C 
ATOM     33  F   UNL     1       8.995   9.097  16.920  0.00  0.00    +0.000 F 
ATOM     34  F   UNL     1       7.184   9.662  17.997  0.00  0.00    +0.000 F 
ATOM     35  F   UNL     1       8.947   8.988  19.099  0.00  0.00    +0.000 F 
ENDBRANCH  29  32
ENDBRANCH  25  28
ENDBRANCH  22  25
ENDBRANCH  19  21
ENDBRANCH   4  19
TORSDOF 8
ENDMDL
MODEL 9
REMARK VINA RESULT:      -8.0      5.010      9.879
REMARK  Name = 
REMARK  10 active torsions:
REMARK  status: ('A' for Active; 'I' for Inactive)
REMARK    1  A    between atoms: C_1  and  C_2
REMARK    2  A    between atoms: C_2  and  C_3
REMARK    3  A    between atoms: C_3  and  C_5
REMARK    4  A    between atoms: C_11  and  C_12
REMARK    5  A    between atoms: C_15  and  C_16
REMARK    6  A    between atoms: C_16  and  C_17
REMARK    7  A    between atoms: C_16  and  N_18
REMARK    8  A    between atoms: C_19  and  C_21
REMARK    9  A    between atoms: C_21  and  N_22
REMARK   10  A    between atoms: C_23  and  C_25
REMARK                            x       y       z     vdW  Elec       q    Type
REMARK                         _______ _______ _______ _____ _____    ______ ____
ROOT
ATOM      1  C   UNL     1       2.724   7.204  18.572  0.00  0.00    +0.000 A 
ATOM      2  C   UNL     1       2.453   8.066  17.499  0.00  0.00    +0.000 A 
ATOM      3  C   UNL     1       1.675   9.225  17.655  0.00  0.00    +0.000 A 
ATOM      4  C   UNL     1       1.100   9.552  18.890  0.00  0.00    +0.000 A 
ATOM      5  C   UNL     1       1.310   8.661  19.943  0.00  0.00    +0.000 A 
ATOM      6  F   UNL     1       0.761   8.893  21.144  0.00  0.00    +0.000 F 
ATOM      7  C   UNL     1       2.106   7.521  19.797  0.00  0.00    +0.000 A 
ENDROOT
BRANCH   1  14
ATOM      8  C   UNL     1       3.117   4.634  18.429  0.00  0.00    +0.000 A 
ATOM      9  C   UNL     1       4.051   3.582  18.264  0.00  0.00    +0.000 A 
ATOM     10 CL   UNL     1       3.636   1.906  18.117  0.00  0.00    +0.000 Cl
ATOM     11  C   UNL     1       5.419   3.846  18.131  0.00  0.00    +0.000 A 
ATOM     12  C   UNL     1       5.883   5.150  18.132  0.00  0.00    +0.000 A 
ATOM     13  C   UNL     1       4.978   6.197  18.284  0.00  0.00    +0.000 A 
ATOM     14  C   UNL     1       3.582   5.988  18.433  0.00  0.00    +0.000 A 
BRANCH   8  15
ATOM     15  C   UNL     1       1.647   4.325  18.495  0.00  0.00    +0.000 C 
ATOM     16  O   UNL     1       1.019   4.168  17.450  0.00  0.00    +0.000 OA
BRANCH  15  18
ATOM     17  C   UNL     1       1.906   3.744  20.966  0.00  0.00    +0.000 C 
ATOM     18  C   UNL     1       0.966   4.172  19.851  0.00  0.00    +0.000 C 
ENDBRANCH  15  18
ENDBRANCH   8  15
ENDBRANCH   1  14
BRANCH   4  19
ATOM     19  C   UNL     1       0.294  10.815  19.112  0.00  0.00    +0.000 C 
ATOM     20  C   UNL     1       1.151  12.088  19.102  0.00  0.00    +0.000 C 
BRANCH  19  21
ATOM     21  N   UNL     1      -0.775  10.933  18.124  0.00  0.00    +0.000 N 
ATOM     22  C   UNL     1      -1.906  10.162  18.174  0.00  0.00    +0.000 C 
ATOM     23  O   UNL     1      -2.141   9.295  19.005  0.00  0.00    +0.000 OA
ATOM     24  H   UNL     1      -0.739  11.689  17.448  0.00  0.00    +0.000 HD
BRANCH  22  25
ATOM     25  C   UNL     1      -2.970  10.522  17.159  0.00  0.00    +0.000 C 
ATOM     26  C   UNL     1      -2.568  11.118  15.824  0.00  0.00    +0.000 C 
ATOM     27  C   UNL     1      -3.002   9.688  15.886  0.00  0.00    +0.000 C 
BRANCH  25  28
ATOM     28  N   UNL     1      -4.247  10.874  17.737  0.00  0.00    +0.000 N 
ATOM     29  C   UNL     1      -4.348  11.760  18.805  0.00  0.00    +0.000 C 
ATOM     30  O   UNL     1      -3.391  12.433  19.188  0.00  0.00    +0.000 OA
ATOM     31  H   UNL     1      -5.003  10.203  17.611  0.00  0.00    +0.000 HD
BRANCH  29  32
ATOM     32  C   UNL     1      -5.758  11.833  19.421  0.00  0.00    +0.000 C 
ATOM     33  F   UNL     1      -6.618  12.537  18.623  0.00  0.00    +0.000 F 
ATOM     34  F   UNL     1      -6.318  10.607  19.595  0.00  0.00    +0.000 F 
ATOM     35  F   UNL     1      -5.774  12.452  20.633  0.00  0.00    +0.000 F 
ENDBRANCH  29  32
ENDBRANCH  25  28
ENDBRANCH  22  25
ENDBRANCH  19  21
ENDBRANCH   4  19
TORSDOF 8
ENDMDL
