MODEL 1
REMARK VINA RESULT:      -8.0      0.000      0.000
REMARK  Name = 
REMARK  7 active torsions:
REMARK  status: ('A' for Active; 'I' for Inactive)
REMARK    1  A    between atoms: C_1  and  C_2
REMARK    2  A    between atoms: C_2  and  C_3
REMARK    3  A    between atoms: C_6  and  C_7
REMARK    4  A    between atoms: N_12  and  C_13
REMARK    5  A    between atoms: C_13  and  C_14
REMARK    6  A    between atoms: C_14  and  C_15
REMARK    7  A    between atoms: C_15  and  C_16
REMARK                            x       y       z     vdW  Elec       q    Type
REMARK                         _______ _______ _______ _____ _____    ______ ____
ROOT
ATOM      1  C   UNL     1       1.919   8.320  19.348  0.00  0.00    +0.000 C 
ATOM      2  C   UNL     1       2.239   7.018  19.392  0.00  0.00    +0.000 C 
ATOM      3  S   UNL     1       1.748   5.867  20.567  0.00  0.00    +0.000 S 
ATOM      4  C   UNL     1       2.680   4.573  19.833  0.00  0.00    +0.000 C 
ATOM      5  S   UNL     1       2.719   3.039  20.485  0.00  0.00    +0.000 S 
ATOM      6  N   UNL     1       3.327   5.041  18.705  0.00  0.00    +0.000 N 
ATOM      7  C   UNL     1       3.121   6.374  18.380  0.00  0.00    +0.000 C 
ATOM      8  O   UNL     1       3.573   6.961  17.407  0.00  0.00    +0.000 OA
ENDROOT
BRANCH   1  12
ATOM      9  C   UNL     1      -0.515  10.346  22.232  0.00  0.00    +0.000 A 
ATOM     10  C   UNL     1      -0.651  10.619  20.865  0.00  0.00    +0.000 A 
ATOM     11  C   UNL     1       0.149   9.958  19.927  0.00  0.00    +0.000 A 
ATOM     12  C   UNL     1       1.095   9.014  20.342  0.00  0.00    +0.000 A 
ATOM     13  C   UNL     1       1.245   8.749  21.705  0.00  0.00    +0.000 A 
ATOM     14  C   UNL     1       0.441   9.407  22.643  0.00  0.00    +0.000 A 
BRANCH   9  16
ATOM     15  C   UNL     1      -1.720  12.470  22.860  0.00  0.00    +0.000 C 
ATOM     16  C   UNL     1      -1.391  11.036  23.249  0.00  0.00    +0.000 C 
ENDBRANCH   9  16
ENDBRANCH   1  12
BRANCH   6  17
ATOM     17  C   UNL     1       4.150   4.221  17.817  0.00  0.00    +0.000 C 
BRANCH  17  18
ATOM     18  C   UNL     1       5.620   4.151  18.217  0.00  0.00    +0.000 C 
BRANCH  18  19
ATOM     19  C   UNL     1       6.434   5.454  18.180  0.00  0.00    +0.000 C 
BRANCH  19  20
ATOM     20  C   UNL     1       6.969   5.634  16.769  0.00  0.00    +0.000 C 
ATOM     21  O   UNL     1       7.613   6.647  16.483  0.00  0.00    +0.000 OA
ATOM     22  N   UNL     1       6.658   4.624  15.892  0.00  0.00    +0.000 N 
ATOM     23  C   UNL     1       7.079   4.722  14.589  0.00  0.00    +0.000 A 
ATOM     24  N   UNL     1       7.978   5.534  14.094  0.00  0.00    +0.000 NA
ATOM     25  C   UNL     1       7.992   5.440  12.723  0.00  0.00    +0.000 A 
ATOM     26  C   UNL     1       7.121   4.512  12.194  0.00  0.00    +0.000 A 
ATOM     27  S   UNL     1       6.299   3.698  13.470  0.00  0.00    +0.000 S 
ATOM     28  H   UNL     1       5.979   3.909  16.115  0.00  0.00    +0.000 HD
ENDBRANCH  19  20
ENDBRANCH  18  19
ENDBRANCH  17  18
ENDBRANCH   6  17
TORSDOF 6
ENDMDL
MODEL 2
REMARK VINA RESULT:      -7.7      4.877     10.113
REMARK  Name = 
REMARK  7 active torsions:
REMARK  status: ('A' for Active; 'I' for Inactive)
REMARK    1  A    between atoms: C_1  and  C_2
REMARK    2  A    between atoms: C_2  and  C_3
REMARK    3  A    between atoms: C_6  and  C_7
REMARK    4  A    between atoms: N_12  and  C_13
REMARK    5  A    between atoms: C_13  and  C_14
REMARK    6  A    between atoms: C_14  and  C_15
REMARK    7  A    between atoms: C_15  and  C_16
REMARK                            x       y       z     vdW  Elec       q    Type
REMARK                         _______ _______ _______ _____ _____    ______ ____
ROOT
ATOM      1  C   UNL     1       2.564   7.283  18.013  0.00  0.00    +0.000 C 
ATOM      2  C   UNL     1       1.990   8.090  18.919  0.00  0.00    +0.000 C 
ATOM      3  S   UNL     1       1.508   7.681  20.516  0.00  0.00    +0.000 S 
ATOM      4  C   UNL     1       0.854   9.280  20.833  0.00  0.00    +0.000 C 
ATOM      5  S   UNL     1       0.134   9.661  22.287  0.00  0.00    +0.000 S 
ATOM      6  N   UNL     1       1.032  10.089  19.727  0.00  0.00    +0.000 N 
ATOM      7  C   UNL     1       1.670   9.516  18.636  0.00  0.00    +0.000 C 
ATOM      8  O   UNL     1       1.951  10.075  17.585  0.00  0.00    +0.000 OA
ENDROOT
BRANCH   1  12
ATOM      9  C   UNL     1       3.410   3.126  18.598  0.00  0.00    +0.000 A 
ATOM     10  C   UNL     1       2.191   3.535  18.045  0.00  0.00    +0.000 A 
ATOM     11  C   UNL     1       1.917   4.895  17.859  0.00  0.00    +0.000 A 
ATOM     12  C   UNL     1       2.858   5.863  18.223  0.00  0.00    +0.000 A 
ATOM     13  C   UNL     1       4.070   5.461  18.790  0.00  0.00    +0.000 A 
ATOM     14  C   UNL     1       4.345   4.100  18.971  0.00  0.00    +0.000 A 
BRANCH   9  16
ATOM     15  C   UNL     1       4.520   1.386  20.048  0.00  0.00    +0.000 C 
ATOM     16  C   UNL     1       3.724   1.661  18.779  0.00  0.00    +0.000 C 
ENDBRANCH   9  16
ENDBRANCH   1  12
BRANCH   6  17
ATOM     17  C   UNL     1       0.655  11.499  19.659  0.00  0.00    +0.000 C 
BRANCH  17  18
ATOM     18  C   UNL     1      -0.837  11.736  19.455  0.00  0.00    +0.000 C 
BRANCH  18  19
ATOM     19  C   UNL     1      -1.355  11.835  18.011  0.00  0.00    +0.000 C 
BRANCH  19  20
ATOM     20  C   UNL     1      -2.821  11.430  18.009  0.00  0.00    +0.000 C 
ATOM     21  O   UNL     1      -3.181  10.439  17.369  0.00  0.00    +0.000 OA
ATOM     22  N   UNL     1      -3.654  12.249  18.730  0.00  0.00    +0.000 N 
ATOM     23  C   UNL     1      -4.999  11.970  18.758  0.00  0.00    +0.000 A 
ATOM     24  N   UNL     1      -5.597  10.863  18.399  0.00  0.00    +0.000 NA
ATOM     25  C   UNL     1      -6.960  11.040  18.416  0.00  0.00    +0.000 A 
ATOM     26  C   UNL     1      -7.382  12.283  18.835  0.00  0.00    +0.000 A 
ATOM     27  S   UNL     1      -6.016  13.239  19.271  0.00  0.00    +0.000 S 
ATOM     28  H   UNL     1      -3.352  13.146  19.084  0.00  0.00    +0.000 HD
ENDBRANCH  19  20
ENDBRANCH  18  19
ENDBRANCH  17  18
ENDBRANCH   6  17
TORSDOF 6
ENDMDL
MODEL 3
REMARK VINA RESULT:      -7.6      5.555     11.028
REMARK  Name = 
REMARK  7 active torsions:
REMARK  status: ('A' for Active; 'I' for Inactive)
REMARK    1  A    between atoms: C_1  and  C_2
REMARK    2  A    between atoms: C_2  and  C_3
REMARK    3  A    between atoms: C_6  and  C_7
REMARK    4  A    between atoms: N_12  and  C_13
REMARK    5  A    between atoms: C_13  and  C_14
REMARK    6  A    between atoms: C_14  and  C_15
REMARK    7  A    between atoms: C_15  and  C_16
REMARK                            x       y       z     vdW  Elec       q    Type
REMARK                         _______ _______ _______ _____ _____    ______ ____
ROOT
ATOM      1  C   UNL     1       1.383   8.011  21.388  0.00  0.00    +0.000 C 
ATOM      2  C   UNL     1       0.595   9.074  21.168  0.00  0.00    +0.000 C 
ATOM      3  S   UNL     1      -0.101   9.559  19.675  0.00  0.00    +0.000 S 
ATOM      4  C   UNL     1      -0.841  10.991  20.373  0.00  0.00    +0.000 C 
ATOM      5  S   UNL     1      -1.730  12.058  19.451  0.00  0.00    +0.000 S 
ATOM      6  N   UNL     1      -0.557  11.057  21.723  0.00  0.00    +0.000 N 
ATOM      7  C   UNL     1       0.213  10.027  22.246  0.00  0.00    +0.000 C 
ATOM      8  O   UNL     1       0.537   9.887  23.417  0.00  0.00    +0.000 OA
ENDROOT
BRANCH   1  12
ATOM      9  C   UNL     1       2.707   5.278  18.368  0.00  0.00    +0.000 A 
ATOM     10  C   UNL     1       2.822   6.660  18.180  0.00  0.00    +0.000 A 
ATOM     11  C   UNL     1       2.384   7.550  19.167  0.00  0.00    +0.000 A 
ATOM     12  C   UNL     1       1.827   7.069  20.357  0.00  0.00    +0.000 A 
ATOM     13  C   UNL     1       1.696   5.691  20.543  0.00  0.00    +0.000 A 
ATOM     14  C   UNL     1       2.138   4.802  19.557  0.00  0.00    +0.000 A 
BRANCH   9  16
ATOM     15  C   UNL     1       4.524   4.739  16.704  0.00  0.00    +0.000 C 
ATOM     16  C   UNL     1       3.199   4.310  17.319  0.00  0.00    +0.000 C 
ENDBRANCH   9  16
ENDBRANCH   1  12
BRANCH   6  17
ATOM     17  C   UNL     1      -1.057  12.089  22.629  0.00  0.00    +0.000 C 
BRANCH  17  18
ATOM     18  C   UNL     1      -2.390  11.747  23.288  0.00  0.00    +0.000 C 
BRANCH  18  19
ATOM     19  C   UNL     1      -3.377  12.897  23.544  0.00  0.00    +0.000 C 
BRANCH  19  20
ATOM     20  C   UNL     1      -4.073  13.218  22.231  0.00  0.00    +0.000 C 
ATOM     21  O   UNL     1      -3.779  14.249  21.619  0.00  0.00    +0.000 OA
ATOM     22  N   UNL     1      -5.025  12.311  21.836  0.00  0.00    +0.000 N 
ATOM     23  C   UNL     1      -5.720  12.541  20.674  0.00  0.00    +0.000 A 
ATOM     24  N   UNL     1      -5.434  13.391  19.721  0.00  0.00    +0.000 NA
ATOM     25  C   UNL     1      -6.464  13.442  18.813  0.00  0.00    +0.000 A 
ATOM     26  C   UNL     1      -7.513  12.586  19.071  0.00  0.00    +0.000 A 
ATOM     27  S   UNL     1      -7.162  11.652  20.476  0.00  0.00    +0.000 S 
ATOM     28  H   UNL     1      -5.363  11.585  22.451  0.00  0.00    +0.000 HD
ENDBRANCH  19  20
ENDBRANCH  18  19
ENDBRANCH  17  18
ENDBRANCH   6  17
TORSDOF 6
ENDMDL
MODEL 4
REMARK VINA RESULT:      -7.4      5.663     11.210
REMARK  Name = 
REMARK  7 active torsions:
REMARK  status: ('A' for Active; 'I' for Inactive)
REMARK    1  A    between atoms: C_1  and  C_2
REMARK    2  A    between atoms: C_2  and  C_3
REMARK    3  A    between atoms: C_6  and  C_7
REMARK    4  A    between atoms: N_12  and  C_13
REMARK    5  A    between atoms: C_13  and  C_14
REMARK    6  A    between atoms: C_14  and  C_15
REMARK    7  A    between atoms: C_15  and  C_16
REMARK                            x       y       z     vdW  Elec       q    Type
REMARK                         _______ _______ _______ _____ _____    ______ ____
ROOT
ATOM      1  C   UNL     1       1.351   7.966  21.283  0.00  0.00    +0.000 C 
ATOM      2  C   UNL     1       0.653   9.089  21.056  0.00  0.00    +0.000 C 
ATOM      3  S   UNL     1       0.110   9.685  19.541  0.00  0.00    +0.000 S 
ATOM      4  C   UNL     1      -0.587  11.133  20.249  0.00  0.00    +0.000 C 
ATOM      5  S   UNL     1      -1.330  12.298  19.315  0.00  0.00    +0.000 S 
ATOM      6  N   UNL     1      -0.405  11.121  21.619  0.00  0.00    +0.000 N 
ATOM      7  C   UNL     1       0.252  10.019  22.147  0.00  0.00    +0.000 C 
ATOM      8  O   UNL     1       0.475   9.808  23.331  0.00  0.00    +0.000 OA
ENDROOT
BRANCH   1  12
ATOM      9  C   UNL     1       2.669   5.243  18.251  0.00  0.00    +0.000 A 
ATOM     10  C   UNL     1       2.105   4.768  19.441  0.00  0.00    +0.000 A 
ATOM     11  C   UNL     1       1.679   5.661  20.431  0.00  0.00    +0.000 A 
ATOM     12  C   UNL     1       1.811   7.041  20.244  0.00  0.00    +0.000 A 
ATOM     13  C   UNL     1       2.388   7.520  19.065  0.00  0.00    +0.000 A 
ATOM     14  C   UNL     1       2.808   6.626  18.074  0.00  0.00    +0.000 A 
BRANCH   9  16
ATOM     15  C   UNL     1       3.587   2.954  17.723  0.00  0.00    +0.000 C 
ATOM     16  C   UNL     1       3.108   4.289  17.168  0.00  0.00    +0.000 C 
ENDBRANCH   9  16
ENDBRANCH   1  12
BRANCH   6  17
ATOM     17  C   UNL     1      -0.906  12.146  22.533  0.00  0.00    +0.000 C 
BRANCH  17  18
ATOM     18  C   UNL     1      -2.292  11.853  23.099  0.00  0.00    +0.000 C 
BRANCH  18  19
ATOM     19  C   UNL     1      -3.114  13.039  23.627  0.00  0.00    +0.000 C 
BRANCH  19  20
ATOM     20  C   UNL     1      -4.451  13.042  22.903  0.00  0.00    +0.000 C 
ATOM     21  O   UNL     1      -5.494  13.196  23.545  0.00  0.00    +0.000 OA
ATOM     22  N   UNL     1      -4.382  12.842  21.547  0.00  0.00    +0.000 N 
ATOM     23  C   UNL     1      -5.548  12.802  20.821  0.00  0.00    +0.000 A 
ATOM     24  N   UNL     1      -6.741  13.190  21.195  0.00  0.00    +0.000 NA
ATOM     25  C   UNL     1      -7.669  12.830  20.248  0.00  0.00    +0.000 A 
ATOM     26  C   UNL     1      -7.154  12.203  19.134  0.00  0.00    +0.000 A 
ATOM     27  S   UNL     1      -5.438  12.115  19.264  0.00  0.00    +0.000 S 
ATOM     28  H   UNL     1      -3.533  12.538  21.091  0.00  0.00    +0.000 HD
ENDBRANCH  19  20
ENDBRANCH  18  19
ENDBRANCH  17  18
ENDBRANCH   6  17
TORSDOF 6
ENDMDL
MODEL 5
REMARK VINA RESULT:      -7.4      5.042     10.589
REMARK  Name = 
REMARK  7 active torsions:
REMARK  status: ('A' for Active; 'I' for Inactive)
REMARK    1  A    between atoms: C_1  and  C_2
REMARK    2  A    between atoms: C_2  and  C_3
REMARK    3  A    between atoms: C_6  and  C_7
REMARK    4  A    between atoms: N_12  and  C_13
REMARK    5  A    between atoms: C_13  and  C_14
REMARK    6  A    between atoms: C_14  and  C_15
REMARK    7  A    between atoms: C_15  and  C_16
REMARK                            x       y       z     vdW  Elec       q    Type
REMARK                         _______ _______ _______ _____ _____    ______ ____
ROOT
ATOM      1  C   UNL     1       2.401   8.021  18.044  0.00  0.00    +0.000 C 
ATOM      2  C   UNL     1       1.852   8.620  19.111  0.00  0.00    +0.000 C 
ATOM      3  S   UNL     1       1.541   7.921  20.649  0.00  0.00    +0.000 S 
ATOM      4  C   UNL     1       0.803   9.386  21.275  0.00  0.00    +0.000 C 
ATOM      5  S   UNL     1       0.186   9.467  22.822  0.00  0.00    +0.000 S 
ATOM      6  N   UNL     1       0.826  10.374  20.309  0.00  0.00    +0.000 N 
ATOM      7  C   UNL     1       1.405  10.040  19.093  0.00  0.00    +0.000 C 
ATOM      8  O   UNL     1       1.553  10.782  18.133  0.00  0.00    +0.000 OA
ENDROOT
BRANCH   1  12
ATOM      9  C   UNL     1       3.586   3.909  17.872  0.00  0.00    +0.000 A 
ATOM     10  C   UNL     1       2.231   4.261  17.883  0.00  0.00    +0.000 A 
ATOM     11  C   UNL     1       1.849   5.606  17.943  0.00  0.00    +0.000 A 
ATOM     12  C   UNL     1       2.815   6.616  17.993  0.00  0.00    +0.000 A 
ATOM     13  C   UNL     1       4.168   6.269  17.998  0.00  0.00    +0.000 A 
ATOM     14  C   UNL     1       4.550   4.924  17.932  0.00  0.00    +0.000 A 
BRANCH   9  16
ATOM     15  C   UNL     1       3.161   1.550  18.657  0.00  0.00    +0.000 C 
ATOM     16  C   UNL     1       4.009   2.463  17.782  0.00  0.00    +0.000 C 
ENDBRANCH   9  16
ENDBRANCH   1  12
BRANCH   6  17
ATOM     17  C   UNL     1       0.343  11.740  20.505  0.00  0.00    +0.000 C 
BRANCH  17  18
ATOM     18  C   UNL     1      -1.018  12.016  19.873  0.00  0.00    +0.000 C 
BRANCH  18  19
ATOM     19  C   UNL     1      -1.789  13.258  20.349  0.00  0.00    +0.000 C 
BRANCH  19  20
ATOM     20  C   UNL     1      -3.181  12.813  20.769  0.00  0.00    +0.000 C 
ATOM     21  O   UNL     1      -3.413  12.569  21.956  0.00  0.00    +0.000 OA
ATOM     22  N   UNL     1      -4.090  12.693  19.747  0.00  0.00    +0.000 N 
ATOM     23  C   UNL     1      -5.363  12.269  20.037  0.00  0.00    +0.000 A 
ATOM     24  N   UNL     1      -5.940  12.200  21.210  0.00  0.00    +0.000 NA
ATOM     25  C   UNL     1      -7.154  11.566  21.099  0.00  0.00    +0.000 A 
ATOM     26  C   UNL     1      -7.505  11.197  19.819  0.00  0.00    +0.000 A 
ATOM     27  S   UNL     1      -6.287  11.715  18.715  0.00  0.00    +0.000 S 
ATOM     28  H   UNL     1      -3.813  12.723  18.776  0.00  0.00    +0.000 HD
ENDBRANCH  19  20
ENDBRANCH  18  19
ENDBRANCH  17  18
ENDBRANCH   6  17
TORSDOF 6
ENDMDL
MODEL 6
REMARK VINA RESULT:      -7.4      5.043     10.326
REMARK  Name = 
REMARK  7 active torsions:
REMARK  status: ('A' for Active; 'I' for Inactive)
REMARK    1  A    between atoms: C_1  and  C_2
REMARK    2  A    between atoms: C_2  and  C_3
REMARK    3  A    between atoms: C_6  and  C_7
REMARK    4  A    between atoms: N_12  and  C_13
REMARK    5  A    between atoms: C_13  and  C_14
REMARK    6  A    between atoms: C_14  and  C_15
REMARK    7  A    between atoms: C_15  and  C_16
REMARK                            x       y       z     vdW  Elec       q    Type
REMARK                         _______ _______ _______ _____ _____    ______ ____
ROOT
ATOM      1  C   UNL     1       2.375   7.493  18.306  0.00  0.00    +0.000 C 
ATOM      2  C   UNL     1       1.824   8.240  19.274  0.00  0.00    +0.000 C 
ATOM      3  S   UNL     1       1.411   7.738  20.864  0.00  0.00    +0.000 S 
ATOM      4  C   UNL     1       0.742   9.305  21.290  0.00  0.00    +0.000 C 
ATOM      5  S   UNL     1       0.072   9.596  22.789  0.00  0.00    +0.000 S 
ATOM      6  N   UNL     1       0.864  10.175  20.223  0.00  0.00    +0.000 N 
ATOM      7  C   UNL     1       1.468   9.672  19.079  0.00  0.00    +0.000 C 
ATOM      8  O   UNL     1       1.699  10.291  18.050  0.00  0.00    +0.000 OA
ENDROOT
BRANCH   1  12
ATOM      9  C   UNL     1       3.318   3.328  18.634  0.00  0.00    +0.000 A 
ATOM     10  C   UNL     1       2.127   3.745  18.027  0.00  0.00    +0.000 A 
ATOM     11  C   UNL     1       1.821   5.106  17.925  0.00  0.00    +0.000 A 
ATOM     12  C   UNL     1       2.702   6.070  18.429  0.00  0.00    +0.000 A 
ATOM     13  C   UNL     1       3.884   5.659  19.050  0.00  0.00    +0.000 A 
ATOM     14  C   UNL     1       4.191   4.297  19.147  0.00  0.00    +0.000 A 
BRANCH   9  16
ATOM     15  C   UNL     1       4.562   1.549  19.919  0.00  0.00    +0.000 C 
ATOM     16  C   UNL     1       3.668   1.863  18.727  0.00  0.00    +0.000 C 
ENDBRANCH   9  16
ENDBRANCH   1  12
BRANCH   6  17
ATOM     17  C   UNL     1       0.460  11.579  20.245  0.00  0.00    +0.000 C 
BRANCH  17  18
ATOM     18  C   UNL     1      -1.040  11.799  20.078  0.00  0.00    +0.000 C 
BRANCH  18  19
ATOM     19  C   UNL     1      -1.752  12.688  21.110  0.00  0.00    +0.000 C 
BRANCH  19  20
ATOM     20  C   UNL     1      -3.240  12.671  20.798  0.00  0.00    +0.000 C 
ATOM     21  O   UNL     1      -4.056  12.909  21.692  0.00  0.00    +0.000 OA
ATOM     22  N   UNL     1      -3.561  12.356  19.500  0.00  0.00    +0.000 N 
ATOM     23  C   UNL     1      -4.885  12.291  19.141  0.00  0.00    +0.000 A 
ATOM     24  N   UNL     1      -5.920  12.744  19.802  0.00  0.00    +0.000 NA
ATOM     25  C   UNL     1      -7.082  12.333  19.193  0.00  0.00    +0.000 A 
ATOM     26  C   UNL     1      -6.908  11.601  18.038  0.00  0.00    +0.000 A 
ATOM     27  S   UNL     1      -5.227  11.473  17.684  0.00  0.00    +0.000 S 
ATOM     28  H   UNL     1      -2.879  11.991  18.852  0.00  0.00    +0.000 HD
ENDBRANCH  19  20
ENDBRANCH  18  19
ENDBRANCH  17  18
ENDBRANCH   6  17
TORSDOF 6
ENDMDL
MODEL 7
REMARK VINA RESULT:      -7.3      5.897     11.785
REMARK  Name = 
REMARK  7 active torsions:
REMARK  status: ('A' for Active; 'I' for Inactive)
REMARK    1  A    between atoms: C_1  and  C_2
REMARK    2  A    between atoms: C_2  and  C_3
REMARK    3  A    between atoms: C_6  and  C_7
REMARK    4  A    between atoms: N_12  and  C_13
REMARK    5  A    between atoms: C_13  and  C_14
REMARK    6  A    between atoms: C_14  and  C_15
REMARK    7  A    between atoms: C_15  and  C_16
REMARK                            x       y       z     vdW  Elec       q    Type
REMARK                         _______ _______ _______ _____ _____    ______ ____
ROOT
ATOM      1  C   UNL     1       1.422   8.061  21.132  0.00  0.00    +0.000 C 
ATOM      2  C   UNL     1       0.879   9.236  20.781  0.00  0.00    +0.000 C 
ATOM      3  S   UNL     1       0.582   9.808  19.189  0.00  0.00    +0.000 S 
ATOM      4  C   UNL     1      -0.033  11.353  19.753  0.00  0.00    +0.000 C 
ATOM      5  S   UNL     1      -0.535  12.539  18.694  0.00  0.00    +0.000 S 
ATOM      6  N   UNL     1      -0.015  11.391  21.134  0.00  0.00    +0.000 N 
ATOM      7  C   UNL     1       0.456  10.255  21.780  0.00  0.00    +0.000 C 
ATOM      8  O   UNL     1       0.515  10.082  22.989  0.00  0.00    +0.000 OA
ENDROOT
BRANCH   1  12
ATOM      9  C   UNL     1       2.843   5.103  18.380  0.00  0.00    +0.000 A 
ATOM     10  C   UNL     1       3.112   6.461  18.170  0.00  0.00    +0.000 A 
ATOM     11  C   UNL     1       2.642   7.424  19.069  0.00  0.00    +0.000 A 
ATOM     12  C   UNL     1       1.898   7.043  20.191  0.00  0.00    +0.000 A 
ATOM     13  C   UNL     1       1.614   5.691  20.397  0.00  0.00    +0.000 A 
ATOM     14  C   UNL     1       2.089   4.728  19.499  0.00  0.00    +0.000 A 
BRANCH   9  16
ATOM     15  C   UNL     1       4.586   4.529  16.649  0.00  0.00    +0.000 C 
ATOM     16  C   UNL     1       3.367   4.055  17.428  0.00  0.00    +0.000 C 
ENDBRANCH   9  16
ENDBRANCH   1  12
BRANCH   6  17
ATOM     17  C   UNL     1      -0.506  12.505  21.943  0.00  0.00    +0.000 C 
BRANCH  17  18
ATOM     18  C   UNL     1      -2.014  12.493  22.169  0.00  0.00    +0.000 C 
BRANCH  18  19
ATOM     19  C   UNL     1      -2.532  11.974  23.520  0.00  0.00    +0.000 C 
BRANCH  19  20
ATOM     20  C   UNL     1      -3.940  12.511  23.721  0.00  0.00    +0.000 C 
ATOM     21  O   UNL     1      -4.642  12.061  24.630  0.00  0.00    +0.000 OA
ATOM     22  N   UNL     1      -4.333  13.472  22.822  0.00  0.00    +0.000 N 
ATOM     23  C   UNL     1      -5.601  13.990  22.917  0.00  0.00    +0.000 A 
ATOM     24  N   UNL     1      -6.437  13.891  23.918  0.00  0.00    +0.000 NA
ATOM     25  C   UNL     1      -7.663  14.398  23.559  0.00  0.00    +0.000 A 
ATOM     26  C   UNL     1      -7.726  14.922  22.286  0.00  0.00    +0.000 A 
ATOM     27  S   UNL     1      -6.176  14.818  21.541  0.00  0.00    +0.000 S 
ATOM     28  H   UNL     1      -3.801  13.678  21.989  0.00  0.00    +0.000 HD
ENDBRANCH  19  20
ENDBRANCH  18  19
ENDBRANCH  17  18
ENDBRANCH   6  17
TORSDOF 6
ENDMDL
MODEL 8
REMARK VINA RESULT:      -7.2      5.064     10.950
REMARK  Name = 
REMARK  7 active torsions:
REMARK  status: ('A' for Active; 'I' for Inactive)
REMARK    1  A    between atoms: C_1  and  C_2
REMARK    2  A    between atoms: C_2  and  C_3
REMARK    3  A    between atoms: C_6  and  C_7
REMARK    4  A    between atoms: N_12  and  C_13
REMARK    5  A    between atoms: C_13  and  C_14
REMARK    6  A    between atoms: C_14  and  C_15
REMARK    7  A    between atoms: C_15  and  C_16
REMARK                            x       y       z     vdW  Elec       q    Type
REMARK                         _______ _______ _______ _____ _____    ______ ____
ROOT
ATOM      1  C   UNL     1       2.402   7.799  18.175  0.00  0.00    +0.000 C 
ATOM      2  C   UNL     1       1.819   8.486  19.169  0.00  0.00    +0.000 C 
ATOM      3  S   UNL     1       1.364   7.893  20.715  0.00  0.00    +0.000 S 
ATOM      4  C   UNL     1       0.673   9.430  21.210  0.00  0.00    +0.000 C 
ATOM      5  S   UNL     1      -0.040   9.631  22.703  0.00  0.00    +0.000 S 
ATOM      6  N   UNL     1       0.820  10.359  20.198  0.00  0.00    +0.000 N 
ATOM      7  C   UNL     1       1.459   9.926  19.045  0.00  0.00    +0.000 C 
ATOM      8  O   UNL     1       1.715  10.604  18.060  0.00  0.00    +0.000 OA
ENDROOT
BRANCH   1  12
ATOM      9  C   UNL     1       3.358   3.626  18.296  0.00  0.00    +0.000 A 
ATOM     10  C   UNL     1       2.093   4.057  17.879  0.00  0.00    +0.000 A 
ATOM     11  C   UNL     1       1.783   5.421  17.845  0.00  0.00    +0.000 A 
ATOM     12  C   UNL     1       2.735   6.373  18.226  0.00  0.00    +0.000 A 
ATOM     13  C   UNL     1       3.993   5.947  18.658  0.00  0.00    +0.000 A 
ATOM     14  C   UNL     1       4.303   4.583  18.687  0.00  0.00    +0.000 A 
BRANCH   9  16
ATOM     15  C   UNL     1       4.317   1.717  19.636  0.00  0.00    +0.000 C 
ATOM     16  C   UNL     1       3.708   2.158  18.312  0.00  0.00    +0.000 C 
ENDBRANCH   9  16
ENDBRANCH   1  12
BRANCH   6  17
ATOM     17  C   UNL     1       0.406  11.758  20.288  0.00  0.00    +0.000 C 
BRANCH  17  18
ATOM     18  C   UNL     1      -1.058  11.999  19.937  0.00  0.00    +0.000 C 
BRANCH  18  19
ATOM     19  C   UNL     1      -1.832  13.037  20.766  0.00  0.00    +0.000 C 
BRANCH  19  20
ATOM     20  C   UNL     1      -3.306  12.669  20.719  0.00  0.00    +0.000 C 
ATOM     21  O   UNL     1      -3.791  12.212  19.681  0.00  0.00    +0.000 OA
ATOM     22  N   UNL     1      -4.006  12.908  21.877  0.00  0.00    +0.000 N 
ATOM     23  C   UNL     1      -5.350  12.630  21.910  0.00  0.00    +0.000 A 
ATOM     24  N   UNL     1      -6.043  11.912  21.064  0.00  0.00    +0.000 NA
ATOM     25  C   UNL     1      -7.383  12.013  21.350  0.00  0.00    +0.000 A 
ATOM     26  C   UNL     1      -7.688  12.783  22.452  0.00  0.00    +0.000 A 
ATOM     27  S   UNL     1      -6.233  13.353  23.177  0.00  0.00    +0.000 S 
ATOM     28  H   UNL     1      -3.618  13.450  22.636  0.00  0.00    +0.000 HD
ENDBRANCH  19  20
ENDBRANCH  18  19
ENDBRANCH  17  18
ENDBRANCH   6  17
TORSDOF 6
ENDMDL
MODEL 9
REMARK VINA RESULT:      -7.2      5.114     10.482
REMARK  Name = 
REMARK  7 active torsions:
REMARK  status: ('A' for Active; 'I' for Inactive)
REMARK    1  A    between atoms: C_1  and  C_2
REMARK    2  A    between atoms: C_2  and  C_3
REMARK    3  A    between atoms: C_6  and  C_7
REMARK    4  A    between atoms: N_12  and  C_13
REMARK    5  A    between atoms: C_13  and  C_14
REMARK    6  A    between atoms: C_14  and  C_15
REMARK    7  A    between atoms: C_15  and  C_16
REMARK                            x       y       z     vdW  Elec       q    Type
REMARK                         _______ _______ _______ _____ _____    ______ ____
ROOT
ATOM      1  C   UNL     1       2.219   8.714  18.241  0.00  0.00    +0.000 C 
ATOM      2  C   UNL     1       1.625   9.196  19.343  0.00  0.00    +0.000 C 
ATOM      3  S   UNL     1       1.237   8.334  20.776  0.00  0.00    +0.000 S 
ATOM      4  C   UNL     1       0.481   9.728  21.528  0.00  0.00    +0.000 C 
ATOM      5  S   UNL     1      -0.207   9.643  23.045  0.00  0.00    +0.000 S 
ATOM      6  N   UNL     1       0.556  10.818  20.682  0.00  0.00    +0.000 N 
ATOM      7  C   UNL     1       1.190  10.615  19.464  0.00  0.00    +0.000 C 
ATOM      8  O   UNL     1       1.388  11.458  18.601  0.00  0.00    +0.000 OA
ENDROOT
BRANCH   1  12
ATOM      9  C   UNL     1       3.436   4.644  17.692  0.00  0.00    +0.000 A 
ATOM     10  C   UNL     1       4.247   5.697  17.254  0.00  0.00    +0.000 A 
ATOM     11  C   UNL     1       3.845   7.025  17.432  0.00  0.00    +0.000 A 
ATOM     12  C   UNL     1       2.625   7.319  18.051  0.00  0.00    +0.000 A 
ATOM     13  C   UNL     1       1.804   6.271  18.476  0.00  0.00    +0.000 A 
ATOM     14  C   UNL     1       2.210   4.943  18.302  0.00  0.00    +0.000 A 
BRANCH   9  16
ATOM     15  C   UNL     1       2.706   2.232  17.579  0.00  0.00    +0.000 C 
ATOM     16  C   UNL     1       3.873   3.209  17.527  0.00  0.00    +0.000 C 
ENDBRANCH   9  16
ENDBRANCH   1  12
BRANCH   6  17
ATOM     17  C   UNL     1       0.074  12.159  21.008  0.00  0.00    +0.000 C 
BRANCH  17  18
ATOM     18  C   UNL     1      -1.200  12.559  20.272  0.00  0.00    +0.000 C 
BRANCH  18  19
ATOM     19  C   UNL     1      -2.204  13.456  21.014  0.00  0.00    +0.000 C 
BRANCH  19  20
ATOM     20  C   UNL     1      -3.556  12.762  20.996  0.00  0.00    +0.000 C 
ATOM     21  O   UNL     1      -4.063  12.383  22.056  0.00  0.00    +0.000 OA
ATOM     22  N   UNL     1      -4.108  12.587  19.751  0.00  0.00    +0.000 N 
ATOM     23  C   UNL     1      -5.316  11.943  19.645  0.00  0.00    +0.000 A 
ATOM     24  N   UNL     1      -6.175  11.682  20.598  0.00  0.00    +0.000 NA
ATOM     25  C   UNL     1      -7.178  10.876  20.117  0.00  0.00    +0.000 A 
ATOM     26  C   UNL     1      -7.087  10.567  18.777  0.00  0.00    +0.000 A 
ATOM     27  S   UNL     1      -5.722  11.364  18.093  0.00  0.00    +0.000 S 
ATOM     28  H   UNL     1      -3.581  12.744  18.904  0.00  0.00    +0.000 HD
ENDBRANCH  19  20
ENDBRANCH  18  19
ENDBRANCH  17  18
ENDBRANCH   6  17
TORSDOF 6
ENDMDL
