MODEL 1
REMARK VINA RESULT:      -6.5      0.000      0.000
REMARK  Name = 
REMARK  7 active torsions:
REMARK  status: ('A' for Active; 'I' for Inactive)
REMARK    1  A    between atoms: C_1  and  O_2
REMARK    2  A    between atoms: O_2  and  C_3
REMARK    3  A    between atoms: C_3  and  C_5
REMARK    4  A    between atoms: C_5  and  C_6
REMARK    5  A    between atoms: N_11  and  C_12
REMARK    6  A    between atoms: C_12  and  C_13
REMARK    7  A    between atoms: N_15  and  C_16
REMARK                            x       y       z     vdW  Elec       q    Type
REMARK                         _______ _______ _______ _____ _____    ______ ____
ROOT
ATOM      1  C   UNL     1       2.907   4.881  20.662  0.00  0.00    +0.000 C 
ENDROOT
BRANCH   1   7
ATOM      2  C   UNL     1       4.273   3.968  18.752  0.00  0.00    +0.000 C 
ATOM      3  C   UNL     1       4.093   3.142  17.449  0.00  0.00    +0.000 C 
ATOM      4  C   UNL     1       3.570   1.738  17.727  0.00  0.00    +0.000 C 
ATOM      5  C   UNL     1       2.286   1.814  18.535  0.00  0.00    +0.000 C 
ATOM      6  C   UNL     1       2.493   2.647  19.795  0.00  0.00    +0.000 C 
ATOM      7  N   UNL     1       2.964   4.005  19.469  0.00  0.00    +0.000 NA
BRANCH   2   8
ATOM      8  C   UNL     1       4.814   5.367  18.395  0.00  0.00    +0.000 C 
BRANCH   8   9
ATOM      9  C   UNL     1       6.250   5.547  18.807  0.00  0.00    +0.000 C 
ATOM     10  O   UNL     1       6.748   5.182  19.867  0.00  0.00    +0.000 OA
BRANCH   9  12
ATOM     11  C   UNL     1       6.777   5.671  16.505  0.00  0.00    +0.000 C 
ATOM     12  O   UNL     1       6.942   6.207  17.821  0.00  0.00    +0.000 OA
ENDBRANCH   9  12
ENDBRANCH   8   9
ENDBRANCH   2   8
ENDBRANCH   1   7
BRANCH   1  13
ATOM     13  C   UNL     1       1.811   5.953  20.616  0.00  0.00    +0.000 C 
ATOM     14  O   UNL     1       0.616   5.662  20.571  0.00  0.00    +0.000 OA
ATOM     15  N   UNL     1       2.305   7.252  20.599  0.00  0.00    +0.000 N 
ATOM     16  H   UNL     1       3.218   7.365  20.167  0.00  0.00    +0.000 HD
BRANCH  15  17
ATOM     17  C   UNL     1       1.435   8.362  20.478  0.00  0.00    +0.000 A 
ATOM     18  C   UNL     1       0.712   8.823  21.587  0.00  0.00    +0.000 A 
ATOM     19  C   UNL     1      -0.178   9.888  21.446  0.00  0.00    +0.000 A 
ATOM     20  C   UNL     1      -0.359  10.470  20.196  0.00  0.00    +0.000 A 
ATOM     21  F   UNL     1      -1.247  11.463  20.056  0.00  0.00    +0.000 F 
ATOM     22  C   UNL     1       0.362  10.039  19.089  0.00  0.00    +0.000 A 
ATOM     23  C   UNL     1       1.280   9.002  19.237  0.00  0.00    +0.000 A 
ATOM     24 CL   UNL     1       2.150   8.456  17.845  0.00  0.00    +0.000 Cl
ENDBRANCH  15  17
ENDBRANCH   1  13
TORSDOF 6
ENDMDL
MODEL 2
REMARK VINA RESULT:      -6.5      1.915      3.415
REMARK  Name = 
REMARK  7 active torsions:
REMARK  status: ('A' for Active; 'I' for Inactive)
REMARK    1  A    between atoms: C_1  and  O_2
REMARK    2  A    between atoms: O_2  and  C_3
REMARK    3  A    between atoms: C_3  and  C_5
REMARK    4  A    between atoms: C_5  and  C_6
REMARK    5  A    between atoms: N_11  and  C_12
REMARK    6  A    between atoms: C_12  and  C_13
REMARK    7  A    between atoms: N_15  and  C_16
REMARK                            x       y       z     vdW  Elec       q    Type
REMARK                         _______ _______ _______ _____ _____    ______ ____
ROOT
ATOM      1  C   UNL     1       3.879   5.311  19.650  0.00  0.00    +0.000 C 
ENDROOT
BRANCH   1   7
ATOM      2  C   UNL     1       4.055   4.032  17.485  0.00  0.00    +0.000 C 
ATOM      3  C   UNL     1       5.041   3.823  16.305  0.00  0.00    +0.000 C 
ATOM      4  C   UNL     1       5.311   5.116  15.546  0.00  0.00    +0.000 C 
ATOM      5  C   UNL     1       5.792   6.190  16.506  0.00  0.00    +0.000 C 
ATOM      6  C   UNL     1       4.811   6.356  17.662  0.00  0.00    +0.000 C 
ATOM      7  N   UNL     1       4.614   5.086  18.384  0.00  0.00    +0.000 NA
BRANCH   2   8
ATOM      8  C   UNL     1       3.821   2.685  18.197  0.00  0.00    +0.000 C 
BRANCH   8   9
ATOM      9  C   UNL     1       2.379   2.482  18.578  0.00  0.00    +0.000 C 
ATOM     10  O   UNL     1       1.411   2.609  17.835  0.00  0.00    +0.000 OA
BRANCH   9  12
ATOM     11  C   UNL     1       1.277   2.841  20.639  0.00  0.00    +0.000 C 
ATOM     12  O   UNL     1       2.288   2.144  19.907  0.00  0.00    +0.000 OA
ENDBRANCH   9  12
ENDBRANCH   8   9
ENDBRANCH   2   8
ENDBRANCH   1   7
BRANCH   1  13
ATOM     13  C   UNL     1       2.614   6.167  19.511  0.00  0.00    +0.000 C 
ATOM     14  O   UNL     1       1.674   5.830  18.792  0.00  0.00    +0.000 OA
ATOM     15  N   UNL     1       2.660   7.348  20.243  0.00  0.00    +0.000 N 
ATOM     16  H   UNL     1       3.588   7.737  20.383  0.00  0.00    +0.000 HD
BRANCH  15  17
ATOM     17  C   UNL     1       1.609   8.293  20.168  0.00  0.00    +0.000 A 
ATOM     18  C   UNL     1       0.703   8.435  21.228  0.00  0.00    +0.000 A 
ATOM     19  C   UNL     1      -0.356   9.337  21.125  0.00  0.00    +0.000 A 
ATOM     20  C   UNL     1      -0.519  10.073  19.956  0.00  0.00    +0.000 A 
ATOM     21  F   UNL     1      -1.562  10.905  19.844  0.00  0.00    +0.000 F 
ATOM     22  C   UNL     1       0.379   9.959  18.902  0.00  0.00    +0.000 A 
ATOM     23  C   UNL     1       1.459   9.088  19.020  0.00  0.00    +0.000 A 
ATOM     24 CL   UNL     1       2.554   8.935  17.688  0.00  0.00    +0.000 Cl
ENDBRANCH  15  17
ENDBRANCH   1  13
TORSDOF 6
ENDMDL
MODEL 3
REMARK VINA RESULT:      -6.3      1.881      2.251
REMARK  Name = 
REMARK  7 active torsions:
REMARK  status: ('A' for Active; 'I' for Inactive)
REMARK    1  A    between atoms: C_1  and  O_2
REMARK    2  A    between atoms: O_2  and  C_3
REMARK    3  A    between atoms: C_3  and  C_5
REMARK    4  A    between atoms: C_5  and  C_6
REMARK    5  A    between atoms: N_11  and  C_12
REMARK    6  A    between atoms: C_12  and  C_13
REMARK    7  A    between atoms: N_15  and  C_16
REMARK                            x       y       z     vdW  Elec       q    Type
REMARK                         _______ _______ _______ _____ _____    ______ ____
ROOT
ATOM      1  C   UNL     1       3.084   6.194  19.360  0.00  0.00    +0.000 C 
ENDROOT
BRANCH   1   7
ATOM      2  C   UNL     1       3.498   3.899  18.403  0.00  0.00    +0.000 C 
ATOM      3  C   UNL     1       2.709   2.679  17.856  0.00  0.00    +0.000 C 
ATOM      4  C   UNL     1       1.805   2.059  18.913  0.00  0.00    +0.000 C 
ATOM      5  C   UNL     1       0.884   3.118  19.494  0.00  0.00    +0.000 C 
ATOM      6  C   UNL     1       1.689   4.309  20.003  0.00  0.00    +0.000 C 
ATOM      7  N   UNL     1       2.518   4.893  18.934  0.00  0.00    +0.000 NA
BRANCH   2   8
ATOM      8  C   UNL     1       4.396   4.466  17.285  0.00  0.00    +0.000 C 
BRANCH   8   9
ATOM      9  C   UNL     1       5.856   4.428  17.651  0.00  0.00    +0.000 C 
ATOM     10  O   UNL     1       6.315   4.397  18.788  0.00  0.00    +0.000 OA
BRANCH   9  12
ATOM     11  C   UNL     1       6.016   3.866  15.360  0.00  0.00    +0.000 C 
ATOM     12  O   UNL     1       6.626   4.451  16.513  0.00  0.00    +0.000 OA
ENDBRANCH   9  12
ENDBRANCH   8   9
ENDBRANCH   2   8
ENDBRANCH   1   7
BRANCH   1  13
ATOM     13  C   UNL     1       2.250   7.416  18.957  0.00  0.00    +0.000 C 
ATOM     14  O   UNL     1       2.041   7.703  17.779  0.00  0.00    +0.000 OA
ATOM     15  N   UNL     1       1.798   8.161  20.040  0.00  0.00    +0.000 N 
ATOM     16  H   UNL     1       2.390   8.133  20.865  0.00  0.00    +0.000 HD
BRANCH  15  17
ATOM     17  C   UNL     1       1.080   9.365  19.847  0.00  0.00    +0.000 A 
ATOM     18  C   UNL     1       1.500  10.298  18.889  0.00  0.00    +0.000 A 
ATOM     19  C   UNL     1       0.812  11.503  18.739  0.00  0.00    +0.000 A 
ATOM     20  C   UNL     1      -0.274  11.780  19.562  0.00  0.00    +0.000 A 
ATOM     21  F   UNL     1      -0.904  12.956  19.446  0.00  0.00    +0.000 F 
ATOM     22  C   UNL     1      -0.716  10.860  20.506  0.00  0.00    +0.000 A 
ATOM     23  C   UNL     1      -0.055   9.641  20.629  0.00  0.00    +0.000 A 
ATOM     24 CL   UNL     1      -0.598   8.516  21.826  0.00  0.00    +0.000 Cl
ENDBRANCH  15  17
ENDBRANCH   1  13
TORSDOF 6
ENDMDL
MODEL 4
REMARK VINA RESULT:      -6.3      3.544      6.579
REMARK  Name = 
REMARK  7 active torsions:
REMARK  status: ('A' for Active; 'I' for Inactive)
REMARK    1  A    between atoms: C_1  and  O_2
REMARK    2  A    between atoms: O_2  and  C_3
REMARK    3  A    between atoms: C_3  and  C_5
REMARK    4  A    between atoms: C_5  and  C_6
REMARK    5  A    between atoms: N_11  and  C_12
REMARK    6  A    between atoms: C_12  and  C_13
REMARK    7  A    between atoms: N_15  and  C_16
REMARK                            x       y       z     vdW  Elec       q    Type
REMARK                         _______ _______ _______ _____ _____    ______ ____
ROOT
ATOM      1  C   UNL     1       4.462   4.826  19.881  0.00  0.00    +0.000 C 
ENDROOT
BRANCH   1   7
ATOM      2  C   UNL     1       1.947   4.835  19.716  0.00  0.00    +0.000 C 
ATOM      3  C   UNL     1       0.731   3.925  20.039  0.00  0.00    +0.000 C 
ATOM      4  C   UNL     1       0.764   2.621  19.251  0.00  0.00    +0.000 C 
ATOM      5  C   UNL     1       2.085   1.909  19.482  0.00  0.00    +0.000 C 
ATOM      6  C   UNL     1       3.257   2.836  19.175  0.00  0.00    +0.000 C 
ATOM      7  N   UNL     1       3.197   4.064  19.988  0.00  0.00    +0.000 NA
BRANCH   2   8
ATOM      8  C   UNL     1       1.841   6.135  20.538  0.00  0.00    +0.000 C 
BRANCH   8   9
ATOM      9  C   UNL     1       2.109   7.360  19.706  0.00  0.00    +0.000 C 
ATOM     10  O   UNL     1       2.633   7.379  18.597  0.00  0.00    +0.000 OA
BRANCH   9  12
ATOM     11  C   UNL     1       0.959   9.423  19.591  0.00  0.00    +0.000 C 
ATOM     12  O   UNL     1       1.695   8.484  20.379  0.00  0.00    +0.000 OA
ENDBRANCH   9  12
ENDBRANCH   8   9
ENDBRANCH   2   8
ENDBRANCH   1   7
BRANCH   1  13
ATOM     13  C   UNL     1       5.286   4.524  18.625  0.00  0.00    +0.000 C 
ATOM     14  O   UNL     1       6.291   3.814  18.659  0.00  0.00    +0.000 OA
ATOM     15  N   UNL     1       4.804   5.148  17.480  0.00  0.00    +0.000 N 
ATOM     16  H   UNL     1       4.322   6.029  17.636  0.00  0.00    +0.000 HD
BRANCH  15  17
ATOM     17  C   UNL     1       5.490   5.041  16.247  0.00  0.00    +0.000 A 
ATOM     18  C   UNL     1       5.000   4.209  15.231  0.00  0.00    +0.000 A 
ATOM     19  C   UNL     1       5.708   4.075  14.036  0.00  0.00    +0.000 A 
ATOM     20  C   UNL     1       6.912   4.751  13.873  0.00  0.00    +0.000 A 
ATOM     21  F   UNL     1       7.611   4.584  12.743  0.00  0.00    +0.000 F 
ATOM     22  C   UNL     1       7.405   5.594  14.862  0.00  0.00    +0.000 A 
ATOM     23  C   UNL     1       6.679   5.760  16.038  0.00  0.00    +0.000 A 
ATOM     24 CL   UNL     1       7.318   6.790  17.273  0.00  0.00    +0.000 Cl
ENDBRANCH  15  17
ENDBRANCH   1  13
TORSDOF 6
ENDMDL
MODEL 5
REMARK VINA RESULT:      -6.3      1.674      1.959
REMARK  Name = 
REMARK  7 active torsions:
REMARK  status: ('A' for Active; 'I' for Inactive)
REMARK    1  A    between atoms: C_1  and  O_2
REMARK    2  A    between atoms: O_2  and  C_3
REMARK    3  A    between atoms: C_3  and  C_5
REMARK    4  A    between atoms: C_5  and  C_6
REMARK    5  A    between atoms: N_11  and  C_12
REMARK    6  A    between atoms: C_12  and  C_13
REMARK    7  A    between atoms: N_15  and  C_16
REMARK                            x       y       z     vdW  Elec       q    Type
REMARK                         _______ _______ _______ _____ _____    ______ ____
ROOT
ATOM      1  C   UNL     1       2.832   5.758  20.117  0.00  0.00    +0.000 C 
ENDROOT
BRANCH   1   7
ATOM      2  C   UNL     1       4.124   4.123  18.701  0.00  0.00    +0.000 C 
ATOM      3  C   UNL     1       3.899   3.123  17.534  0.00  0.00    +0.000 C 
ATOM      4  C   UNL     1       2.932   2.008  17.913  0.00  0.00    +0.000 C 
ATOM      5  C   UNL     1       1.627   2.601  18.414  0.00  0.00    +0.000 C 
ATOM      6  C   UNL     1       1.886   3.593  19.543  0.00  0.00    +0.000 C 
ATOM      7  N   UNL     1       2.797   4.669  19.114  0.00  0.00    +0.000 NA
BRANCH   2   8
ATOM      8  C   UNL     1       5.118   5.212  18.250  0.00  0.00    +0.000 C 
BRANCH   8   9
ATOM      9  C   UNL     1       6.487   5.018  18.846  0.00  0.00    +0.000 C 
ATOM     10  O   UNL     1       6.870   5.446  19.930  0.00  0.00    +0.000 OA
BRANCH   9  12
ATOM     11  C   UNL     1       7.213   4.709  16.617  0.00  0.00    +0.000 C 
ATOM     12  O   UNL     1       7.276   4.295  17.984  0.00  0.00    +0.000 OA
ENDBRANCH   9  12
ENDBRANCH   8   9
ENDBRANCH   2   8
ENDBRANCH   1   7
BRANCH   1  13
ATOM     13  C   UNL     1       2.270   7.097  19.626  0.00  0.00    +0.000 C 
ATOM     14  O   UNL     1       2.421   7.482  18.467  0.00  0.00    +0.000 OA
ATOM     15  N   UNL     1       1.618   7.823  20.616  0.00  0.00    +0.000 N 
ATOM     16  H   UNL     1       1.956   7.670  21.562  0.00  0.00    +0.000 HD
BRANCH  15  17
ATOM     17  C   UNL     1       1.107   9.117  20.355  0.00  0.00    +0.000 A 
ATOM     18  C   UNL     1       1.107   9.632  19.052  0.00  0.00    +0.000 A 
ATOM     19  C   UNL     1       0.645  10.926  18.813  0.00  0.00    +0.000 A 
ATOM     20  C   UNL     1       0.208  11.706  19.878  0.00  0.00    +0.000 A 
ATOM     21  F   UNL     1      -0.193  12.964  19.650  0.00  0.00    +0.000 F 
ATOM     22  C   UNL     1       0.183  11.207  21.174  0.00  0.00    +0.000 A 
ATOM     23  C   UNL     1       0.608   9.901  21.408  0.00  0.00    +0.000 A 
ATOM     24 CL   UNL     1       0.598   9.301  23.031  0.00  0.00    +0.000 Cl
ENDBRANCH  15  17
ENDBRANCH   1  13
TORSDOF 6
ENDMDL
MODEL 6
REMARK VINA RESULT:      -6.3      3.457      7.758
REMARK  Name = 
REMARK  7 active torsions:
REMARK  status: ('A' for Active; 'I' for Inactive)
REMARK    1  A    between atoms: C_1  and  O_2
REMARK    2  A    between atoms: O_2  and  C_3
REMARK    3  A    between atoms: C_3  and  C_5
REMARK    4  A    between atoms: C_5  and  C_6
REMARK    5  A    between atoms: N_11  and  C_12
REMARK    6  A    between atoms: C_12  and  C_13
REMARK    7  A    between atoms: N_15  and  C_16
REMARK                            x       y       z     vdW  Elec       q    Type
REMARK                         _______ _______ _______ _____ _____    ______ ____
ROOT
ATOM      1  C   UNL     1       1.953   8.021  20.352  0.00  0.00    +0.000 C 
ENDROOT
BRANCH   1   7
ATOM      2  C   UNL     1       0.138   9.746  20.641  0.00  0.00    +0.000 C 
ATOM      3  C   UNL     1      -1.001  10.421  19.830  0.00  0.00    +0.000 C 
ATOM      4  C   UNL     1      -0.469  11.203  18.636  0.00  0.00    +0.000 C 
ATOM      5  C   UNL     1       0.391  10.301  17.767  0.00  0.00    +0.000 C 
ATOM      6  C   UNL     1       1.485   9.640  18.598  0.00  0.00    +0.000 C 
ATOM      7  N   UNL     1       0.916   8.868  19.717  0.00  0.00    +0.000 NA
BRANCH   2   8
ATOM      8  C   UNL     1      -0.472   8.985  21.836  0.00  0.00    +0.000 C 
BRANCH   8   9
ATOM      9  C   UNL     1      -0.357   9.756  23.123  0.00  0.00    +0.000 C 
ATOM     10  O   UNL     1       0.577   9.702  23.916  0.00  0.00    +0.000 OA
BRANCH   9  12
ATOM     11  C   UNL     1      -1.271  11.937  23.107  0.00  0.00    +0.000 C 
ATOM     12  O   UNL     1      -1.474  10.536  23.305  0.00  0.00    +0.000 OA
ENDBRANCH   9  12
ENDBRANCH   8   9
ENDBRANCH   2   8
ENDBRANCH   1   7
BRANCH   1  13
ATOM     13  C   UNL     1       2.307   6.751  19.571  0.00  0.00    +0.000 C 
ATOM     14  O   UNL     1       2.256   6.705  18.342  0.00  0.00    +0.000 OA
ATOM     15  N   UNL     1       2.649   5.677  20.383  0.00  0.00    +0.000 N 
ATOM     16  H   UNL     1       2.212   5.667  21.301  0.00  0.00    +0.000 HD
BRANCH  15  17
ATOM     17  C   UNL     1       2.929   4.404  19.831  0.00  0.00    +0.000 A 
ATOM     18  C   UNL     1       1.931   3.421  19.770  0.00  0.00    +0.000 A 
ATOM     19  C   UNL     1       2.229   2.154  19.266  0.00  0.00    +0.000 A 
ATOM     20  C   UNL     1       3.524   1.870  18.849  0.00  0.00    +0.000 A 
ATOM     21  F   UNL     1       3.817   0.639  18.407  0.00  0.00    +0.000 F 
ATOM     22  C   UNL     1       4.522   2.836  18.884  0.00  0.00    +0.000 A 
ATOM     23  C   UNL     1       4.216   4.113  19.350  0.00  0.00    +0.000 A 
ATOM     24 CL   UNL     1       5.474   5.299  19.415  0.00  0.00    +0.000 Cl
ENDBRANCH  15  17
ENDBRANCH   1  13
TORSDOF 6
ENDMDL
MODEL 7
REMARK VINA RESULT:      -6.2      2.095      2.585
REMARK  Name = 
REMARK  7 active torsions:
REMARK  status: ('A' for Active; 'I' for Inactive)
REMARK    1  A    between atoms: C_1  and  O_2
REMARK    2  A    between atoms: O_2  and  C_3
REMARK    3  A    between atoms: C_3  and  C_5
REMARK    4  A    between atoms: C_5  and  C_6
REMARK    5  A    between atoms: N_11  and  C_12
REMARK    6  A    between atoms: C_12  and  C_13
REMARK    7  A    between atoms: N_15  and  C_16
REMARK                            x       y       z     vdW  Elec       q    Type
REMARK                         _______ _______ _______ _____ _____    ______ ____
ROOT
ATOM      1  C   UNL     1       3.677   7.154  18.186  0.00  0.00    +0.000 C 
ENDROOT
BRANCH   1   7
ATOM      2  C   UNL     1       4.429   4.925  17.282  0.00  0.00    +0.000 C 
ATOM      3  C   UNL     1       3.841   3.653  16.613  0.00  0.00    +0.000 C 
ATOM      4  C   UNL     1       2.849   2.935  17.517  0.00  0.00    +0.000 C 
ATOM      5  C   UNL     1       1.762   3.898  17.964  0.00  0.00    +0.000 C 
ATOM      6  C   UNL     1       2.374   5.142  18.598  0.00  0.00    +0.000 C 
ATOM      7  N   UNL     1       3.297   5.819  17.669  0.00  0.00    +0.000 NA
BRANCH   2   8
ATOM      8  C   UNL     1       5.430   5.590  16.316  0.00  0.00    +0.000 C 
BRANCH   8   9
ATOM      9  C   UNL     1       6.854   5.450  16.782  0.00  0.00    +0.000 C 
ATOM     10  O   UNL     1       7.338   4.469  17.339  0.00  0.00    +0.000 OA
BRANCH   9  12
ATOM     11  C   UNL     1       7.578   7.557  17.572  0.00  0.00    +0.000 C 
ATOM     12  O   UNL     1       7.553   6.601  16.510  0.00  0.00    +0.000 OA
ENDBRANCH   9  12
ENDBRANCH   8   9
ENDBRANCH   2   8
ENDBRANCH   1   7
BRANCH   1  13
ATOM     13  C   UNL     1       2.549   8.192  18.165  0.00  0.00    +0.000 C 
ATOM     14  O   UNL     1       2.270   8.831  17.152  0.00  0.00    +0.000 OA
ATOM     15  N   UNL     1       1.916   8.348  19.392  0.00  0.00    +0.000 N 
ATOM     16  H   UNL     1       2.494   8.165  20.208  0.00  0.00    +0.000 HD
BRANCH  15  17
ATOM     17  C   UNL     1       0.904   9.322  19.572  0.00  0.00    +0.000 A 
ATOM     18  C   UNL     1       0.238   9.867  18.466  0.00  0.00    +0.000 A 
ATOM     19  C   UNL     1      -0.725  10.859  18.651  0.00  0.00    +0.000 A 
ATOM     20  C   UNL     1      -1.000  11.318  19.934  0.00  0.00    +0.000 A 
ATOM     21  F   UNL     1      -1.893  12.301  20.104  0.00  0.00    +0.000 F 
ATOM     22  C   UNL     1      -0.364  10.776  21.045  0.00  0.00    +0.000 A 
ATOM     23  C   UNL     1       0.569   9.758  20.864  0.00  0.00    +0.000 A 
ATOM     24 CL   UNL     1       1.375   9.112  22.253  0.00  0.00    +0.000 Cl
ENDBRANCH  15  17
ENDBRANCH   1  13
TORSDOF 6
ENDMDL
MODEL 8
REMARK VINA RESULT:      -6.2      2.184      2.720
REMARK  Name = 
REMARK  7 active torsions:
REMARK  status: ('A' for Active; 'I' for Inactive)
REMARK    1  A    between atoms: C_1  and  O_2
REMARK    2  A    between atoms: O_2  and  C_3
REMARK    3  A    between atoms: C_3  and  C_5
REMARK    4  A    between atoms: C_5  and  C_6
REMARK    5  A    between atoms: N_11  and  C_12
REMARK    6  A    between atoms: C_12  and  C_13
REMARK    7  A    between atoms: N_15  and  C_16
REMARK                            x       y       z     vdW  Elec       q    Type
REMARK                         _______ _______ _______ _____ _____    ______ ____
ROOT
ATOM      1  C   UNL     1       3.538   7.310  18.387  0.00  0.00    +0.000 C 
ENDROOT
BRANCH   1   7
ATOM      2  C   UNL     1       4.484   5.189  17.408  0.00  0.00    +0.000 C 
ATOM      3  C   UNL     1       4.026   3.946  16.598  0.00  0.00    +0.000 C 
ATOM      4  C   UNL     1       2.990   3.120  17.349  0.00  0.00    +0.000 C 
ATOM      5  C   UNL     1       1.818   4.000  17.752  0.00  0.00    +0.000 C 
ATOM      6  C   UNL     1       2.305   5.219  18.528  0.00  0.00    +0.000 C 
ATOM      7  N   UNL     1       3.277   6.002  17.744  0.00  0.00    +0.000 NA
BRANCH   2   8
ATOM      8  C   UNL     1       5.536   5.967  16.594  0.00  0.00    +0.000 C 
BRANCH   8   9
ATOM      9  C   UNL     1       6.857   5.248  16.532  0.00  0.00    +0.000 C 
ATOM     10  O   UNL     1       7.370   4.601  17.440  0.00  0.00    +0.000 OA
BRANCH   9  12
ATOM     11  C   UNL     1       6.831   4.692  14.234  0.00  0.00    +0.000 C 
ATOM     12  O   UNL     1       7.434   5.431  15.299  0.00  0.00    +0.000 OA
ENDBRANCH   9  12
ENDBRANCH   8   9
ENDBRANCH   2   8
ENDBRANCH   1   7
BRANCH   1  13
ATOM     13  C   UNL     1       2.406   8.333  18.240  0.00  0.00    +0.000 C 
ATOM     14  O   UNL     1       2.208   8.941  17.188  0.00  0.00    +0.000 OA
ATOM     15  N   UNL     1       1.667   8.515  19.403  0.00  0.00    +0.000 N 
ATOM     16  H   UNL     1       2.176   8.362  20.270  0.00  0.00    +0.000 HD
BRANCH  15  17
ATOM     17  C   UNL     1       0.634   9.479  19.468  0.00  0.00    +0.000 A 
ATOM     18  C   UNL     1      -0.010   9.911  18.299  0.00  0.00    +0.000 A 
ATOM     19  C   UNL     1      -0.995  10.896  18.369  0.00  0.00    +0.000 A 
ATOM     20  C   UNL     1      -1.315  11.461  19.599  0.00  0.00    +0.000 A 
ATOM     21  F   UNL     1      -2.230  12.438  19.655  0.00  0.00    +0.000 F 
ATOM     22  C   UNL     1      -0.701  11.033  20.769  0.00  0.00    +0.000 A 
ATOM     23  C   UNL     1       0.254  10.022  20.706  0.00  0.00    +0.000 A 
ATOM     24 CL   UNL     1       1.032   9.519  22.168  0.00  0.00    +0.000 Cl
ENDBRANCH  15  17
ENDBRANCH   1  13
TORSDOF 6
ENDMDL
MODEL 9
REMARK VINA RESULT:      -6.2      1.830      2.295
REMARK  Name = 
REMARK  7 active torsions:
REMARK  status: ('A' for Active; 'I' for Inactive)
REMARK    1  A    between atoms: C_1  and  O_2
REMARK    2  A    between atoms: O_2  and  C_3
REMARK    3  A    between atoms: C_3  and  C_5
REMARK    4  A    between atoms: C_5  and  C_6
REMARK    5  A    between atoms: N_11  and  C_12
REMARK    6  A    between atoms: C_12  and  C_13
REMARK    7  A    between atoms: N_15  and  C_16
REMARK                            x       y       z     vdW  Elec       q    Type
REMARK                         _______ _______ _______ _____ _____    ______ ____
ROOT
ATOM      1  C   UNL     1       2.979   6.188  19.501  0.00  0.00    +0.000 C 
ENDROOT
BRANCH   1   7
ATOM      2  C   UNL     1       3.774   4.186  18.194  0.00  0.00    +0.000 C 
ATOM      3  C   UNL     1       3.208   3.041  17.310  0.00  0.00    +0.000 C 
ATOM      4  C   UNL     1       2.252   2.140  18.081  0.00  0.00    +0.000 C 
ATOM      5  C   UNL     1       1.148   2.972  18.711  0.00  0.00    +0.000 C 
ATOM      6  C   UNL     1       1.739   4.097  19.554  0.00  0.00    +0.000 C 
ATOM      7  N   UNL     1       2.626   4.959  18.753  0.00  0.00    +0.000 NA
BRANCH   2   8
ATOM      8  C   UNL     1       4.738   5.047  17.353  0.00  0.00    +0.000 C 
BRANCH   8   9
ATOM      9  C   UNL     1       6.174   4.626  17.520  0.00  0.00    +0.000 C 
ATOM     10  O   UNL     1       6.940   4.300  16.619  0.00  0.00    +0.000 OA
BRANCH   9  12
ATOM     11  C   UNL     1       7.407   5.688  19.235  0.00  0.00    +0.000 C 
ATOM     12  O   UNL     1       6.515   4.640  18.851  0.00  0.00    +0.000 OA
ENDBRANCH   9  12
ENDBRANCH   8   9
ENDBRANCH   2   8
ENDBRANCH   1   7
BRANCH   1  13
ATOM     13  C   UNL     1       2.193   7.437  19.086  0.00  0.00    +0.000 C 
ATOM     14  O   UNL     1       2.073   7.770  17.907  0.00  0.00    +0.000 OA
ATOM     15  N   UNL     1       1.674   8.149  20.161  0.00  0.00    +0.000 N 
ATOM     16  H   UNL     1       2.205   8.082  21.025  0.00  0.00    +0.000 HD
BRANCH  15  17
ATOM     17  C   UNL     1       0.988   9.371  19.962  0.00  0.00    +0.000 A 
ATOM     18  C   UNL     1       1.355  10.232  18.918  0.00  0.00    +0.000 A 
ATOM     19  C   UNL     1       0.703  11.455  18.760  0.00  0.00    +0.000 A 
ATOM     20  C   UNL     1      -0.293  11.823  19.658  0.00  0.00    +0.000 A 
ATOM     21  F   UNL     1      -0.885  13.017  19.529  0.00  0.00    +0.000 F 
ATOM     22  C   UNL     1      -0.682  10.976  20.688  0.00  0.00    +0.000 A 
ATOM     23  C   UNL     1      -0.060   9.738  20.823  0.00  0.00    +0.000 A 
ATOM     24 CL   UNL     1      -0.535   8.704  22.127  0.00  0.00    +0.000 Cl
ENDBRANCH  15  17
ENDBRANCH   1  13
TORSDOF 6
ENDMDL
