MODEL 1
REMARK VINA RESULT:      -6.5      0.000      0.000
REMARK  Name = 
REMARK  2 active torsions:
REMARK  status: ('A' for Active; 'I' for Inactive)
REMARK    1  A    between atoms: O_1  and  C_2
REMARK    2  A    between atoms: C_12  and  O_13
REMARK                            x       y       z     vdW  Elec       q    Type
REMARK                         _______ _______ _______ _____ _____    ______ ____
ROOT
ATOM      1  C   UNL     1       6.832   5.801  16.771  0.00  0.00    +0.000 A 
ATOM      2  N   UNL     1       5.692   6.509  16.775  0.00  0.00    +0.000 NA
ATOM      3  C   UNL     1       4.813   6.159  17.741  0.00  0.00    +0.000 A 
ATOM      4  C   UNL     1       3.599   6.821  17.824  0.00  0.00    +0.000 A 
ATOM      5  C   UNL     1       2.673   6.473  18.801  0.00  0.00    +0.000 A 
ATOM      6  C   UNL     1       3.020   5.460  19.670  0.00  0.00    +0.000 A 
ATOM      7 CL   UNL     1       1.942   4.957  20.904  0.00  0.00    +0.000 Cl
ATOM      8  N   UNL     1       4.186   4.790  19.634  0.00  0.00    +0.000 NA
ATOM      9  C   UNL     1       5.066   5.124  18.691  0.00  0.00    +0.000 A 
ATOM     10  N   UNL     1       6.217   4.446  18.651  0.00  0.00    +0.000 NA
ATOM     11  C   UNL     1       7.084   4.794  17.686  0.00  0.00    +0.000 A 
ENDROOT
BRANCH   1  12
ATOM     12  O   UNL     1       7.697   6.154  15.791  0.00  0.00    +0.000 OA
ATOM     13  H   UNL     1       8.451   5.573  15.988  0.00  0.00    +0.000 HD
ENDBRANCH   1  12
BRANCH  11  14
ATOM     14  O   UNL     1       8.226   4.063  17.685  0.00  0.00    +0.000 OA
ATOM     15  H   UNL     1       8.729   4.509  16.980  0.00  0.00    +0.000 HD
ENDBRANCH  11  14
TORSDOF 2
ENDMDL
MODEL 2
REMARK VINA RESULT:      -6.3      1.796      1.888
REMARK  Name = 
REMARK  2 active torsions:
REMARK  status: ('A' for Active; 'I' for Inactive)
REMARK    1  A    between atoms: O_1  and  C_2
REMARK    2  A    between atoms: C_12  and  O_13
REMARK                            x       y       z     vdW  Elec       q    Type
REMARK                         _______ _______ _______ _____ _____    ______ ____
ROOT
ATOM      1  C   UNL     1       6.523   4.506  16.998  0.00  0.00    +0.000 A 
ATOM      2  N   UNL     1       5.322   4.173  16.502  0.00  0.00    +0.000 NA
ATOM      3  C   UNL     1       4.342   4.054  17.425  0.00  0.00    +0.000 A 
ATOM      4  C   UNL     1       3.066   3.700  17.018  0.00  0.00    +0.000 A 
ATOM      5  C   UNL     1       2.044   3.561  17.949  0.00  0.00    +0.000 A 
ATOM      6  C   UNL     1       2.356   3.792  19.272  0.00  0.00    +0.000 A 
ATOM      7 CL   UNL     1       1.163   3.639  20.493  0.00  0.00    +0.000 Cl
ATOM      8  N   UNL     1       3.576   4.141  19.718  0.00  0.00    +0.000 NA
ATOM      9  C   UNL     1       4.553   4.266  18.821  0.00  0.00    +0.000 A 
ATOM     10  N   UNL     1       5.767   4.600  19.271  0.00  0.00    +0.000 NA
ATOM     11  C   UNL     1       6.737   4.712  18.350  0.00  0.00    +0.000 A 
ENDROOT
BRANCH   1  12
ATOM     12  O   UNL     1       7.497   4.610  16.063  0.00  0.00    +0.000 OA
ATOM     13  H   UNL     1       7.063   4.203  15.294  0.00  0.00    +0.000 HD
ENDBRANCH   1  12
BRANCH  11  14
ATOM     14  O   UNL     1       7.948   5.036  18.865  0.00  0.00    +0.000 OA
ATOM     15  H   UNL     1       8.363   4.157  18.927  0.00  0.00    +0.000 HD
ENDBRANCH  11  14
TORSDOF 2
ENDMDL
MODEL 3
REMARK VINA RESULT:      -6.1      1.516      1.614
REMARK  Name = 
REMARK  2 active torsions:
REMARK  status: ('A' for Active; 'I' for Inactive)
REMARK    1  A    between atoms: O_1  and  C_2
REMARK    2  A    between atoms: C_12  and  O_13
REMARK                            x       y       z     vdW  Elec       q    Type
REMARK                         _______ _______ _______ _____ _____    ______ ____
ROOT
ATOM      1  C   UNL     1       5.753   5.311  17.017  0.00  0.00    +0.000 A 
ATOM      2  N   UNL     1       4.426   5.494  16.937  0.00  0.00    +0.000 NA
ATOM      3  C   UNL     1       3.711   4.881  17.906  0.00  0.00    +0.000 A 
ATOM      4  C   UNL     1       2.331   4.996  17.906  0.00  0.00    +0.000 A 
ATOM      5  C   UNL     1       1.572   4.366  18.886  0.00  0.00    +0.000 A 
ATOM      6  C   UNL     1       2.249   3.638  19.842  0.00  0.00    +0.000 A 
ATOM      7 CL   UNL     1       1.400   2.821  21.086  0.00  0.00    +0.000 Cl
ATOM      8  N   UNL     1       3.587   3.498  19.888  0.00  0.00    +0.000 NA
ATOM      9  C   UNL     1       4.308   4.100  18.942  0.00  0.00    +0.000 A 
ATOM     10  N   UNL     1       5.635   3.947  18.985  0.00  0.00    +0.000 NA
ATOM     11  C   UNL     1       6.339   4.555  18.016  0.00  0.00    +0.000 A 
ENDROOT
BRANCH   1  12
ATOM     12  O   UNL     1       6.454   5.921  16.033  0.00  0.00    +0.000 OA
ATOM     13  H   UNL     1       5.822   5.875  15.296  0.00  0.00    +0.000 HD
ENDBRANCH   1  12
BRANCH  11  14
ATOM     14  O   UNL     1       7.677   4.351  18.101  0.00  0.00    +0.000 OA
ATOM     15  H   UNL     1       7.818   4.459  19.059  0.00  0.00    +0.000 HD
ENDBRANCH  11  14
TORSDOF 2
ENDMDL
MODEL 4
REMARK VINA RESULT:      -6.1      3.735      4.892
REMARK  Name = 
REMARK  2 active torsions:
REMARK  status: ('A' for Active; 'I' for Inactive)
REMARK    1  A    between atoms: O_1  and  C_2
REMARK    2  A    between atoms: C_12  and  O_13
REMARK                            x       y       z     vdW  Elec       q    Type
REMARK                         _______ _______ _______ _____ _____    ______ ____
ROOT
ATOM      1  C   UNL     1       5.524   4.381  18.579  0.00  0.00    +0.000 A 
ATOM      2  N   UNL     1       4.976   3.977  17.423  0.00  0.00    +0.000 NA
ATOM      3  C   UNL     1       5.690   4.288  16.319  0.00  0.00    +0.000 A 
ATOM      4  C   UNL     1       5.204   3.927  15.073  0.00  0.00    +0.000 A 
ATOM      5  C   UNL     1       5.914   4.245  13.921  0.00  0.00    +0.000 A 
ATOM      6  C   UNL     1       7.105   4.922  14.078  0.00  0.00    +0.000 A 
ATOM      7 CL   UNL     1       8.048   5.363  12.717  0.00  0.00    +0.000 Cl
ATOM      8  N   UNL     1       7.622   5.292  15.264  0.00  0.00    +0.000 NA
ATOM      9  C   UNL     1       6.933   4.989  16.364  0.00  0.00    +0.000 A 
ATOM     10  N   UNL     1       7.444   5.371  17.539  0.00  0.00    +0.000 NA
ATOM     11  C   UNL     1       6.728   5.062  18.632  0.00  0.00    +0.000 A 
ENDROOT
BRANCH   1  12
ATOM     12  O   UNL     1       4.792   4.072  19.676  0.00  0.00    +0.000 OA
ATOM     13  H   UNL     1       5.489   3.983  20.348  0.00  0.00    +0.000 HD
ENDBRANCH   1  12
BRANCH  11  14
ATOM     14  O   UNL     1       7.286   5.487  19.791  0.00  0.00    +0.000 OA
ATOM     15  H   UNL     1       6.602   5.224  20.432  0.00  0.00    +0.000 HD
ENDBRANCH  11  14
TORSDOF 2
ENDMDL
MODEL 5
REMARK VINA RESULT:      -6.1      1.472      2.511
REMARK  Name = 
REMARK  2 active torsions:
REMARK  status: ('A' for Active; 'I' for Inactive)
REMARK    1  A    between atoms: O_1  and  C_2
REMARK    2  A    between atoms: C_12  and  O_13
REMARK                            x       y       z     vdW  Elec       q    Type
REMARK                         _______ _______ _______ _____ _____    ______ ____
ROOT
ATOM      1  C   UNL     1       7.103   4.757  17.435  0.00  0.00    +0.000 A 
ATOM      2  N   UNL     1       6.258   4.696  18.476  0.00  0.00    +0.000 NA
ATOM      3  C   UNL     1       5.174   5.496  18.372  0.00  0.00    +0.000 A 
ATOM      4  C   UNL     1       4.245   5.515  19.401  0.00  0.00    +0.000 A 
ATOM      5  C   UNL     1       3.127   6.338  19.323  0.00  0.00    +0.000 A 
ATOM      6  C   UNL     1       2.989   7.114  18.192  0.00  0.00    +0.000 A 
ATOM      7 CL   UNL     1       1.646   8.163  18.008  0.00  0.00    +0.000 Cl
ATOM      8  N   UNL     1       3.858   7.128  17.166  0.00  0.00    +0.000 NA
ATOM      9  C   UNL     1       4.931   6.342  17.249  0.00  0.00    +0.000 A 
ATOM     10  N   UNL     1       5.799   6.370  16.233  0.00  0.00    +0.000 NA
ATOM     11  C   UNL     1       6.877   5.577  16.343  0.00  0.00    +0.000 A 
ENDROOT
BRANCH   1  12
ATOM     12  O   UNL     1       8.190   3.960  17.559  0.00  0.00    +0.000 OA
ATOM     13  H   UNL     1       7.801   3.176  17.982  0.00  0.00    +0.000 HD
ENDBRANCH   1  12
BRANCH  11  14
ATOM     14  O   UNL     1       7.728   5.659  15.292  0.00  0.00    +0.000 OA
ATOM     15  H   UNL     1       7.419   4.913  14.747  0.00  0.00    +0.000 HD
ENDBRANCH  11  14
TORSDOF 2
ENDMDL
MODEL 6
REMARK VINA RESULT:      -6.0      4.175      5.093
REMARK  Name = 
REMARK  2 active torsions:
REMARK  status: ('A' for Active; 'I' for Inactive)
REMARK    1  A    between atoms: O_1  and  C_2
REMARK    2  A    between atoms: C_12  and  O_13
REMARK                            x       y       z     vdW  Elec       q    Type
REMARK                         _______ _______ _______ _____ _____    ______ ____
ROOT
ATOM      1  C   UNL     1       1.602   2.640  18.648  0.00  0.00    +0.000 A 
ATOM      2  N   UNL     1       2.213   3.042  17.523  0.00  0.00    +0.000 NA
ATOM      3  C   UNL     1       3.474   3.496  17.696  0.00  0.00    +0.000 A 
ATOM      4  C   UNL     1       4.188   3.947  16.598  0.00  0.00    +0.000 A 
ATOM      5  C   UNL     1       5.483   4.429  16.750  0.00  0.00    +0.000 A 
ATOM      6  C   UNL     1       6.012   4.432  18.024  0.00  0.00    +0.000 A 
ATOM      7 CL   UNL     1       7.598   5.013  18.312  0.00  0.00    +0.000 Cl
ATOM      8  N   UNL     1       5.362   4.003  19.121  0.00  0.00    +0.000 NA
ATOM      9  C   UNL     1       4.119   3.547  18.968  0.00  0.00    +0.000 A 
ATOM     10  N   UNL     1       3.473   3.134  20.063  0.00  0.00    +0.000 NA
ATOM     11  C   UNL     1       2.219   2.688  19.886  0.00  0.00    +0.000 A 
ENDROOT
BRANCH   1  12
ATOM     12  O   UNL     1       0.335   2.199  18.461  0.00  0.00    +0.000 OA
ATOM     13  H   UNL     1       0.355   1.359  18.950  0.00  0.00    +0.000 HD
ENDBRANCH   1  12
BRANCH  11  14
ATOM     14  O   UNL     1       1.608   2.298  21.032  0.00  0.00    +0.000 OA
ATOM     15  H   UNL     1       1.536   1.339  20.884  0.00  0.00    +0.000 HD
ENDBRANCH  11  14
TORSDOF 2
ENDMDL
MODEL 7
REMARK VINA RESULT:      -6.0      1.981      2.041
REMARK  Name = 
REMARK  2 active torsions:
REMARK  status: ('A' for Active; 'I' for Inactive)
REMARK    1  A    between atoms: O_1  and  C_2
REMARK    2  A    between atoms: C_12  and  O_13
REMARK                            x       y       z     vdW  Elec       q    Type
REMARK                         _______ _______ _______ _____ _____    ______ ____
ROOT
ATOM      1  C   UNL     1       6.992   5.996  17.251  0.00  0.00    +0.000 A 
ATOM      2  N   UNL     1       5.963   5.457  16.578  0.00  0.00    +0.000 NA
ATOM      3  C   UNL     1       5.141   4.687  17.324  0.00  0.00    +0.000 A 
ATOM      4  C   UNL     1       4.054   4.074  16.722  0.00  0.00    +0.000 A 
ATOM      5  C   UNL     1       3.199   3.269  17.465  0.00  0.00    +0.000 A 
ATOM      6  C   UNL     1       3.479   3.117  18.807  0.00  0.00    +0.000 A 
ATOM      7 CL   UNL     1       2.485   2.139  19.804  0.00  0.00    +0.000 Cl
ATOM      8  N   UNL     1       4.517   3.692  19.440  0.00  0.00    +0.000 NA
ATOM      9  C   UNL     1       5.336   4.458  18.720  0.00  0.00    +0.000 A 
ATOM     10  N   UNL     1       6.374   5.017  19.350  0.00  0.00    +0.000 NA
ATOM     11  C   UNL     1       7.190   5.778  18.602  0.00  0.00    +0.000 A 
ENDROOT
BRANCH   1  12
ATOM     12  O   UNL     1       7.814   6.754  16.487  0.00  0.00    +0.000 OA
ATOM     13  H   UNL     1       8.640   6.245  16.538  0.00  0.00    +0.000 HD
ENDBRANCH   1  12
BRANCH  11  14
ATOM     14  O   UNL     1       8.232   6.304  19.291  0.00  0.00    +0.000 OA
ATOM     15  H   UNL     1       8.418   5.586  19.922  0.00  0.00    +0.000 HD
ENDBRANCH  11  14
TORSDOF 2
ENDMDL
MODEL 8
REMARK VINA RESULT:      -6.0      3.827      4.973
REMARK  Name = 
REMARK  2 active torsions:
REMARK  status: ('A' for Active; 'I' for Inactive)
REMARK    1  A    between atoms: O_1  and  C_2
REMARK    2  A    between atoms: C_12  and  O_13
REMARK                            x       y       z     vdW  Elec       q    Type
REMARK                         _______ _______ _______ _____ _____    ______ ____
ROOT
ATOM      1  C   UNL     1       6.541   5.248  18.535  0.00  0.00    +0.000 A 
ATOM      2  N   UNL     1       5.882   4.416  17.714  0.00  0.00    +0.000 NA
ATOM      3  C   UNL     1       6.236   4.508  16.413  0.00  0.00    +0.000 A 
ATOM      4  C   UNL     1       5.605   3.700  15.481  0.00  0.00    +0.000 A 
ATOM      5  C   UNL     1       5.944   3.783  14.135  0.00  0.00    +0.000 A 
ATOM      6  C   UNL     1       6.923   4.688  13.782  0.00  0.00    +0.000 A 
ATOM      7 CL   UNL     1       7.404   4.866  12.147  0.00  0.00    +0.000 Cl
ATOM      8  N   UNL     1       7.567   5.491  14.648  0.00  0.00    +0.000 NA
ATOM      9  C   UNL     1       7.233   5.411  15.936  0.00  0.00    +0.000 A 
ATOM     10  N   UNL     1       7.867   6.220  16.791  0.00  0.00    +0.000 NA
ATOM     11  C   UNL     1       7.507   6.128  18.081  0.00  0.00    +0.000 A 
ENDROOT
BRANCH   1  12
ATOM     12  O   UNL     1       6.167   5.153  19.833  0.00  0.00    +0.000 OA
ATOM     13  H   UNL     1       5.203   5.257  19.759  0.00  0.00    +0.000 HD
ENDBRANCH   1  12
BRANCH  11  14
ATOM     14  O   UNL     1       8.171   6.982  18.898  0.00  0.00    +0.000 OA
ATOM     15  H   UNL     1       7.443   7.557  19.193  0.00  0.00    +0.000 HD
ENDBRANCH  11  14
TORSDOF 2
ENDMDL
MODEL 9
REMARK VINA RESULT:      -6.0      1.645      1.986
REMARK  Name = 
REMARK  2 active torsions:
REMARK  status: ('A' for Active; 'I' for Inactive)
REMARK    1  A    between atoms: O_1  and  C_2
REMARK    2  A    between atoms: C_12  and  O_13
REMARK                            x       y       z     vdW  Elec       q    Type
REMARK                         _______ _______ _______ _____ _____    ______ ____
ROOT
ATOM      1  C   UNL     1       5.442   5.778  17.919  0.00  0.00    +0.000 A 
ATOM      2  N   UNL     1       4.223   6.200  18.291  0.00  0.00    +0.000 NA
ATOM      3  C   UNL     1       3.556   5.354  19.106  0.00  0.00    +0.000 A 
ATOM      4  C   UNL     1       2.283   5.691  19.538  0.00  0.00    +0.000 A 
ATOM      5  C   UNL     1       1.571   4.832  20.367  0.00  0.00    +0.000 A 
ATOM      6  C   UNL     1       2.185   3.654  20.736  0.00  0.00    +0.000 A 
ATOM      7 CL   UNL     1       1.385   2.529  21.752  0.00  0.00    +0.000 Cl
ATOM      8  N   UNL     1       3.418   3.282  20.348  0.00  0.00    +0.000 NA
ATOM      9  C   UNL     1       4.093   4.107  19.548  0.00  0.00    +0.000 A 
ATOM     10  N   UNL     1       5.313   3.727  19.154  0.00  0.00    +0.000 NA
ATOM     11  C   UNL     1       5.969   4.570  18.341  0.00  0.00    +0.000 A 
ENDROOT
BRANCH   1  12
ATOM     12  O   UNL     1       6.093   6.630  17.093  0.00  0.00    +0.000 OA
ATOM     13  H   UNL     1       6.098   6.122  16.265  0.00  0.00    +0.000 HD
ENDBRANCH   1  12
BRANCH  11  14
ATOM     14  O   UNL     1       7.192   4.126  17.962  0.00  0.00    +0.000 OA
ATOM     15  H   UNL     1       7.372   3.468  18.657  0.00  0.00    +0.000 HD
ENDBRANCH  11  14
TORSDOF 2
ENDMDL
