MODEL 1
REMARK VINA RESULT:      -7.9      0.000      0.000
REMARK  Name = 
REMARK  4 active torsions:
REMARK  status: ('A' for Active; 'I' for Inactive)
REMARK    1  A    between atoms: C_2  and  C_4
REMARK    2  A    between atoms: C_8  and  C_10
REMARK    3  A    between atoms: N_12  and  C_13
REMARK    4  A    between atoms: C_20  and  C_21
REMARK                            x       y       z     vdW  Elec       q    Type
REMARK                         _______ _______ _______ _____ _____    ______ ____
ROOT
ATOM      1  C   UNL     1       2.252   7.618  19.029  0.00  0.00    +0.000 A 
ATOM      2  C   UNL     1       1.924   8.859  19.539  0.00  0.00    +0.000 A 
ATOM      3  N   UNL     1       1.158   8.657  20.658  0.00  0.00    +0.000 N 
ATOM      4  N   UNL     1       1.127   7.349  21.001  0.00  0.00    +0.000 NA
ATOM      5  C   UNL     1       1.745   6.697  19.999  0.00  0.00    +0.000 A 
ENDROOT
BRANCH   1  10
ATOM      6  C   UNL     1       5.890   4.239  17.883  0.00  0.00    +0.000 C 
ATOM      7  C   UNL     1       5.349   4.890  16.598  0.00  0.00    +0.000 C 
ATOM      8  C   UNL     1       5.043   6.380  16.766  0.00  0.00    +0.000 C 
ATOM      9  N   UNL     1       4.231   6.614  17.957  0.00  0.00    +0.000 N 
ATOM     10  C   UNL     1       3.040   7.338  17.835  0.00  0.00    +0.000 C 
ATOM     11  O   UNL     1       2.660   7.756  16.743  0.00  0.00    +0.000 OA
ATOM     12  C   UNL     1       4.853   6.139  19.192  0.00  0.00    +0.000 C 
ATOM     13  C   UNL     1       5.033   4.625  19.101  0.00  0.00    +0.000 C 
BRANCH   6  15
ATOM     14  N   UNL     1       8.201   4.346  17.086  0.00  0.00    +0.000 N 
ATOM     15  C   UNL     1       7.356   4.570  18.133  0.00  0.00    +0.000 C 
ATOM     16  O   UNL     1       7.804   4.991  19.193  0.00  0.00    +0.000 OA
ATOM     17  H   UNL     1       9.189   4.462  17.283  0.00  0.00    +0.000 HD
ATOM     18  H   UNL     1       7.949   3.741  16.315  0.00  0.00    +0.000 HD
ENDBRANCH   6  15
ENDBRANCH   1  10
BRANCH   3  19
ATOM     19  C   UNL     1       0.451   9.642  21.405  0.00  0.00    +0.000 A 
ATOM     20  C   UNL     1      -0.253   9.292  22.567  0.00  0.00    +0.000 A 
ATOM     21  C   UNL     1      -0.939  10.269  23.294  0.00  0.00    +0.000 A 
ATOM     22  C   UNL     1      -0.931  11.594  22.864  0.00  0.00    +0.000 A 
ATOM     23  C   UNL     1      -0.225  11.950  21.716  0.00  0.00    +0.000 A 
ATOM     24  C   UNL     1       0.474  10.980  20.991  0.00  0.00    +0.000 A 
ENDBRANCH   3  19
BRANCH   5  25
ATOM     25  C   UNL     1       1.806   5.234  20.000  0.00  0.00    +0.000 A 
ATOM     26  C   UNL     1       1.496   4.474  18.868  0.00  0.00    +0.000 A 
ATOM     27  C   UNL     1       1.575   3.082  18.914  0.00  0.00    +0.000 A 
ATOM     28  C   UNL     1       1.948   2.484  20.104  0.00  0.00    +0.000 A 
ATOM     29  N   UNL     1       2.237   3.172  21.229  0.00  0.00    +0.000 NA
ATOM     30  C   UNL     1       2.158   4.528  21.149  0.00  0.00    +0.000 A 
ENDBRANCH   5  25
TORSDOF 4
ENDMDL
MODEL 2
REMARK VINA RESULT:      -7.9      0.608      1.098
REMARK  Name = 
REMARK  4 active torsions:
REMARK  status: ('A' for Active; 'I' for Inactive)
REMARK    1  A    between atoms: C_2  and  C_4
REMARK    2  A    between atoms: C_8  and  C_10
REMARK    3  A    between atoms: N_12  and  C_13
REMARK    4  A    between atoms: C_20  and  C_21
REMARK                            x       y       z     vdW  Elec       q    Type
REMARK                         _______ _______ _______ _____ _____    ______ ____
ROOT
ATOM      1  C   UNL     1       2.328   7.564  18.978  0.00  0.00    +0.000 A 
ATOM      2  C   UNL     1       2.002   8.800  19.500  0.00  0.00    +0.000 A 
ATOM      3  N   UNL     1       1.225   8.589  20.610  0.00  0.00    +0.000 N 
ATOM      4  N   UNL     1       1.185   7.277  20.938  0.00  0.00    +0.000 NA
ATOM      5  C   UNL     1       1.808   6.634  19.933  0.00  0.00    +0.000 A 
ENDROOT
BRANCH   1  10
ATOM      6  C   UNL     1       5.986   4.206  17.833  0.00  0.00    +0.000 C 
ATOM      7  C   UNL     1       5.450   4.863  16.549  0.00  0.00    +0.000 C 
ATOM      8  C   UNL     1       5.136   6.350  16.725  0.00  0.00    +0.000 C 
ATOM      9  N   UNL     1       4.316   6.574  17.912  0.00  0.00    +0.000 N 
ATOM     10  C   UNL     1       3.123   7.293  17.787  0.00  0.00    +0.000 C 
ATOM     11  O   UNL     1       2.748   7.717  16.695  0.00  0.00    +0.000 OA
ATOM     12  C   UNL     1       4.933   6.095  19.147  0.00  0.00    +0.000 C 
ATOM     13  C   UNL     1       5.121   4.581  19.049  0.00  0.00    +0.000 C 
BRANCH   6  15
ATOM     14  N   UNL     1       7.711   5.176  19.273  0.00  0.00    +0.000 N 
ATOM     15  C   UNL     1       7.449   4.541  18.094  0.00  0.00    +0.000 C 
ATOM     16  O   UNL     1       8.367   4.299  17.320  0.00  0.00    +0.000 OA
ATOM     17  H   UNL     1       8.665   5.496  19.399  0.00  0.00    +0.000 HD
ATOM     18  H   UNL     1       6.988   5.651  19.796  0.00  0.00    +0.000 HD
ENDBRANCH   6  15
ENDBRANCH   1  10
BRANCH   3  19
ATOM     19  C   UNL     1       0.518   9.568  21.364  0.00  0.00    +0.000 A 
ATOM     20  C   UNL     1       0.487  10.908  20.948  0.00  0.00    +0.000 A 
ATOM     21  C   UNL     1      -0.215  11.859  21.694  0.00  0.00    +0.000 A 
ATOM     22  C   UNL     1      -0.882  11.481  22.858  0.00  0.00    +0.000 A 
ATOM     23  C   UNL     1      -0.862  10.149  23.271  0.00  0.00    +0.000 A 
ATOM     24  C   UNL     1      -0.174   9.191  22.522  0.00  0.00    +0.000 A 
ENDBRANCH   3  19
BRANCH   5  25
ATOM     25  C   UNL     1       1.861   5.170  19.916  0.00  0.00    +0.000 A 
ATOM     26  C   UNL     1       1.569   4.426  18.769  0.00  0.00    +0.000 A 
ATOM     27  C   UNL     1       1.640   3.034  18.799  0.00  0.00    +0.000 A 
ATOM     28  C   UNL     1       1.987   2.418  19.988  0.00  0.00    +0.000 A 
ATOM     29  N   UNL     1       2.259   3.091  21.127  0.00  0.00    +0.000 NA
ATOM     30  C   UNL     1       2.188   4.448  21.063  0.00  0.00    +0.000 A 
ENDBRANCH   5  25
TORSDOF 4
ENDMDL
MODEL 3
REMARK VINA RESULT:      -7.9      3.357      8.125
REMARK  Name = 
REMARK  4 active torsions:
REMARK  status: ('A' for Active; 'I' for Inactive)
REMARK    1  A    between atoms: C_2  and  C_4
REMARK    2  A    between atoms: C_8  and  C_10
REMARK    3  A    between atoms: N_12  and  C_13
REMARK    4  A    between atoms: C_20  and  C_21
REMARK                            x       y       z     vdW  Elec       q    Type
REMARK                         _______ _______ _______ _____ _____    ______ ____
ROOT
ATOM      1  C   UNL     1       1.458   9.489  18.686  0.00  0.00    +0.000 A 
ATOM      2  C   UNL     1       2.069   8.729  17.709  0.00  0.00    +0.000 A 
ATOM      3  N   UNL     1       2.518   7.576  18.301  0.00  0.00    +0.000 N 
ATOM      4  N   UNL     1       2.067   7.471  19.572  0.00  0.00    +0.000 NA
ATOM      5  C   UNL     1       1.462   8.643  19.840  0.00  0.00    +0.000 A 
ENDROOT
BRANCH   1  10
ATOM      6  C   UNL     1      -3.331  11.145  18.145  0.00  0.00    +0.000 C 
ATOM      7  C   UNL     1      -2.399  12.322  18.482  0.00  0.00    +0.000 C 
ATOM      8  C   UNL     1      -1.033  12.217  17.799  0.00  0.00    +0.000 C 
ATOM      9  N   UNL     1      -0.446  10.897  18.006  0.00  0.00    +0.000 N 
ATOM     10  C   UNL     1       0.849  10.804  18.526  0.00  0.00    +0.000 C 
ATOM     11  O   UNL     1       1.485  11.811  18.831  0.00  0.00    +0.000 OA
ATOM     12  C   UNL     1      -1.281   9.802  17.514  0.00  0.00    +0.000 C 
ATOM     13  C   UNL     1      -2.598   9.800  18.291  0.00  0.00    +0.000 C 
BRANCH   6  15
ATOM     14  N   UNL     1      -5.300  11.475  16.730  0.00  0.00    +0.000 N 
ATOM     15  C   UNL     1      -3.952  11.269  16.759  0.00  0.00    +0.000 C 
ATOM     16  O   UNL     1      -3.330  11.176  15.707  0.00  0.00    +0.000 OA
ATOM     17  H   UNL     1      -5.730  11.450  15.812  0.00  0.00    +0.000 HD
ATOM     18  H   UNL     1      -5.889  11.270  17.526  0.00  0.00    +0.000 HD
ENDBRANCH   6  15
ENDBRANCH   1  10
BRANCH   3  19
ATOM     19  C   UNL     1       3.357   6.583  17.722  0.00  0.00    +0.000 A 
ATOM     20  C   UNL     1       4.540   6.941  17.057  0.00  0.00    +0.000 A 
ATOM     21  C   UNL     1       5.357   5.956  16.497  0.00  0.00    +0.000 A 
ATOM     22  C   UNL     1       4.997   4.613  16.591  0.00  0.00    +0.000 A 
ATOM     23  C   UNL     1       3.829   4.250  17.259  0.00  0.00    +0.000 A 
ATOM     24  C   UNL     1       3.013   5.229  17.833  0.00  0.00    +0.000 A 
ENDBRANCH   3  19
BRANCH   5  25
ATOM     25  C   UNL     1       0.938   8.911  21.181  0.00  0.00    +0.000 A 
ATOM     26  C   UNL     1      -0.433   8.940  21.454  0.00  0.00    +0.000 A 
ATOM     27  C   UNL     1      -0.885   9.193  22.749  0.00  0.00    +0.000 A 
ATOM     28  C   UNL     1       0.052   9.428  23.739  0.00  0.00    +0.000 A 
ATOM     29  N   UNL     1       1.384   9.431  23.522  0.00  0.00    +0.000 NA
ATOM     30  C   UNL     1       1.794   9.174  22.250  0.00  0.00    +0.000 A 
ENDBRANCH   5  25
TORSDOF 4
ENDMDL
MODEL 4
REMARK VINA RESULT:      -7.8      0.818      1.094
REMARK  Name = 
REMARK  4 active torsions:
REMARK  status: ('A' for Active; 'I' for Inactive)
REMARK    1  A    between atoms: C_2  and  C_4
REMARK    2  A    between atoms: C_8  and  C_10
REMARK    3  A    between atoms: N_12  and  C_13
REMARK    4  A    between atoms: C_20  and  C_21
REMARK                            x       y       z     vdW  Elec       q    Type
REMARK                         _______ _______ _______ _____ _____    ______ ____
ROOT
ATOM      1  C   UNL     1       2.319   7.529  18.983  0.00  0.00    +0.000 A 
ATOM      2  C   UNL     1       1.991   8.767  19.499  0.00  0.00    +0.000 A 
ATOM      3  N   UNL     1       1.221   8.561  20.615  0.00  0.00    +0.000 N 
ATOM      4  N   UNL     1       1.188   7.251  20.951  0.00  0.00    +0.000 NA
ATOM      5  C   UNL     1       1.807   6.603  19.947  0.00  0.00    +0.000 A 
ENDROOT
BRANCH   1  10
ATOM      6  C   UNL     1       5.992   4.185  17.846  0.00  0.00    +0.000 C 
ATOM      7  C   UNL     1       5.444   4.828  16.559  0.00  0.00    +0.000 C 
ATOM      8  C   UNL     1       5.122   6.314  16.724  0.00  0.00    +0.000 C 
ATOM      9  N   UNL     1       4.307   6.543  17.914  0.00  0.00    +0.000 N 
ATOM     10  C   UNL     1       3.109   7.254  17.790  0.00  0.00    +0.000 C 
ATOM     11  O   UNL     1       2.725   7.666  16.697  0.00  0.00    +0.000 OA
ATOM     12  C   UNL     1       4.934   6.078  19.150  0.00  0.00    +0.000 C 
ATOM     13  C   UNL     1       5.130   4.565  19.063  0.00  0.00    +0.000 C 
BRANCH   6  15
ATOM     14  N   UNL     1       7.726   5.126  19.292  0.00  0.00    +0.000 N 
ATOM     15  C   UNL     1       7.454   4.531  18.095  0.00  0.00    +0.000 C 
ATOM     16  O   UNL     1       8.362   4.331  17.298  0.00  0.00    +0.000 OA
ATOM     17  H   UNL     1       8.678   5.455  19.415  0.00  0.00    +0.000 HD
ATOM     18  H   UNL     1       7.005   5.572  19.844  0.00  0.00    +0.000 HD
ENDBRANCH   6  15
ENDBRANCH   1  10
BRANCH   3  19
ATOM     19  C   UNL     1       0.514   9.542  21.366  0.00  0.00    +0.000 A 
ATOM     20  C   UNL     1      -0.152   9.196  22.552  0.00  0.00    +0.000 A 
ATOM     21  C   UNL     1      -0.839  10.170  23.282  0.00  0.00    +0.000 A 
ATOM     22  C   UNL     1      -0.870  11.488  22.832  0.00  0.00    +0.000 A 
ATOM     23  C   UNL     1      -0.202  11.840  21.659  0.00  0.00    +0.000 A 
ATOM     24  C   UNL     1       0.498  10.874  20.931  0.00  0.00    +0.000 A 
ENDBRANCH   3  19
BRANCH   5  25
ATOM     25  C   UNL     1       1.866   5.140  19.940  0.00  0.00    +0.000 A 
ATOM     26  C   UNL     1       2.214   4.401  21.075  0.00  0.00    +0.000 A 
ATOM     27  C   UNL     1       2.249   3.008  21.022  0.00  0.00    +0.000 A 
ATOM     28  C   UNL     1       1.949   2.388  19.822  0.00  0.00    +0.000 A 
ATOM     29  N   UNL     1       1.626   3.056  18.695  0.00  0.00    +0.000 NA
ATOM     30  C   UNL     1       1.594   4.414  18.781  0.00  0.00    +0.000 A 
ENDBRANCH   5  25
TORSDOF 4
ENDMDL
MODEL 5
REMARK VINA RESULT:      -7.4      4.407      9.205
REMARK  Name = 
REMARK  4 active torsions:
REMARK  status: ('A' for Active; 'I' for Inactive)
REMARK    1  A    between atoms: C_2  and  C_4
REMARK    2  A    between atoms: C_8  and  C_10
REMARK    3  A    between atoms: N_12  and  C_13
REMARK    4  A    between atoms: C_20  and  C_21
REMARK                            x       y       z     vdW  Elec       q    Type
REMARK                         _______ _______ _______ _____ _____    ______ ____
ROOT
ATOM      1  C   UNL     1      -0.069  11.456  18.992  0.00  0.00    +0.000 A 
ATOM      2  C   UNL     1       1.097  10.749  19.210  0.00  0.00    +0.000 A 
ATOM      3  N   UNL     1       0.971   9.537  18.582  0.00  0.00    +0.000 N 
ATOM      4  N   UNL     1      -0.142   9.496  17.814  0.00  0.00    +0.000 NA
ATOM      5  C   UNL     1      -0.811  10.632  18.087  0.00  0.00    +0.000 A 
ENDROOT
BRANCH   1  10
ATOM      6  C   UNL     1      -1.571  13.311  23.494  0.00  0.00    +0.000 C 
ATOM      7  C   UNL     1      -1.116  14.458  22.574  0.00  0.00    +0.000 C 
ATOM      8  C   UNL     1      -1.526  14.250  21.114  0.00  0.00    +0.000 C 
ATOM      9  N   UNL     1      -1.155  12.916  20.653  0.00  0.00    +0.000 N 
ATOM     10  C   UNL     1      -0.397  12.788  19.484  0.00  0.00    +0.000 C 
ATOM     11  O   UNL     1      -0.023  13.778  18.858  0.00  0.00    +0.000 OA
ATOM     12  C   UNL     1      -1.747  11.838  21.444  0.00  0.00    +0.000 C 
ATOM     13  C   UNL     1      -1.232  11.942  22.879  0.00  0.00    +0.000 C 
BRANCH   6  15
ATOM     14  N   UNL     1      -3.681  12.196  24.033  0.00  0.00    +0.000 N 
ATOM     15  C   UNL     1      -3.052  13.391  23.840  0.00  0.00    +0.000 C 
ATOM     16  O   UNL     1      -3.691  14.432  23.929  0.00  0.00    +0.000 OA
ATOM     17  H   UNL     1      -4.687  12.241  24.156  0.00  0.00    +0.000 HD
ATOM     18  H   UNL     1      -3.293  11.326  23.692  0.00  0.00    +0.000 HD
ENDBRANCH   6  15
ENDBRANCH   1  10
BRANCH   3  19
ATOM     19  C   UNL     1       1.849   8.421  18.684  0.00  0.00    +0.000 A 
ATOM     20  C   UNL     1       1.839   7.601  19.823  0.00  0.00    +0.000 A 
ATOM     21  C   UNL     1       2.703   6.506  19.908  0.00  0.00    +0.000 A 
ATOM     22  C   UNL     1       3.583   6.227  18.864  0.00  0.00    +0.000 A 
ATOM     23  C   UNL     1       3.591   7.032  17.726  0.00  0.00    +0.000 A 
ATOM     24  C   UNL     1       2.721   8.121  17.628  0.00  0.00    +0.000 A 
ENDBRANCH   3  19
BRANCH   5  25
ATOM     25  C   UNL     1      -2.128  10.870  17.493  0.00  0.00    +0.000 A 
ATOM     26  C   UNL     1      -2.403  10.592  16.151  0.00  0.00    +0.000 A 
ATOM     27  C   UNL     1      -3.676  10.829  15.632  0.00  0.00    +0.000 A 
ATOM     28  C   UNL     1      -4.641  11.357  16.470  0.00  0.00    +0.000 A 
ATOM     29  N   UNL     1      -4.419  11.662  17.767  0.00  0.00    +0.000 NA
ATOM     30  C   UNL     1      -3.170  11.412  18.245  0.00  0.00    +0.000 A 
ENDBRANCH   5  25
TORSDOF 4
ENDMDL
MODEL 6
REMARK VINA RESULT:      -7.3      4.401      9.358
REMARK  Name = 
REMARK  4 active torsions:
REMARK  status: ('A' for Active; 'I' for Inactive)
REMARK    1  A    between atoms: C_2  and  C_4
REMARK    2  A    between atoms: C_8  and  C_10
REMARK    3  A    between atoms: N_12  and  C_13
REMARK    4  A    between atoms: C_20  and  C_21
REMARK                            x       y       z     vdW  Elec       q    Type
REMARK                         _______ _______ _______ _____ _____    ______ ____
ROOT
ATOM      1  C   UNL     1      -0.096  11.542  19.086  0.00  0.00    +0.000 A 
ATOM      2  C   UNL     1       1.071  10.825  19.261  0.00  0.00    +0.000 A 
ATOM      3  N   UNL     1       0.923   9.626  18.611  0.00  0.00    +0.000 N 
ATOM      4  N   UNL     1      -0.209   9.608  17.870  0.00  0.00    +0.000 NA
ATOM      5  C   UNL     1      -0.865  10.741  18.183  0.00  0.00    +0.000 A 
ENDROOT
BRANCH   1  10
ATOM      6  C   UNL     1      -1.748  13.278  23.583  0.00  0.00    +0.000 C 
ATOM      7  C   UNL     1      -1.214  14.442  22.729  0.00  0.00    +0.000 C 
ATOM      8  C   UNL     1      -1.561  14.303  21.246  0.00  0.00    +0.000 C 
ATOM      9  N   UNL     1      -1.212  12.975  20.750  0.00  0.00    +0.000 N 
ATOM     10  C   UNL     1      -0.404  12.865  19.614  0.00  0.00    +0.000 C 
ATOM     11  O   UNL     1       0.031  13.864  19.044  0.00  0.00    +0.000 OA
ATOM     12  C   UNL     1      -1.874  11.889  21.471  0.00  0.00    +0.000 C 
ATOM     13  C   UNL     1      -1.425  11.922  22.932  0.00  0.00    +0.000 C 
BRANCH   6  15
ATOM     14  N   UNL     1      -3.873  12.235  24.202  0.00  0.00    +0.000 N 
ATOM     15  C   UNL     1      -3.241  13.395  23.863  0.00  0.00    +0.000 C 
ATOM     16  O   UNL     1      -3.885  14.434  23.782  0.00  0.00    +0.000 OA
ATOM     17  H   UNL     1      -4.883  12.289  24.282  0.00  0.00    +0.000 HD
ATOM     18  H   UNL     1      -3.471  11.328  24.001  0.00  0.00    +0.000 HD
ENDBRANCH   6  15
ENDBRANCH   1  10
BRANCH   3  19
ATOM     19  C   UNL     1       1.797   8.504  18.667  0.00  0.00    +0.000 A 
ATOM     20  C   UNL     1       2.677   8.227  17.609  0.00  0.00    +0.000 A 
ATOM     21  C   UNL     1       3.534   7.124  17.679  0.00  0.00    +0.000 A 
ATOM     22  C   UNL     1       3.513   6.292  18.797  0.00  0.00    +0.000 A 
ATOM     23  C   UNL     1       2.647   6.569  19.855  0.00  0.00    +0.000 A 
ATOM     24  C   UNL     1       1.798   7.677  19.798  0.00  0.00    +0.000 A 
ENDBRANCH   3  19
BRANCH   5  25
ATOM     25  C   UNL     1      -2.195  10.998  17.627  0.00  0.00    +0.000 A 
ATOM     26  C   UNL     1      -3.283  11.353  18.431  0.00  0.00    +0.000 A 
ATOM     27  C   UNL     1      -4.530  11.595  17.856  0.00  0.00    +0.000 A 
ATOM     28  C   UNL     1      -4.660  11.460  16.485  0.00  0.00    +0.000 A 
ATOM     29  N   UNL     1      -3.646  11.100  15.670  0.00  0.00    +0.000 NA
ATOM     30  C   UNL     1      -2.440  10.878  16.261  0.00  0.00    +0.000 A 
ENDBRANCH   5  25
TORSDOF 4
ENDMDL
MODEL 7
REMARK VINA RESULT:      -7.3      4.413      9.302
REMARK  Name = 
REMARK  4 active torsions:
REMARK  status: ('A' for Active; 'I' for Inactive)
REMARK    1  A    between atoms: C_2  and  C_4
REMARK    2  A    between atoms: C_8  and  C_10
REMARK    3  A    between atoms: N_12  and  C_13
REMARK    4  A    between atoms: C_20  and  C_21
REMARK                            x       y       z     vdW  Elec       q    Type
REMARK                         _______ _______ _______ _____ _____    ______ ____
ROOT
ATOM      1  C   UNL     1      -0.047  11.568  19.011  0.00  0.00    +0.000 A 
ATOM      2  C   UNL     1       1.109  10.840  19.210  0.00  0.00    +0.000 A 
ATOM      3  N   UNL     1       0.929   9.610  18.630  0.00  0.00    +0.000 N 
ATOM      4  N   UNL     1      -0.215   9.572  17.908  0.00  0.00    +0.000 NA
ATOM      5  C   UNL     1      -0.844  10.734  18.165  0.00  0.00    +0.000 A 
ENDROOT
BRANCH   1  10
ATOM      6  C   UNL     1      -1.387  13.608  23.485  0.00  0.00    +0.000 C 
ATOM      7  C   UNL     1      -0.918  14.711  22.519  0.00  0.00    +0.000 C 
ATOM      8  C   UNL     1      -1.367  14.472  21.076  0.00  0.00    +0.000 C 
ATOM      9  N   UNL     1      -1.049  13.113  20.648  0.00  0.00    +0.000 N 
ATOM     10  C   UNL     1      -0.322  12.925  19.469  0.00  0.00    +0.000 C 
ATOM     11  O   UNL     1       0.068  13.883  18.804  0.00  0.00    +0.000 OA
ATOM     12  C   UNL     1      -1.656  12.079  21.486  0.00  0.00    +0.000 C 
ATOM     13  C   UNL     1      -1.105  12.211  22.906  0.00  0.00    +0.000 C 
BRANCH   6  15
ATOM     14  N   UNL     1      -3.327  15.023  23.957  0.00  0.00    +0.000 N 
ATOM     15  C   UNL     1      -2.857  13.746  23.859  0.00  0.00    +0.000 C 
ATOM     16  O   UNL     1      -3.608  12.805  24.090  0.00  0.00    +0.000 OA
ATOM     17  H   UNL     1      -4.273  15.119  24.311  0.00  0.00    +0.000 HD
ATOM     18  H   UNL     1      -2.706  15.814  24.068  0.00  0.00    +0.000 HD
ENDBRANCH   6  15
ENDBRANCH   1  10
BRANCH   3  19
ATOM     19  C   UNL     1       1.782   8.476  18.737  0.00  0.00    +0.000 A 
ATOM     20  C   UNL     1       1.771   7.676  19.890  0.00  0.00    +0.000 A 
ATOM     21  C   UNL     1       2.610   6.562  19.981  0.00  0.00    +0.000 A 
ATOM     22  C   UNL     1       3.467   6.245  18.928  0.00  0.00    +0.000 A 
ATOM     23  C   UNL     1       3.476   7.030  17.776  0.00  0.00    +0.000 A 
ATOM     24  C   UNL     1       2.629   8.138  17.673  0.00  0.00    +0.000 A 
ENDBRANCH   3  19
BRANCH   5  25
ATOM     25  C   UNL     1      -2.178  10.986  17.615  0.00  0.00    +0.000 A 
ATOM     26  C   UNL     1      -3.248  11.401  18.413  0.00  0.00    +0.000 A 
ATOM     27  C   UNL     1      -4.498  11.636  17.843  0.00  0.00    +0.000 A 
ATOM     28  C   UNL     1      -4.651  11.432  16.483  0.00  0.00    +0.000 A 
ATOM     29  N   UNL     1      -3.654  11.013  15.674  0.00  0.00    +0.000 NA
ATOM     30  C   UNL     1      -2.444  10.799  16.260  0.00  0.00    +0.000 A 
ENDBRANCH   5  25
TORSDOF 4
ENDMDL
MODEL 8
REMARK VINA RESULT:      -7.1      4.858      7.815
REMARK  Name = 
REMARK  4 active torsions:
REMARK  status: ('A' for Active; 'I' for Inactive)
REMARK    1  A    between atoms: C_2  and  C_4
REMARK    2  A    between atoms: C_8  and  C_10
REMARK    3  A    between atoms: N_12  and  C_13
REMARK    4  A    between atoms: C_20  and  C_21
REMARK                            x       y       z     vdW  Elec       q    Type
REMARK                         _______ _______ _______ _____ _____    ______ ____
ROOT
ATOM      1  C   UNL     1      -0.054  11.891  19.832  0.00  0.00    +0.000 A 
ATOM      2  C   UNL     1      -1.315  12.448  19.770  0.00  0.00    +0.000 A 
ATOM      3  N   UNL     1      -2.126  11.567  19.100  0.00  0.00    +0.000 N 
ATOM      4  N   UNL     1      -1.497  10.388  18.888  0.00  0.00    +0.000 NA
ATOM      5  C   UNL     1      -0.225  10.581  19.281  0.00  0.00    +0.000 A 
ENDROOT
BRANCH   1  10
ATOM      6  C   UNL     1       2.314  16.381  19.391  0.00  0.00    +0.000 C 
ATOM      7  C   UNL     1       2.838  15.625  20.625  0.00  0.00    +0.000 C 
ATOM      8  C   UNL     1       2.972  14.119  20.390  0.00  0.00    +0.000 C 
ATOM      9  N   UNL     1       1.749  13.570  19.813  0.00  0.00    +0.000 N 
ATOM     10  C   UNL     1       1.138  12.475  20.433  0.00  0.00    +0.000 C 
ATOM     11  O   UNL     1       1.603  11.987  21.462  0.00  0.00    +0.000 OA
ATOM     12  C   UNL     1       1.370  14.191  18.545  0.00  0.00    +0.000 C 
ATOM     13  C   UNL     1       1.088  15.673  18.789  0.00  0.00    +0.000 C 
BRANCH   6  15
ATOM     14  N   UNL     1       2.939  16.930  17.090  0.00  0.00    +0.000 N 
ATOM     15  C   UNL     1       3.389  16.585  18.331  0.00  0.00    +0.000 C 
ATOM     16  O   UNL     1       4.590  16.442  18.521  0.00  0.00    +0.000 OA
ATOM     17  H   UNL     1       3.642  16.960  16.359  0.00  0.00    +0.000 HD
ATOM     18  H   UNL     1       1.980  16.777  16.807  0.00  0.00    +0.000 HD
ENDBRANCH   6  15
ENDBRANCH   1  10
BRANCH   3  19
ATOM     19  C   UNL     1      -3.457  11.796  18.650  0.00  0.00    +0.000 A 
ATOM     20  C   UNL     1      -4.412  12.375  19.499  0.00  0.00    +0.000 A 
ATOM     21  C   UNL     1      -5.714  12.599  19.043  0.00  0.00    +0.000 A 
ATOM     22  C   UNL     1      -6.071  12.240  17.744  0.00  0.00    +0.000 A 
ATOM     23  C   UNL     1      -5.124  11.673  16.893  0.00  0.00    +0.000 A 
ATOM     24  C   UNL     1      -3.816  11.459  17.338  0.00  0.00    +0.000 A 
ENDBRANCH   3  19
BRANCH   5  25
ATOM     25  C   UNL     1       0.771   9.522  19.096  0.00  0.00    +0.000 A 
ATOM     26  C   UNL     1       1.396   9.293  17.867  0.00  0.00    +0.000 A 
ATOM     27  C   UNL     1       2.343   8.277  17.741  0.00  0.00    +0.000 A 
ATOM     28  C   UNL     1       2.630   7.503  18.851  0.00  0.00    +0.000 A 
ATOM     29  N   UNL     1       2.039   7.672  20.053  0.00  0.00    +0.000 NA
ATOM     30  C   UNL     1       1.125   8.676  20.145  0.00  0.00    +0.000 A 
ENDBRANCH   5  25
TORSDOF 4
ENDMDL
MODEL 9
REMARK VINA RESULT:      -7.1      4.782      7.692
REMARK  Name = 
REMARK  4 active torsions:
REMARK  status: ('A' for Active; 'I' for Inactive)
REMARK    1  A    between atoms: C_2  and  C_4
REMARK    2  A    between atoms: C_8  and  C_10
REMARK    3  A    between atoms: N_12  and  C_13
REMARK    4  A    between atoms: C_20  and  C_21
REMARK                            x       y       z     vdW  Elec       q    Type
REMARK                         _______ _______ _______ _____ _____    ______ ____
ROOT
ATOM      1  C   UNL     1      -0.020  11.817  19.846  0.00  0.00    +0.000 A 
ATOM      2  C   UNL     1      -1.280  12.378  19.777  0.00  0.00    +0.000 A 
ATOM      3  N   UNL     1      -2.081  11.513  19.077  0.00  0.00    +0.000 N 
ATOM      4  N   UNL     1      -1.451  10.338  18.849  0.00  0.00    +0.000 NA
ATOM      5  C   UNL     1      -0.184  10.520  19.265  0.00  0.00    +0.000 A 
ENDROOT
BRANCH   1  10
ATOM      6  C   UNL     1       2.566  16.172  19.278  0.00  0.00    +0.000 C 
ATOM      7  C   UNL     1       2.990  15.470  20.581  0.00  0.00    +0.000 C 
ATOM      8  C   UNL     1       3.069  13.948  20.441  0.00  0.00    +0.000 C 
ATOM      9  N   UNL     1       1.855  13.416  19.830  0.00  0.00    +0.000 N 
ATOM     10  C   UNL     1       1.164  12.387  20.477  0.00  0.00    +0.000 C 
ATOM     11  O   UNL     1       1.551  11.943  21.557  0.00  0.00    +0.000 OA
ATOM     12  C   UNL     1       1.571  13.976  18.509  0.00  0.00    +0.000 C 
ATOM     13  C   UNL     1       1.343  15.480  18.651  0.00  0.00    +0.000 C 
BRANCH   6  15
ATOM     14  N   UNL     1       4.874  16.781  18.742  0.00  0.00    +0.000 N 
ATOM     15  C   UNL     1       3.703  16.267  18.269  0.00  0.00    +0.000 C 
ATOM     16  O   UNL     1       3.619  15.937  17.092  0.00  0.00    +0.000 OA
ATOM     17  H   UNL     1       5.596  16.946  18.049  0.00  0.00    +0.000 HD
ATOM     18  H   UNL     1       4.913  17.328  19.593  0.00  0.00    +0.000 HD
ENDBRANCH   6  15
ENDBRANCH   1  10
BRANCH   3  19
ATOM     19  C   UNL     1      -3.405  11.753  18.612  0.00  0.00    +0.000 A 
ATOM     20  C   UNL     1      -3.776  11.416  17.301  0.00  0.00    +0.000 A 
ATOM     21  C   UNL     1      -5.080  11.652  16.857  0.00  0.00    +0.000 A 
ATOM     22  C   UNL     1      -6.016  12.229  17.714  0.00  0.00    +0.000 A 
ATOM     23  C   UNL     1      -5.656  12.557  19.020  0.00  0.00    +0.000 A 
ATOM     24  C   UNL     1      -4.357  12.311  19.475  0.00  0.00    +0.000 A 
ENDBRANCH   3  19
BRANCH   5  25
ATOM     25  C   UNL     1       0.813   9.464  19.072  0.00  0.00    +0.000 A 
ATOM     26  C   UNL     1       1.439   9.245  17.841  0.00  0.00    +0.000 A 
ATOM     27  C   UNL     1       2.388   8.232  17.707  0.00  0.00    +0.000 A 
ATOM     28  C   UNL     1       2.675   7.450  18.811  0.00  0.00    +0.000 A 
ATOM     29  N   UNL     1       2.084   7.608  20.015  0.00  0.00    +0.000 NA
ATOM     30  C   UNL     1       1.168   8.610  20.114  0.00  0.00    +0.000 A 
ENDBRANCH   5  25
TORSDOF 4
ENDMDL
