MODEL 1
REMARK VINA RESULT:      -7.8      0.000      0.000
REMARK  Name = 
REMARK  4 active torsions:
REMARK  status: ('A' for Active; 'I' for Inactive)
REMARK    1  A    between atoms: C_1  and  C_2
REMARK    2  A    between atoms: N_6  and  C_7
REMARK    3  A    between atoms: C_10  and  N_11
REMARK    4  A    between atoms: C_21  and  N_22
REMARK                            x       y       z     vdW  Elec       q    Type
REMARK                         _______ _______ _______ _____ _____    ______ ____
ROOT
ATOM      1  C   UNL     1       1.148  16.331  18.951  0.00  0.00    +0.000 C 
ATOM      2  C   UNL     1       0.963  14.871  19.200  0.00  0.00    +0.000 A 
ATOM      3  C   UNL     1      -0.309  14.344  19.011  0.00  0.00    +0.000 A 
ATOM      4  N   UNL     1      -0.635  13.051  19.147  0.00  0.00    +0.000 NA
ATOM      5  C   UNL     1       0.375  12.237  19.447  0.00  0.00    +0.000 A 
ATOM      6  N   UNL     1       0.057  10.886  19.568  0.00  0.00    +0.000 N 
ATOM      7  N   UNL     1       1.638  12.658  19.653  0.00  0.00    +0.000 NA
ATOM      8  C   UNL     1       1.951  13.962  19.553  0.00  0.00    +0.000 A 
ATOM      9  H   UNL     1      -0.932  10.745  19.421  0.00  0.00    +0.000 HD
ENDROOT
BRANCH   8  10
ATOM     10  N   UNL     1       3.270  14.293  19.767  0.00  0.00    +0.000 N 
ATOM     11  C   UNL     1       3.944  14.294  21.052  0.00  0.00    +0.000 C 
ATOM     12  C   UNL     1       4.522  15.690  21.284  0.00  0.00    +0.000 C 
ATOM     13  C   UNL     1       5.454  16.100  20.123  0.00  0.00    +0.000 C 
ATOM     14  C   UNL     1       6.816  15.380  20.219  0.00  0.00    +0.000 C 
ATOM     15  C   UNL     1       7.636  16.275  21.133  0.00  0.00    +0.000 C 
ATOM     16  N   UNL     1       7.117  17.579  20.879  0.00  0.00    +0.000 N 
ATOM     17  C   UNL     1       5.862  17.554  20.312  0.00  0.00    +0.000 C 
ATOM     18  O   UNL     1       5.193  18.544  20.075  0.00  0.00    +0.000 OA
ATOM     19  C   UNL     1       4.764  15.904  18.763  0.00  0.00    +0.000 C 
ATOM     20  C   UNL     1       4.158  14.506  18.618  0.00  0.00    +0.000 C 
ATOM     21  H   UNL     1       7.538  18.455  21.161  0.00  0.00    +0.000 HD
ENDBRANCH   8  10
BRANCH   6  22
ATOM     22  C   UNL     1       0.884   9.780  19.356  0.00  0.00    +0.000 A 
ATOM     23  C   UNL     1       1.480   9.599  18.108  0.00  0.00    +0.000 A 
ATOM     24  C   UNL     1       2.205   8.433  17.825  0.00  0.00    +0.000 A 
ATOM     25  C   UNL     1       2.374   7.414  18.778  0.00  0.00    +0.000 A 
ATOM     26  C   UNL     1       1.816   7.653  20.043  0.00  0.00    +0.000 A 
ATOM     27  F   UNL     1       1.900   6.723  21.013  0.00  0.00    +0.000 F 
ATOM     28  C   UNL     1       1.084   8.801  20.328  0.00  0.00    +0.000 A 
BRANCH  25  29
ATOM     29  N   UNL     1       3.011   6.237  18.451  0.00  0.00    +0.000 N 
ATOM     30  C   UNL     1       2.277   4.993  18.202  0.00  0.00    +0.000 C 
ATOM     31  C   UNL     1       2.951   3.847  18.972  0.00  0.00    +0.000 C 
ATOM     32  O   UNL     1       4.343   3.728  18.632  0.00  0.00    +0.000 OA
ATOM     33  C   UNL     1       5.041   4.945  18.960  0.00  0.00    +0.000 C 
ATOM     34  C   UNL     1       4.458   6.153  18.212  0.00  0.00    +0.000 C 
ENDBRANCH  25  29
ENDBRANCH   6  22
TORSDOF 3
ENDMDL
MODEL 2
REMARK VINA RESULT:      -7.8      0.491      1.011
REMARK  Name = 
REMARK  4 active torsions:
REMARK  status: ('A' for Active; 'I' for Inactive)
REMARK    1  A    between atoms: C_1  and  C_2
REMARK    2  A    between atoms: N_6  and  C_7
REMARK    3  A    between atoms: C_10  and  N_11
REMARK    4  A    between atoms: C_21  and  N_22
REMARK                            x       y       z     vdW  Elec       q    Type
REMARK                         _______ _______ _______ _____ _____    ______ ____
ROOT
ATOM      1  C   UNL     1       1.372  16.384  18.639  0.00  0.00    +0.000 C 
ATOM      2  C   UNL     1       1.129  14.938  18.913  0.00  0.00    +0.000 A 
ATOM      3  C   UNL     1      -0.142  14.440  18.652  0.00  0.00    +0.000 A 
ATOM      4  N   UNL     1      -0.513  13.160  18.799  0.00  0.00    +0.000 NA
ATOM      5  C   UNL     1       0.451  12.328  19.188  0.00  0.00    +0.000 A 
ATOM      6  N   UNL     1       0.087  10.990  19.322  0.00  0.00    +0.000 N 
ATOM      7  N   UNL     1       1.709  12.721  19.469  0.00  0.00    +0.000 NA
ATOM      8  C   UNL     1       2.064  14.013  19.356  0.00  0.00    +0.000 A 
ATOM      9  H   UNL     1      -0.893  10.871  19.112  0.00  0.00    +0.000 HD
ENDROOT
BRANCH   8  10
ATOM     10  N   UNL     1       3.375  14.314  19.651  0.00  0.00    +0.000 N 
ATOM     11  C   UNL     1       3.963  14.322  20.977  0.00  0.00    +0.000 C 
ATOM     12  C   UNL     1       4.562  15.707  21.223  0.00  0.00    +0.000 C 
ATOM     13  C   UNL     1       5.578  16.072  20.119  0.00  0.00    +0.000 C 
ATOM     14  C   UNL     1       6.912  15.319  20.316  0.00  0.00    +0.000 C 
ATOM     15  C   UNL     1       7.694  16.210  21.267  0.00  0.00    +0.000 C 
ATOM     16  N   UNL     1       7.227  17.522  20.958  0.00  0.00    +0.000 N 
ATOM     17  C   UNL     1       6.011  17.518  20.309  0.00  0.00    +0.000 C 
ATOM     18  O   UNL     1       5.385  18.521  20.013  0.00  0.00    +0.000 OA
ATOM     19  C   UNL     1       4.973  15.868  18.720  0.00  0.00    +0.000 C 
ATOM     20  C   UNL     1       4.342  14.483  18.559  0.00  0.00    +0.000 C 
ATOM     21  H   UNL     1       7.651  18.393  21.252  0.00  0.00    +0.000 HD
ENDBRANCH   8  10
BRANCH   6  22
ATOM     22  C   UNL     1       0.894   9.857  19.196  0.00  0.00    +0.000 A 
ATOM     23  C   UNL     1       1.503   9.582  17.972  0.00  0.00    +0.000 A 
ATOM     24  C   UNL     1       2.208   8.386  17.777  0.00  0.00    +0.000 A 
ATOM     25  C   UNL     1       2.345   7.430  18.797  0.00  0.00    +0.000 A 
ATOM     26  C   UNL     1       1.775   7.763  20.036  0.00  0.00    +0.000 A 
ATOM     27  F   UNL     1       1.829   6.899  21.067  0.00  0.00    +0.000 F 
ATOM     28  C   UNL     1       1.062   8.942  20.234  0.00  0.00    +0.000 A 
BRANCH  25  29
ATOM     29  N   UNL     1       2.962   6.221  18.558  0.00  0.00    +0.000 N 
ATOM     30  C   UNL     1       4.376   6.126  18.185  0.00  0.00    +0.000 C 
ATOM     31  C   UNL     1       4.518   5.171  16.989  0.00  0.00    +0.000 C 
ATOM     32  O   UNL     1       3.946   3.882  17.270  0.00  0.00    +0.000 OA
ATOM     33  C   UNL     1       2.542   4.013  17.561  0.00  0.00    +0.000 C 
ATOM     34  C   UNL     1       2.294   4.930  18.768  0.00  0.00    +0.000 C 
ENDBRANCH  25  29
ENDBRANCH   6  22
TORSDOF 3
ENDMDL
MODEL 3
REMARK VINA RESULT:      -7.7      3.525      5.915
REMARK  Name = 
REMARK  4 active torsions:
REMARK  status: ('A' for Active; 'I' for Inactive)
REMARK    1  A    between atoms: C_1  and  C_2
REMARK    2  A    between atoms: N_6  and  C_7
REMARK    3  A    between atoms: C_10  and  N_11
REMARK    4  A    between atoms: C_21  and  N_22
REMARK                            x       y       z     vdW  Elec       q    Type
REMARK                         _______ _______ _______ _____ _____    ______ ____
ROOT
ATOM      1  C   UNL     1       0.160  15.428  20.516  0.00  0.00    +0.000 C 
ATOM      2  C   UNL     1       0.494  14.139  19.842  0.00  0.00    +0.000 A 
ATOM      3  C   UNL     1       1.487  14.161  18.871  0.00  0.00    +0.000 A 
ATOM      4  N   UNL     1       1.938  13.087  18.206  0.00  0.00    +0.000 NA
ATOM      5  C   UNL     1       1.393  11.925  18.563  0.00  0.00    +0.000 A 
ATOM      6  N   UNL     1       1.868  10.798  17.897  0.00  0.00    +0.000 N 
ATOM      7  N   UNL     1       0.421  11.810  19.489  0.00  0.00    +0.000 NA
ATOM      8  C   UNL     1      -0.053  12.895  20.125  0.00  0.00    +0.000 A 
ATOM      9  H   UNL     1       2.562  11.061  17.213  0.00  0.00    +0.000 HD
ENDROOT
BRANCH   8  10
ATOM     10  N   UNL     1      -1.035  12.672  21.064  0.00  0.00    +0.000 N 
ATOM     11  C   UNL     1      -2.454  12.550  20.791  0.00  0.00    +0.000 C 
ATOM     12  C   UNL     1      -3.190  13.598  21.626  0.00  0.00    +0.000 C 
ATOM     13  C   UNL     1      -2.857  13.442  23.125  0.00  0.00    +0.000 C 
ATOM     14  C   UNL     1      -3.605  12.239  23.742  0.00  0.00    +0.000 C 
ATOM     15  C   UNL     1      -4.950  12.817  24.148  0.00  0.00    +0.000 C 
ATOM     16  N   UNL     1      -4.651  14.179  24.454  0.00  0.00    +0.000 N 
ATOM     17  C   UNL     1      -3.470  14.607  23.888  0.00  0.00    +0.000 C 
ATOM     18  O   UNL     1      -3.050  15.749  23.952  0.00  0.00    +0.000 OA
ATOM     19  C   UNL     1      -1.337  13.386  23.353  0.00  0.00    +0.000 C 
ATOM     20  C   UNL     1      -0.655  12.358  22.447  0.00  0.00    +0.000 C 
ATOM     21  H   UNL     1      -5.256  14.829  24.939  0.00  0.00    +0.000 HD
ENDBRANCH   8  10
BRANCH   6  22
ATOM     22  C   UNL     1       1.911   9.478  18.354  0.00  0.00    +0.000 A 
ATOM     23  C   UNL     1       1.503   9.189  19.656  0.00  0.00    +0.000 A 
ATOM     24  C   UNL     1       1.660   7.900  20.184  0.00  0.00    +0.000 A 
ATOM     25  C   UNL     1       2.214   6.851  19.431  0.00  0.00    +0.000 A 
ATOM     26  C   UNL     1       2.557   7.157  18.105  0.00  0.00    +0.000 A 
ATOM     27  F   UNL     1       3.122   6.226  17.314  0.00  0.00    +0.000 F 
ATOM     28  C   UNL     1       2.417   8.437  17.577  0.00  0.00    +0.000 A 
BRANCH  25  29
ATOM     29  N   UNL     1       2.444   5.616  19.998  0.00  0.00    +0.000 N 
ATOM     30  C   UNL     1       3.764   4.980  19.978  0.00  0.00    +0.000 C 
ATOM     31  C   UNL     1       3.610   3.515  19.542  0.00  0.00    +0.000 C 
ATOM     32  O   UNL     1       2.684   2.807  20.383  0.00  0.00    +0.000 OA
ATOM     33  C   UNL     1       1.383   3.421  20.318  0.00  0.00    +0.000 C 
ATOM     34  C   UNL     1       1.424   4.890  20.766  0.00  0.00    +0.000 C 
ENDBRANCH  25  29
ENDBRANCH   6  22
TORSDOF 3
ENDMDL
MODEL 4
REMARK VINA RESULT:      -7.7      2.878      4.029
REMARK  Name = 
REMARK  4 active torsions:
REMARK  status: ('A' for Active; 'I' for Inactive)
REMARK    1  A    between atoms: C_1  and  C_2
REMARK    2  A    between atoms: N_6  and  C_7
REMARK    3  A    between atoms: C_10  and  N_11
REMARK    4  A    between atoms: C_21  and  N_22
REMARK                            x       y       z     vdW  Elec       q    Type
REMARK                         _______ _______ _______ _____ _____    ______ ____
ROOT
ATOM      1  C   UNL     1      -1.164  12.830  22.246  0.00  0.00    +0.000 C 
ATOM      2  C   UNL     1      -0.408  11.562  22.023  0.00  0.00    +0.000 A 
ATOM      3  C   UNL     1      -0.829  10.433  22.715  0.00  0.00    +0.000 A 
ATOM      4  N   UNL     1      -0.291   9.211  22.595  0.00  0.00    +0.000 NA
ATOM      5  C   UNL     1       0.692   9.106  21.703  0.00  0.00    +0.000 A 
ATOM      6  N   UNL     1       1.245   7.837  21.549  0.00  0.00    +0.000 N 
ATOM      7  N   UNL     1       1.168  10.146  20.990  0.00  0.00    +0.000 NA
ATOM      8  C   UNL     1       0.650  11.377  21.144  0.00  0.00    +0.000 A 
ATOM      9  H   UNL     1       0.803   7.184  22.180  0.00  0.00    +0.000 HD
ENDROOT
BRANCH   8  10
ATOM     10  N   UNL     1       1.193  12.370  20.361  0.00  0.00    +0.000 N 
ATOM     11  C   UNL     1       2.158  13.361  20.800  0.00  0.00    +0.000 C 
ATOM     12  C   UNL     1       1.574  14.747  20.527  0.00  0.00    +0.000 C 
ATOM     13  C   UNL     1       1.197  14.903  19.038  0.00  0.00    +0.000 C 
ATOM     14  C   UNL     1       2.452  15.118  18.164  0.00  0.00    +0.000 C 
ATOM     15  C   UNL     1       2.678  16.620  18.217  0.00  0.00    +0.000 C 
ATOM     16  N   UNL     1       1.363  17.151  18.372  0.00  0.00    +0.000 N 
ATOM     17  C   UNL     1       0.465  16.223  18.852  0.00  0.00    +0.000 C 
ATOM     18  O   UNL     1      -0.696  16.468  19.133  0.00  0.00    +0.000 OA
ATOM     19  C   UNL     1       0.326  13.728  18.561  0.00  0.00    +0.000 C 
ATOM     20  C   UNL     1       0.940  12.372  18.915  0.00  0.00    +0.000 C 
ATOM     21  H   UNL     1       1.091  18.119  18.257  0.00  0.00    +0.000 HD
ENDBRANCH   8  10
BRANCH   6  22
ATOM     22  C   UNL     1       1.863   7.293  20.420  0.00  0.00    +0.000 A 
ATOM     23  C   UNL     1       2.425   6.019  20.493  0.00  0.00    +0.000 A 
ATOM     24  C   UNL     1       3.166   5.502  19.421  0.00  0.00    +0.000 A 
ATOM     25  C   UNL     1       3.360   6.228  18.235  0.00  0.00    +0.000 A 
ATOM     26  C   UNL     1       2.730   7.481  18.167  0.00  0.00    +0.000 A 
ATOM     27  F   UNL     1       2.882   8.264  17.082  0.00  0.00    +0.000 F 
ATOM     28  C   UNL     1       2.005   8.007  19.232  0.00  0.00    +0.000 A 
BRANCH  25  29
ATOM     29  N   UNL     1       4.167   5.741  17.230  0.00  0.00    +0.000 N 
ATOM     30  C   UNL     1       3.995   4.398  16.670  0.00  0.00    +0.000 C 
ATOM     31  C   UNL     1       5.366   3.708  16.586  0.00  0.00    +0.000 C 
ATOM     32  O   UNL     1       6.306   4.490  15.830  0.00  0.00    +0.000 OA
ATOM     33  C   UNL     1       6.501   5.774  16.453  0.00  0.00    +0.000 C 
ATOM     34  C   UNL     1       5.185   6.560  16.558  0.00  0.00    +0.000 C 
ENDBRANCH  25  29
ENDBRANCH   6  22
TORSDOF 3
ENDMDL
MODEL 5
REMARK VINA RESULT:      -7.7      3.281      9.619
REMARK  Name = 
REMARK  4 active torsions:
REMARK  status: ('A' for Active; 'I' for Inactive)
REMARK    1  A    between atoms: C_1  and  C_2
REMARK    2  A    between atoms: N_6  and  C_7
REMARK    3  A    between atoms: C_10  and  N_11
REMARK    4  A    between atoms: C_21  and  N_22
REMARK                            x       y       z     vdW  Elec       q    Type
REMARK                         _______ _______ _______ _____ _____    ______ ____
ROOT
ATOM      1  C   UNL     1       4.016   2.443  19.608  0.00  0.00    +0.000 C 
ATOM      2  C   UNL     1       3.153   3.623  19.908  0.00  0.00    +0.000 A 
ATOM      3  C   UNL     1       2.462   3.623  21.114  0.00  0.00    +0.000 A 
ATOM      4  N   UNL     1       1.684   4.621  21.556  0.00  0.00    +0.000 NA
ATOM      5  C   UNL     1       1.629   5.693  20.768  0.00  0.00    +0.000 A 
ATOM      6  N   UNL     1       0.843   6.748  21.225  0.00  0.00    +0.000 N 
ATOM      7  N   UNL     1       2.260   5.780  19.581  0.00  0.00    +0.000 NA
ATOM      8  C   UNL     1       3.008   4.760  19.125  0.00  0.00    +0.000 A 
ATOM      9  H   UNL     1       0.412   6.508  22.106  0.00  0.00    +0.000 HD
ENDROOT
BRANCH   8  10
ATOM     10  N   UNL     1       3.626   4.950  17.910  0.00  0.00    +0.000 N 
ATOM     11  C   UNL     1       3.631   4.007  16.807  0.00  0.00    +0.000 C 
ATOM     12  C   UNL     1       5.085   3.701  16.450  0.00  0.00    +0.000 C 
ATOM     13  C   UNL     1       5.859   4.998  16.128  0.00  0.00    +0.000 C 
ATOM     14  C   UNL     1       5.492   5.533  14.726  0.00  0.00    +0.000 C 
ATOM     15  C   UNL     1       6.439   4.792  13.796  0.00  0.00    +0.000 C 
ATOM     16  N   UNL     1       7.595   4.570  14.603  0.00  0.00    +0.000 N 
ATOM     17  C   UNL     1       7.331   4.661  15.952  0.00  0.00    +0.000 C 
ATOM     18  O   UNL     1       8.147   4.438  16.830  0.00  0.00    +0.000 OA
ATOM     19  C   UNL     1       5.672   6.046  17.239  0.00  0.00    +0.000 C 
ATOM     20  C   UNL     1       4.197   6.263  17.586  0.00  0.00    +0.000 C 
ATOM     21  H   UNL     1       8.505   4.273  14.274  0.00  0.00    +0.000 HD
ENDBRANCH   8  10
BRANCH   6  22
ATOM     22  C   UNL     1       0.978   8.111  20.948  0.00  0.00    +0.000 A 
ATOM     23  C   UNL     1       0.691   9.045  21.943  0.00  0.00    +0.000 A 
ATOM     24  C   UNL     1       0.688  10.417  21.656  0.00  0.00    +0.000 A 
ATOM     25  C   UNL     1       0.987  10.908  20.374  0.00  0.00    +0.000 A 
ATOM     26  C   UNL     1       1.333   9.948  19.410  0.00  0.00    +0.000 A 
ATOM     27  F   UNL     1       1.607  10.319  18.145  0.00  0.00    +0.000 F 
ATOM     28  C   UNL     1       1.325   8.584  19.683  0.00  0.00    +0.000 A 
BRANCH  25  29
ATOM     29  N   UNL     1       0.890  12.253  20.090  0.00  0.00    +0.000 N 
ATOM     30  C   UNL     1      -0.401  12.924  19.915  0.00  0.00    +0.000 C 
ATOM     31  C   UNL     1      -0.348  13.796  18.650  0.00  0.00    +0.000 C 
ATOM     32  O   UNL     1       0.744  14.731  18.698  0.00  0.00    +0.000 OA
ATOM     33  C   UNL     1       1.997  14.029  18.797  0.00  0.00    +0.000 C 
ATOM     34  C   UNL     1       2.057  13.146  20.052  0.00  0.00    +0.000 C 
ENDBRANCH  25  29
ENDBRANCH   6  22
TORSDOF 3
ENDMDL
MODEL 6
REMARK VINA RESULT:      -7.6      3.340      9.630
REMARK  Name = 
REMARK  4 active torsions:
REMARK  status: ('A' for Active; 'I' for Inactive)
REMARK    1  A    between atoms: C_1  and  C_2
REMARK    2  A    between atoms: N_6  and  C_7
REMARK    3  A    between atoms: C_10  and  N_11
REMARK    4  A    between atoms: C_21  and  N_22
REMARK                            x       y       z     vdW  Elec       q    Type
REMARK                         _______ _______ _______ _____ _____    ______ ____
ROOT
ATOM      1  C   UNL     1       4.382   2.093  19.849  0.00  0.00    +0.000 C 
ATOM      2  C   UNL     1       3.507   3.286  20.044  0.00  0.00    +0.000 A 
ATOM      3  C   UNL     1       2.889   3.434  21.279  0.00  0.00    +0.000 A 
ATOM      4  N   UNL     1       2.111   4.467  21.633  0.00  0.00    +0.000 NA
ATOM      5  C   UNL     1       1.980   5.422  20.714  0.00  0.00    +0.000 A 
ATOM      6  N   UNL     1       1.194   6.514  21.076  0.00  0.00    +0.000 N 
ATOM      7  N   UNL     1       2.537   5.362  19.489  0.00  0.00    +0.000 NA
ATOM      8  C   UNL     1       3.285   4.304  19.127  0.00  0.00    +0.000 A 
ATOM      9  H   UNL     1       0.824   6.386  22.007  0.00  0.00    +0.000 HD
ENDROOT
BRANCH   8  10
ATOM     10  N   UNL     1       3.823   4.342  17.861  0.00  0.00    +0.000 N 
ATOM     11  C   UNL     1       4.597   3.284  17.239  0.00  0.00    +0.000 C 
ATOM     12  C   UNL     1       5.949   3.865  16.826  0.00  0.00    +0.000 C 
ATOM     13  C   UNL     1       5.765   5.088  15.903  0.00  0.00    +0.000 C 
ATOM     14  C   UNL     1       5.369   4.655  14.474  0.00  0.00    +0.000 C 
ATOM     15  C   UNL     1       6.702   4.398  13.791  0.00  0.00    +0.000 C 
ATOM     16  N   UNL     1       7.592   5.304  14.440  0.00  0.00    +0.000 N 
ATOM     17  C   UNL     1       7.123   5.731  15.663  0.00  0.00    +0.000 C 
ATOM     18  O   UNL     1       7.744   6.449  16.427  0.00  0.00    +0.000 OA
ATOM     19  C   UNL     1       4.786   6.103  16.516  0.00  0.00    +0.000 C 
ATOM     20  C   UNL     1       3.476   5.447  16.959  0.00  0.00    +0.000 C 
ATOM     21  H   UNL     1       8.522   5.556  14.128  0.00  0.00    +0.000 HD
ENDBRANCH   8  10
BRANCH   6  22
ATOM     22  C   UNL     1       1.275   7.830  20.613  0.00  0.00    +0.000 A 
ATOM     23  C   UNL     1       0.864   8.875  21.440  0.00  0.00    +0.000 A 
ATOM     24  C   UNL     1       0.809  10.189  20.957  0.00  0.00    +0.000 A 
ATOM     25  C   UNL     1       1.174  10.512  19.639  0.00  0.00    +0.000 A 
ATOM     26  C   UNL     1       1.642   9.450  18.851  0.00  0.00    +0.000 A 
ATOM     27  F   UNL     1       1.988   9.655  17.565  0.00  0.00    +0.000 F 
ATOM     28  C   UNL     1       1.688   8.140  19.318  0.00  0.00    +0.000 A 
BRANCH  25  29
ATOM     29  N   UNL     1       1.025  11.794  19.156  0.00  0.00    +0.000 N 
ATOM     30  C   UNL     1       2.160  12.707  18.998  0.00  0.00    +0.000 C 
ATOM     31  C   UNL     1       1.791  14.077  19.587  0.00  0.00    +0.000 C 
ATOM     32  O   UNL     1       0.590  14.602  18.995  0.00  0.00    +0.000 OA
ATOM     33  C   UNL     1      -0.515  13.710  19.236  0.00  0.00    +0.000 C 
ATOM     34  C   UNL     1      -0.255  12.312  18.654  0.00  0.00    +0.000 C 
ENDBRANCH  25  29
ENDBRANCH   6  22
TORSDOF 3
ENDMDL
MODEL 7
REMARK VINA RESULT:      -7.6      3.488      5.682
REMARK  Name = 
REMARK  4 active torsions:
REMARK  status: ('A' for Active; 'I' for Inactive)
REMARK    1  A    between atoms: C_1  and  C_2
REMARK    2  A    between atoms: N_6  and  C_7
REMARK    3  A    between atoms: C_10  and  N_11
REMARK    4  A    between atoms: C_21  and  N_22
REMARK                            x       y       z     vdW  Elec       q    Type
REMARK                         _______ _______ _______ _____ _____    ______ ____
ROOT
ATOM      1  C   UNL     1       0.202  15.246  19.875  0.00  0.00    +0.000 C 
ATOM      2  C   UNL     1       0.593  13.905  19.349  0.00  0.00    +0.000 A 
ATOM      3  C   UNL     1       1.572  13.863  18.363  0.00  0.00    +0.000 A 
ATOM      4  N   UNL     1       2.069  12.744  17.819  0.00  0.00    +0.000 NA
ATOM      5  C   UNL     1       1.590  11.605  18.318  0.00  0.00    +0.000 A 
ATOM      6  N   UNL     1       2.115  10.433  17.779  0.00  0.00    +0.000 N 
ATOM      7  N   UNL     1       0.638  11.549  19.270  0.00  0.00    +0.000 NA
ATOM      8  C   UNL     1       0.116  12.677  19.784  0.00  0.00    +0.000 A 
ATOM      9  H   UNL     1       2.786  10.649  17.056  0.00  0.00    +0.000 HD
ENDROOT
BRANCH   8  10
ATOM     10  N   UNL     1      -0.841  12.516  20.761  0.00  0.00    +0.000 N 
ATOM     11  C   UNL     1      -2.275  12.496  20.545  0.00  0.00    +0.000 C 
ATOM     12  C   UNL     1      -2.902  13.586  21.414  0.00  0.00    +0.000 C 
ATOM     13  C   UNL     1      -2.521  13.396  22.897  0.00  0.00    +0.000 C 
ATOM     14  C   UNL     1      -3.326  12.244  23.537  0.00  0.00    +0.000 C 
ATOM     15  C   UNL     1      -4.611  12.912  24.000  0.00  0.00    +0.000 C 
ATOM     16  N   UNL     1      -4.205  14.246  24.301  0.00  0.00    +0.000 N 
ATOM     17  C   UNL     1      -3.020  14.595  23.690  0.00  0.00    +0.000 C 
ATOM     18  O   UNL     1      -2.518  15.705  23.743  0.00  0.00    +0.000 OA
ATOM     19  C   UNL     1      -1.001  13.232  23.063  0.00  0.00    +0.000 C 
ATOM     20  C   UNL     1      -0.429  12.165  22.126  0.00  0.00    +0.000 C 
ATOM     21  H   UNL     1      -4.743  14.934  24.813  0.00  0.00    +0.000 HD
ENDBRANCH   8  10
BRANCH   6  22
ATOM     22  C   UNL     1       2.233   9.179  18.385  0.00  0.00    +0.000 A 
ATOM     23  C   UNL     1       2.747   8.109  17.652  0.00  0.00    +0.000 A 
ATOM     24  C   UNL     1       2.754   6.814  18.188  0.00  0.00    +0.000 A 
ATOM     25  C   UNL     1       2.265   6.541  19.477  0.00  0.00    +0.000 A 
ATOM     26  C   UNL     1       1.813   7.647  20.213  0.00  0.00    +0.000 A 
ATOM     27  F   UNL     1       1.299   7.482  21.446  0.00  0.00    +0.000 F 
ATOM     28  C   UNL     1       1.790   8.934  19.683  0.00  0.00    +0.000 A 
BRANCH  25  29
ATOM     29  N   UNL     1       2.196   5.249  19.949  0.00  0.00    +0.000 N 
ATOM     30  C   UNL     1       3.392   4.429  20.163  0.00  0.00    +0.000 C 
ATOM     31  C   UNL     1       3.164   3.037  19.553  0.00  0.00    +0.000 C 
ATOM     32  O   UNL     1       1.982   2.414  20.084  0.00  0.00    +0.000 OA
ATOM     33  C   UNL     1       0.822   3.215  19.790  0.00  0.00    +0.000 C 
ATOM     34  C   UNL     1       0.939   4.626  20.386  0.00  0.00    +0.000 C 
ENDBRANCH  25  29
ENDBRANCH   6  22
TORSDOF 3
ENDMDL
MODEL 8
REMARK VINA RESULT:      -7.4      1.708      2.336
REMARK  Name = 
REMARK  4 active torsions:
REMARK  status: ('A' for Active; 'I' for Inactive)
REMARK    1  A    between atoms: C_1  and  C_2
REMARK    2  A    between atoms: N_6  and  C_7
REMARK    3  A    between atoms: C_10  and  N_11
REMARK    4  A    between atoms: C_21  and  N_22
REMARK                            x       y       z     vdW  Elec       q    Type
REMARK                         _______ _______ _______ _____ _____    ______ ____
ROOT
ATOM      1  C   UNL     1      -0.419  14.367  19.143  0.00  0.00    +0.000 C 
ATOM      2  C   UNL     1      -0.054  12.931  19.314  0.00  0.00    +0.000 A 
ATOM      3  C   UNL     1      -1.074  11.992  19.215  0.00  0.00    +0.000 A 
ATOM      4  N   UNL     1      -0.909  10.665  19.298  0.00  0.00    +0.000 NA
ATOM      5  C   UNL     1       0.349  10.253  19.445  0.00  0.00    +0.000 A 
ATOM      6  N   UNL     1       0.538   8.875  19.508  0.00  0.00    +0.000 N 
ATOM      7  N   UNL     1       1.399  11.090  19.554  0.00  0.00    +0.000 NA
ATOM      8  C   UNL     1       1.223  12.422  19.510  0.00  0.00    +0.000 A 
ATOM      9  H   UNL     1      -0.349   8.396  19.448  0.00  0.00    +0.000 HD
ENDROOT
BRANCH   8  10
ATOM     10  N   UNL     1       2.359  13.193  19.616  0.00  0.00    +0.000 N 
ATOM     11  C   UNL     1       3.003  13.583  20.856  0.00  0.00    +0.000 C 
ATOM     12  C   UNL     1       3.086  15.109  20.888  0.00  0.00    +0.000 C 
ATOM     13  C   UNL     1       3.820  15.648  19.641  0.00  0.00    +0.000 C 
ATOM     14  C   UNL     1       5.345  15.434  19.754  0.00  0.00    +0.000 C 
ATOM     15  C   UNL     1       5.828  16.660  20.512  0.00  0.00    +0.000 C 
ATOM     16  N   UNL     1       4.902  17.677  20.129  0.00  0.00    +0.000 N 
ATOM     17  C   UNL     1       3.723  17.166  19.632  0.00  0.00    +0.000 C 
ATOM     18  O   UNL     1       2.760  17.842  19.312  0.00  0.00    +0.000 OA
ATOM     19  C   UNL     1       3.224  15.060  18.350  0.00  0.00    +0.000 C 
ATOM     20  C   UNL     1       3.117  13.534  18.406  0.00  0.00    +0.000 C 
ATOM     21  H   UNL     1       5.010  18.671  20.281  0.00  0.00    +0.000 HD
ENDBRANCH   8  10
BRANCH   6  22
ATOM     22  C   UNL     1       1.670   8.140  19.145  0.00  0.00    +0.000 A 
ATOM     23  C   UNL     1       2.316   8.423  17.942  0.00  0.00    +0.000 A 
ATOM     24  C   UNL     1       3.369   7.618  17.490  0.00  0.00    +0.000 A 
ATOM     25  C   UNL     1       3.828   6.512  18.225  0.00  0.00    +0.000 A 
ATOM     26  C   UNL     1       3.200   6.289  19.461  0.00  0.00    +0.000 A 
ATOM     27  F   UNL     1       3.550   5.237  20.224  0.00  0.00    +0.000 F 
ATOM     28  C   UNL     1       2.144   7.076  19.911  0.00  0.00    +0.000 A 
BRANCH  25  29
ATOM     29  N   UNL     1       4.802   5.679  17.720  0.00  0.00    +0.000 N 
ATOM     30  C   UNL     1       6.212   5.804  18.100  0.00  0.00    +0.000 C 
ATOM     31  C   UNL     1       7.081   5.756  16.834  0.00  0.00    +0.000 C 
ATOM     32  O   UNL     1       6.834   4.566  16.067  0.00  0.00    +0.000 OA
ATOM     33  C   UNL     1       5.455   4.518  15.652  0.00  0.00    +0.000 C 
ATOM     34  C   UNL     1       4.499   4.531  16.854  0.00  0.00    +0.000 C 
ENDBRANCH  25  29
ENDBRANCH   6  22
TORSDOF 3
ENDMDL
MODEL 9
REMARK VINA RESULT:      -7.3      2.738      4.175
REMARK  Name = 
REMARK  4 active torsions:
REMARK  status: ('A' for Active; 'I' for Inactive)
REMARK    1  A    between atoms: C_1  and  C_2
REMARK    2  A    between atoms: N_6  and  C_7
REMARK    3  A    between atoms: C_10  and  N_11
REMARK    4  A    between atoms: C_21  and  N_22
REMARK                            x       y       z     vdW  Elec       q    Type
REMARK                         _______ _______ _______ _____ _____    ______ ____
ROOT
ATOM      1  C   UNL     1      -1.192  12.330  21.496  0.00  0.00    +0.000 C 
ATOM      2  C   UNL     1      -0.415  11.059  21.410  0.00  0.00    +0.000 A 
ATOM      3  C   UNL     1      -0.965   9.929  22.002  0.00  0.00    +0.000 A 
ATOM      4  N   UNL     1      -0.421   8.704  21.976  0.00  0.00    +0.000 NA
ATOM      5  C   UNL     1       0.712   8.598  21.284  0.00  0.00    +0.000 A 
ATOM      6  N   UNL     1       1.276   7.326  21.228  0.00  0.00    +0.000 N 
ATOM      7  N   UNL     1       1.319   9.638  20.682  0.00  0.00    +0.000 NA
ATOM      8  C   UNL     1       0.788  10.872  20.745  0.00  0.00    +0.000 A 
ATOM      9  H   UNL     1       0.720   6.671  21.759  0.00  0.00    +0.000 HD
ENDROOT
BRANCH   8  10
ATOM     10  N   UNL     1       1.475  11.867  20.085  0.00  0.00    +0.000 N 
ATOM     11  C   UNL     1       2.389  12.812  20.698  0.00  0.00    +0.000 C 
ATOM     12  C   UNL     1       1.895  14.224  20.381  0.00  0.00    +0.000 C 
ATOM     13  C   UNL     1       1.758  14.431  18.858  0.00  0.00    +0.000 C 
ATOM     14  C   UNL     1       3.139  14.626  18.194  0.00  0.00    +0.000 C 
ATOM     15  C   UNL     1       3.398  16.118  18.327  0.00  0.00    +0.000 C 
ATOM     16  N   UNL     1       2.090  16.689  18.295  0.00  0.00    +0.000 N 
ATOM     17  C   UNL     1       1.102  15.779  18.602  0.00  0.00    +0.000 C 
ATOM     18  O   UNL     1      -0.080  16.057  18.709  0.00  0.00    +0.000 OA
ATOM     19  C   UNL     1       0.937  13.299  18.216  0.00  0.00    +0.000 C 
ATOM     20  C   UNL     1       1.449  11.914  18.618  0.00  0.00    +0.000 C 
ATOM     21  H   UNL     1       1.869  17.668  18.169  0.00  0.00    +0.000 HD
ENDBRANCH   8  10
BRANCH   6  22
ATOM     22  C   UNL     1       2.093   6.785  20.232  0.00  0.00    +0.000 A 
ATOM     23  C   UNL     1       2.682   5.536  20.431  0.00  0.00    +0.000 A 
ATOM     24  C   UNL     1       3.609   5.029  19.510  0.00  0.00    +0.000 A 
ATOM     25  C   UNL     1       3.970   5.738  18.352  0.00  0.00    +0.000 A 
ATOM     26  C   UNL     1       3.314   6.961  18.148  0.00  0.00    +0.000 A 
ATOM     27  F   UNL     1       3.614   7.727  17.082  0.00  0.00    +0.000 F 
ATOM     28  C   UNL     1       2.403   7.479  19.063  0.00  0.00    +0.000 A 
BRANCH  25  29
ATOM     29  N   UNL     1       4.950   5.264  17.508  0.00  0.00    +0.000 N 
ATOM     30  C   UNL     1       6.378   5.406  17.808  0.00  0.00    +0.000 C 
ATOM     31  C   UNL     1       7.106   5.921  16.557  0.00  0.00    +0.000 C 
ATOM     32  O   UNL     1       6.877   5.068  15.422  0.00  0.00    +0.000 OA
ATOM     33  C   UNL     1       5.471   5.013  15.117  0.00  0.00    +0.000 C 
ATOM     34  C   UNL     1       4.652   4.479  16.301  0.00  0.00    +0.000 C 
ENDBRANCH  25  29
ENDBRANCH   6  22
TORSDOF 3
ENDMDL
