MODEL 1
REMARK VINA RESULT:      -7.8      0.000      0.000
REMARK  Name = 
REMARK  9 active torsions:
REMARK  status: ('A' for Active; 'I' for Inactive)
REMARK    1  A    between atoms: C_1  and  C_2
REMARK    2  A    between atoms: C_2  and  C_3
REMARK    3  A    between atoms: C_3  and  C_4
REMARK    4  A    between atoms: C_4  and  C_5
REMARK    5  A    between atoms: C_4  and  N_6
REMARK    6  A    between atoms: C_7  and  C_8
REMARK    7  A    between atoms: C_8  and  C_9
REMARK    8  A    between atoms: C_12  and  C_13
REMARK    9  A    between atoms: C_19  and  C_20
REMARK                            x       y       z     vdW  Elec       q    Type
REMARK                         _______ _______ _______ _____ _____    ______ ____
ROOT
ATOM      1  N   UNL     1       3.237   5.089  19.413  0.00  0.00    +0.000 N 
ATOM      2  C   UNL     1       2.454   4.973  20.547  0.00  0.00    +0.000 A 
ATOM      3  N   UNL     1       1.839   6.114  20.806  0.00  0.00    +0.000 NA
ATOM      4  C   UNL     1       2.172   6.981  19.788  0.00  0.00    +0.000 A 
ATOM      5  C   UNL     1       1.769   8.312  19.507  0.00  0.00    +0.000 A 
ATOM      6  C   UNL     1       2.262   8.833  18.295  0.00  0.00    +0.000 A 
ATOM      7  C   UNL     1       3.167   8.111  17.527  0.00  0.00    +0.000 A 
ATOM      8  N   UNL     1       3.610   6.873  17.804  0.00  0.00    +0.000 NA
ATOM      9  C   UNL     1       3.053   6.358  18.915  0.00  0.00    +0.000 A 
ENDROOT
BRANCH   5  10
ATOM     10  C   UNL     1       0.883   9.056  20.436  0.00  0.00    +0.000 A 
ATOM     11  C   UNL     1       1.060   8.937  21.830  0.00  0.00    +0.000 A 
ATOM     12  C   UNL     1       0.298   9.680  22.730  0.00  0.00    +0.000 A 
ATOM     13  C   UNL     1      -0.659  10.521  22.212  0.00  0.00    +0.000 A 
ATOM     14 CL   UNL     1      -1.628  11.502  23.230  0.00  0.00    +0.000 Cl
ATOM     15  N   UNL     1      -0.907  10.659  20.899  0.00  0.00    +0.000 NA
ATOM     16  C   UNL     1      -0.137   9.947  20.029  0.00  0.00    +0.000 A 
ATOM     17  C   UNL     1      -0.472  10.227  18.590  0.00  0.00    +0.000 C 
ENDBRANCH   5  10
BRANCH   1  18
ATOM     18  C   UNL     1       4.129   4.089  18.821  0.00  0.00    +0.000 C 
ATOM     19  C   UNL     1       5.559   4.633  18.722  0.00  0.00    +0.000 C 
BRANCH  18  20
ATOM     20  C   UNL     1       3.592   3.570  17.466  0.00  0.00    +0.000 C 
BRANCH  20  22
ATOM     21  C   UNL     1       3.503   1.310  18.580  0.00  0.00    +0.000 C 
ATOM     22  C   UNL     1       2.844   2.240  17.568  0.00  0.00    +0.000 C 
ENDBRANCH  20  22
ENDBRANCH  18  20
ENDBRANCH   1  18
BRANCH   2  23
ATOM     23  C   UNL     1       2.283   3.735  21.371  0.00  0.00    +0.000 C 
ATOM     24  C   UNL     1       1.085   2.911  20.923  0.00  0.00    +0.000 C 
ENDBRANCH   2  23
TORSDOF 5
ENDMDL
MODEL 2
REMARK VINA RESULT:      -7.6      2.627      4.381
REMARK  Name = 
REMARK  9 active torsions:
REMARK  status: ('A' for Active; 'I' for Inactive)
REMARK    1  A    between atoms: C_1  and  C_2
REMARK    2  A    between atoms: C_2  and  C_3
REMARK    3  A    between atoms: C_3  and  C_4
REMARK    4  A    between atoms: C_4  and  C_5
REMARK    5  A    between atoms: C_4  and  N_6
REMARK    6  A    between atoms: C_7  and  C_8
REMARK    7  A    between atoms: C_8  and  C_9
REMARK    8  A    between atoms: C_12  and  C_13
REMARK    9  A    between atoms: C_19  and  C_20
REMARK                            x       y       z     vdW  Elec       q    Type
REMARK                         _______ _______ _______ _____ _____    ______ ____
ROOT
ATOM      1  N   UNL     1       5.737   5.447  17.000  0.00  0.00    +0.000 N 
ATOM      2  C   UNL     1       6.044   6.767  17.273  0.00  0.00    +0.000 A 
ATOM      3  N   UNL     1       4.975   7.415  17.701  0.00  0.00    +0.000 NA
ATOM      4  C   UNL     1       3.956   6.490  17.772  0.00  0.00    +0.000 A 
ATOM      5  C   UNL     1       2.611   6.593  18.212  0.00  0.00    +0.000 A 
ATOM      6  C   UNL     1       1.901   5.377  18.224  0.00  0.00    +0.000 A 
ATOM      7  C   UNL     1       2.472   4.215  17.719  0.00  0.00    +0.000 A 
ATOM      8  N   UNL     1       3.723   4.107  17.240  0.00  0.00    +0.000 NA
ATOM      9  C   UNL     1       4.414   5.257  17.327  0.00  0.00    +0.000 A 
ENDROOT
BRANCH   5  10
ATOM     10  C   UNL     1       2.041   7.896  18.635  0.00  0.00    +0.000 A 
ATOM     11  C   UNL     1       1.908   8.945  17.702  0.00  0.00    +0.000 A 
ATOM     12  C   UNL     1       1.306  10.156  18.044  0.00  0.00    +0.000 A 
ATOM     13  C   UNL     1       0.867  10.305  19.339  0.00  0.00    +0.000 A 
ATOM     14 CL   UNL     1       0.086  11.741  19.853  0.00  0.00    +0.000 Cl
ATOM     15  N   UNL     1       0.992   9.364  20.288  0.00  0.00    +0.000 NA
ATOM     16  C   UNL     1       1.559   8.175  19.934  0.00  0.00    +0.000 A 
ATOM     17  C   UNL     1       1.593   7.185  21.065  0.00  0.00    +0.000 C 
ENDBRANCH   5  10
BRANCH   1  18
ATOM     18  C   UNL     1       6.609   4.408  16.446  0.00  0.00    +0.000 C 
ATOM     19  C   UNL     1       7.888   4.276  17.281  0.00  0.00    +0.000 C 
BRANCH  18  20
ATOM     20  C   UNL     1       6.897   4.641  14.944  0.00  0.00    +0.000 C 
BRANCH  20  22
ATOM     21  C   UNL     1       6.246   3.534  12.774  0.00  0.00    +0.000 C 
ATOM     22  C   UNL     1       5.741   4.243  14.025  0.00  0.00    +0.000 C 
ENDBRANCH  20  22
ENDBRANCH  18  20
ENDBRANCH   1  18
BRANCH   2  23
ATOM     23  C   UNL     1       7.396   7.397  17.142  0.00  0.00    +0.000 C 
ATOM     24  C   UNL     1       8.101   7.524  18.484  0.00  0.00    +0.000 C 
ENDBRANCH   2  23
TORSDOF 5
ENDMDL
MODEL 3
REMARK VINA RESULT:      -7.4      0.774      1.251
REMARK  Name = 
REMARK  9 active torsions:
REMARK  status: ('A' for Active; 'I' for Inactive)
REMARK    1  A    between atoms: C_1  and  C_2
REMARK    2  A    between atoms: C_2  and  C_3
REMARK    3  A    between atoms: C_3  and  C_4
REMARK    4  A    between atoms: C_4  and  C_5
REMARK    5  A    between atoms: C_4  and  N_6
REMARK    6  A    between atoms: C_7  and  C_8
REMARK    7  A    between atoms: C_8  and  C_9
REMARK    8  A    between atoms: C_12  and  C_13
REMARK    9  A    between atoms: C_19  and  C_20
REMARK                            x       y       z     vdW  Elec       q    Type
REMARK                         _______ _______ _______ _____ _____    ______ ____
ROOT
ATOM      1  N   UNL     1       3.235   5.079  19.296  0.00  0.00    +0.000 N 
ATOM      2  C   UNL     1       2.443   4.946  20.422  0.00  0.00    +0.000 A 
ATOM      3  N   UNL     1       1.838   6.087  20.703  0.00  0.00    +0.000 NA
ATOM      4  C   UNL     1       2.187   6.973  19.708  0.00  0.00    +0.000 A 
ATOM      5  C   UNL     1       1.801   8.314  19.455  0.00  0.00    +0.000 A 
ATOM      6  C   UNL     1       2.307   8.858  18.258  0.00  0.00    +0.000 A 
ATOM      7  C   UNL     1       3.210   8.144  17.480  0.00  0.00    +0.000 A 
ATOM      8  N   UNL     1       3.639   6.896  17.732  0.00  0.00    +0.000 NA
ATOM      9  C   UNL     1       3.068   6.361  18.826  0.00  0.00    +0.000 A 
ENDROOT
BRANCH   5  10
ATOM     10  C   UNL     1       0.916   9.047  20.394  0.00  0.00    +0.000 A 
ATOM     11  C   UNL     1       1.100   8.916  21.787  0.00  0.00    +0.000 A 
ATOM     12  C   UNL     1       0.339   9.647  22.697  0.00  0.00    +0.000 A 
ATOM     13  C   UNL     1      -0.623  10.489  22.191  0.00  0.00    +0.000 A 
ATOM     14 CL   UNL     1      -1.591  11.457  23.222  0.00  0.00    +0.000 Cl
ATOM     15  N   UNL     1      -0.878  10.638  20.881  0.00  0.00    +0.000 NA
ATOM     16  C   UNL     1      -0.110   9.937  20.000  0.00  0.00    +0.000 A 
ATOM     17  C   UNL     1      -0.452  10.228  18.566  0.00  0.00    +0.000 C 
ENDBRANCH   5  10
BRANCH   1  18
ATOM     18  C   UNL     1       4.121   4.084  18.687  0.00  0.00    +0.000 C 
ATOM     19  C   UNL     1       5.579   4.346  19.081  0.00  0.00    +0.000 C 
BRANCH  18  20
ATOM     20  C   UNL     1       3.922   3.998  17.155  0.00  0.00    +0.000 C 
BRANCH  20  22
ATOM     21  C   UNL     1       5.337   4.872  15.261  0.00  0.00    +0.000 C 
ATOM     22  C   UNL     1       5.225   3.834  16.371  0.00  0.00    +0.000 C 
ENDBRANCH  20  22
ENDBRANCH  18  20
ENDBRANCH   1  18
BRANCH   2  23
ATOM     23  C   UNL     1       2.253   3.691  21.216  0.00  0.00    +0.000 C 
ATOM     24  C   UNL     1       1.146   2.816  20.646  0.00  0.00    +0.000 C 
ENDBRANCH   2  23
TORSDOF 5
ENDMDL
MODEL 4
REMARK VINA RESULT:      -7.1      0.643      1.618
REMARK  Name = 
REMARK  9 active torsions:
REMARK  status: ('A' for Active; 'I' for Inactive)
REMARK    1  A    between atoms: C_1  and  C_2
REMARK    2  A    between atoms: C_2  and  C_3
REMARK    3  A    between atoms: C_3  and  C_4
REMARK    4  A    between atoms: C_4  and  C_5
REMARK    5  A    between atoms: C_4  and  N_6
REMARK    6  A    between atoms: C_7  and  C_8
REMARK    7  A    between atoms: C_8  and  C_9
REMARK    8  A    between atoms: C_12  and  C_13
REMARK    9  A    between atoms: C_19  and  C_20
REMARK                            x       y       z     vdW  Elec       q    Type
REMARK                         _______ _______ _______ _____ _____    ______ ____
ROOT
ATOM      1  N   UNL     1       2.693   4.745  18.846  0.00  0.00    +0.000 N 
ATOM      2  C   UNL     1       1.810   4.621  19.904  0.00  0.00    +0.000 A 
ATOM      3  N   UNL     1       1.383   5.809  20.296  0.00  0.00    +0.000 NA
ATOM      4  C   UNL     1       1.946   6.731  19.441  0.00  0.00    +0.000 A 
ATOM      5  C   UNL     1       1.807   8.139  19.341  0.00  0.00    +0.000 A 
ATOM      6  C   UNL     1       2.482   8.723  18.251  0.00  0.00    +0.000 A 
ATOM      7  C   UNL     1       3.308   7.959  17.435  0.00  0.00    +0.000 A 
ATOM      8  N   UNL     1       3.504   6.634  17.548  0.00  0.00    +0.000 NA
ATOM      9  C   UNL     1       2.775   6.083  18.535  0.00  0.00    +0.000 A 
ENDROOT
BRANCH   5  10
ATOM     10  C   UNL     1       0.990   8.900  20.319  0.00  0.00    +0.000 A 
ATOM     11  C   UNL     1       1.218   8.744  21.702  0.00  0.00    +0.000 A 
ATOM     12  C   UNL     1       0.523   9.498  22.647  0.00  0.00    +0.000 A 
ATOM     13  C   UNL     1      -0.417  10.388  22.184  0.00  0.00    +0.000 A 
ATOM     14 CL   UNL     1      -1.303  11.386  23.260  0.00  0.00    +0.000 Cl
ATOM     15  N   UNL     1      -0.712  10.564  20.886  0.00  0.00    +0.000 NA
ATOM     16  C   UNL     1      -0.008   9.839  19.971  0.00  0.00    +0.000 A 
ATOM     17  C   UNL     1      -0.388  10.163  18.553  0.00  0.00    +0.000 C 
ENDBRANCH   5  10
BRANCH   1  18
ATOM     18  C   UNL     1       3.443   3.689  18.162  0.00  0.00    +0.000 C 
ATOM     19  C   UNL     1       2.523   2.515  17.810  0.00  0.00    +0.000 C 
BRANCH  18  20
ATOM     20  C   UNL     1       4.688   3.253  18.971  0.00  0.00    +0.000 C 
BRANCH  20  22
ATOM     21  C   UNL     1       6.556   4.684  18.066  0.00  0.00    +0.000 C 
ATOM     22  C   UNL     1       5.663   4.393  19.266  0.00  0.00    +0.000 C 
ENDBRANCH  20  22
ENDBRANCH  18  20
ENDBRANCH   1  18
BRANCH   2  23
ATOM     23  C   UNL     1       1.357   3.334  20.521  0.00  0.00    +0.000 C 
ATOM     24  C   UNL     1       2.228   2.928  21.700  0.00  0.00    +0.000 C 
ENDBRANCH   2  23
TORSDOF 5
ENDMDL
MODEL 5
REMARK VINA RESULT:      -7.0      3.764      7.680
REMARK  Name = 
REMARK  9 active torsions:
REMARK  status: ('A' for Active; 'I' for Inactive)
REMARK    1  A    between atoms: C_1  and  C_2
REMARK    2  A    between atoms: C_2  and  C_3
REMARK    3  A    between atoms: C_3  and  C_4
REMARK    4  A    between atoms: C_4  and  C_5
REMARK    5  A    between atoms: C_4  and  N_6
REMARK    6  A    between atoms: C_7  and  C_8
REMARK    7  A    between atoms: C_8  and  C_9
REMARK    8  A    between atoms: C_12  and  C_13
REMARK    9  A    between atoms: C_19  and  C_20
REMARK                            x       y       z     vdW  Elec       q    Type
REMARK                         _______ _______ _______ _____ _____    ______ ____
ROOT
ATOM      1  N   UNL     1       2.474   6.852  19.652  0.00  0.00    +0.000 N 
ATOM      2  C   UNL     1       2.765   7.633  18.548  0.00  0.00    +0.000 A 
ATOM      3  N   UNL     1       3.631   7.021  17.760  0.00  0.00    +0.000 NA
ATOM      4  C   UNL     1       3.869   5.785  18.321  0.00  0.00    +0.000 A 
ATOM      5  C   UNL     1       4.657   4.686  17.894  0.00  0.00    +0.000 A 
ATOM      6  C   UNL     1       4.562   3.540  18.708  0.00  0.00    +0.000 A 
ATOM      7  C   UNL     1       3.838   3.569  19.893  0.00  0.00    +0.000 A 
ATOM      8  N   UNL     1       3.133   4.618  20.350  0.00  0.00    +0.000 NA
ATOM      9  C   UNL     1       3.160   5.668  19.509  0.00  0.00    +0.000 A 
ENDROOT
BRANCH   5  10
ATOM     10  C   UNL     1       5.491   4.771  16.669  0.00  0.00    +0.000 A 
ATOM     11  C   UNL     1       5.057   4.158  15.475  0.00  0.00    +0.000 A 
ATOM     12  C   UNL     1       5.776   4.283  14.286  0.00  0.00    +0.000 A 
ATOM     13  C   UNL     1       6.944   5.007  14.322  0.00  0.00    +0.000 A 
ATOM     14 CL   UNL     1       7.885   5.247  12.910  0.00  0.00    +0.000 Cl
ATOM     15  N   UNL     1       7.436   5.587  15.428  0.00  0.00    +0.000 NA
ATOM     16  C   UNL     1       6.711   5.480  16.578  0.00  0.00    +0.000 A 
ATOM     17  C   UNL     1       7.334   6.216  17.732  0.00  0.00    +0.000 C 
ENDBRANCH   5  10
BRANCH   1  18
ATOM     18  C   UNL     1       1.621   7.180  20.796  0.00  0.00    +0.000 C 
ATOM     19  C   UNL     1       0.217   6.594  20.609  0.00  0.00    +0.000 C 
BRANCH  18  20
ATOM     20  C   UNL     1       1.601   8.701  21.080  0.00  0.00    +0.000 C 
BRANCH  20  22
ATOM     21  C   UNL     1       0.092   9.504  22.934  0.00  0.00    +0.000 C 
ATOM     22  C   UNL     1       0.216   9.245  21.437  0.00  0.00    +0.000 C 
ENDBRANCH  20  22
ENDBRANCH  18  20
ENDBRANCH   1  18
BRANCH   2  23
ATOM     23  C   UNL     1       2.176   8.976  18.245  0.00  0.00    +0.000 C 
ATOM     24  C   UNL     1       0.845   8.864  17.518  0.00  0.00    +0.000 C 
ENDBRANCH   2  23
TORSDOF 5
ENDMDL
MODEL 6
REMARK VINA RESULT:      -6.9      2.566      4.066
REMARK  Name = 
REMARK  9 active torsions:
REMARK  status: ('A' for Active; 'I' for Inactive)
REMARK    1  A    between atoms: C_1  and  C_2
REMARK    2  A    between atoms: C_2  and  C_3
REMARK    3  A    between atoms: C_3  and  C_4
REMARK    4  A    between atoms: C_4  and  C_5
REMARK    5  A    between atoms: C_4  and  N_6
REMARK    6  A    between atoms: C_7  and  C_8
REMARK    7  A    between atoms: C_8  and  C_9
REMARK    8  A    between atoms: C_12  and  C_13
REMARK    9  A    between atoms: C_19  and  C_20
REMARK                            x       y       z     vdW  Elec       q    Type
REMARK                         _______ _______ _______ _____ _____    ______ ____
ROOT
ATOM      1  N   UNL     1       5.087   5.186  16.810  0.00  0.00    +0.000 N 
ATOM      2  C   UNL     1       5.457   6.461  17.202  0.00  0.00    +0.000 A 
ATOM      3  N   UNL     1       4.504   7.018  17.929  0.00  0.00    +0.000 NA
ATOM      4  C   UNL     1       3.513   6.071  18.073  0.00  0.00    +0.000 A 
ATOM      5  C   UNL     1       2.289   6.082  18.790  0.00  0.00    +0.000 A 
ATOM      6  C   UNL     1       1.585   4.862  18.772  0.00  0.00    +0.000 A 
ATOM      7  C   UNL     1       2.029   3.797  17.998  0.00  0.00    +0.000 A 
ATOM      8  N   UNL     1       3.153   3.784  17.262  0.00  0.00    +0.000 NA
ATOM      9  C   UNL     1       3.859   4.925  17.371  0.00  0.00    +0.000 A 
ENDROOT
BRANCH   5  10
ATOM     10  C   UNL     1       1.830   7.299  19.504  0.00  0.00    +0.000 A 
ATOM     11  C   UNL     1       1.661   7.275  20.905  0.00  0.00    +0.000 A 
ATOM     12  C   UNL     1       1.306   8.419  21.618  0.00  0.00    +0.000 A 
ATOM     13  C   UNL     1       1.099   9.576  20.904  0.00  0.00    +0.000 A 
ATOM     14 CL   UNL     1       0.690  11.044  21.687  0.00  0.00    +0.000 Cl
ATOM     15  N   UNL     1       1.207   9.664  19.568  0.00  0.00    +0.000 NA
ATOM     16  C   UNL     1       1.580   8.545  18.886  0.00  0.00    +0.000 A 
ATOM     17  C   UNL     1       1.721   8.783  17.408  0.00  0.00    +0.000 C 
ENDBRANCH   5  10
BRANCH   1  18
ATOM     18  C   UNL     1       5.817   4.256  15.945  0.00  0.00    +0.000 C 
ATOM     19  C   UNL     1       7.314   4.274  16.275  0.00  0.00    +0.000 C 
BRANCH  18  20
ATOM     20  C   UNL     1       5.531   4.520  14.448  0.00  0.00    +0.000 C 
BRANCH  20  22
ATOM     21  C   UNL     1       5.760   3.306  12.250  0.00  0.00    +0.000 C 
ATOM     22  C   UNL     1       6.485   3.792  13.499  0.00  0.00    +0.000 C 
ENDBRANCH  20  22
ENDBRANCH  18  20
ENDBRANCH   1  18
BRANCH   2  23
ATOM     23  C   UNL     1       6.758   7.131  16.889  0.00  0.00    +0.000 C 
ATOM     24  C   UNL     1       7.676   7.193  18.101  0.00  0.00    +0.000 C 
ENDBRANCH   2  23
TORSDOF 5
ENDMDL
MODEL 7
REMARK VINA RESULT:      -6.9      4.126      6.254
REMARK  Name = 
REMARK  9 active torsions:
REMARK  status: ('A' for Active; 'I' for Inactive)
REMARK    1  A    between atoms: C_1  and  C_2
REMARK    2  A    between atoms: C_2  and  C_3
REMARK    3  A    between atoms: C_3  and  C_4
REMARK    4  A    between atoms: C_4  and  C_5
REMARK    5  A    between atoms: C_4  and  N_6
REMARK    6  A    between atoms: C_7  and  C_8
REMARK    7  A    between atoms: C_8  and  C_9
REMARK    8  A    between atoms: C_12  and  C_13
REMARK    9  A    between atoms: C_19  and  C_20
REMARK                            x       y       z     vdW  Elec       q    Type
REMARK                         _______ _______ _______ _____ _____    ______ ____
ROOT
ATOM      1  N   UNL     1       3.326   4.344  17.774  0.00  0.00    +0.000 N 
ATOM      2  C   UNL     1       3.339   5.360  18.713  0.00  0.00    +0.000 A 
ATOM      3  N   UNL     1       4.471   6.040  18.646  0.00  0.00    +0.000 NA
ATOM      4  C   UNL     1       5.192   5.503  17.601  0.00  0.00    +0.000 A 
ATOM      5  C   UNL     1       6.442   5.859  17.031  0.00  0.00    +0.000 A 
ATOM      6  C   UNL     1       6.801   5.116  15.889  0.00  0.00    +0.000 A 
ATOM      7  C   UNL     1       6.022   4.047  15.463  0.00  0.00    +0.000 A 
ATOM      8  N   UNL     1       4.866   3.653  16.024  0.00  0.00    +0.000 NA
ATOM      9  C   UNL     1       4.494   4.436  17.053  0.00  0.00    +0.000 A 
ENDROOT
BRANCH   5  10
ATOM     10  C   UNL     1       7.267   6.946  17.613  0.00  0.00    +0.000 A 
ATOM     11  C   UNL     1       7.243   8.235  17.042  0.00  0.00    +0.000 A 
ATOM     12  C   UNL     1       7.945   9.299  17.606  0.00  0.00    +0.000 A 
ATOM     13  C   UNL     1       8.691   9.042  18.733  0.00  0.00    +0.000 A 
ATOM     14 CL   UNL     1       9.566  10.286  19.523  0.00  0.00    +0.000 Cl
ATOM     15  N   UNL     1       8.789   7.834  19.310  0.00  0.00    +0.000 NA
ATOM     16  C   UNL     1       8.077   6.809  18.763  0.00  0.00    +0.000 A 
ATOM     17  C   UNL     1       8.225   5.523  19.528  0.00  0.00    +0.000 C 
ENDBRANCH   5  10
BRANCH   1  18
ATOM     18  C   UNL     1       2.299   3.322  17.558  0.00  0.00    +0.000 C 
ATOM     19  C   UNL     1       0.918   3.969  17.404  0.00  0.00    +0.000 C 
BRANCH  18  20
ATOM     20  C   UNL     1       2.331   2.234  18.658  0.00  0.00    +0.000 C 
BRANCH  20  22
ATOM     21  C   UNL     1       4.470   2.003  19.974  0.00  0.00    +0.000 C 
ATOM     22  C   UNL     1       3.674   1.510  18.772  0.00  0.00    +0.000 C 
ENDBRANCH  20  22
ENDBRANCH  18  20
ENDBRANCH   1  18
BRANCH   2  23
ATOM     23  C   UNL     1       2.232   5.688  19.665  0.00  0.00    +0.000 C 
ATOM     24  C   UNL     1       2.310   4.862  20.940  0.00  0.00    +0.000 C 
ENDBRANCH   2  23
TORSDOF 5
ENDMDL
MODEL 8
REMARK VINA RESULT:      -6.8      0.868      1.345
REMARK  Name = 
REMARK  9 active torsions:
REMARK  status: ('A' for Active; 'I' for Inactive)
REMARK    1  A    between atoms: C_1  and  C_2
REMARK    2  A    between atoms: C_2  and  C_3
REMARK    3  A    between atoms: C_3  and  C_4
REMARK    4  A    between atoms: C_4  and  C_5
REMARK    5  A    between atoms: C_4  and  N_6
REMARK    6  A    between atoms: C_7  and  C_8
REMARK    7  A    between atoms: C_8  and  C_9
REMARK    8  A    between atoms: C_12  and  C_13
REMARK    9  A    between atoms: C_19  and  C_20
REMARK                            x       y       z     vdW  Elec       q    Type
REMARK                         _______ _______ _______ _____ _____    ______ ____
ROOT
ATOM      1  N   UNL     1       2.687   4.649  18.948  0.00  0.00    +0.000 N 
ATOM      2  C   UNL     1       1.771   4.560  19.980  0.00  0.00    +0.000 A 
ATOM      3  N   UNL     1       1.363   5.762  20.347  0.00  0.00    +0.000 NA
ATOM      4  C   UNL     1       1.974   6.660  19.498  0.00  0.00    +0.000 A 
ATOM      5  C   UNL     1       1.873   8.070  19.378  0.00  0.00    +0.000 A 
ATOM      6  C   UNL     1       2.594   8.623  18.302  0.00  0.00    +0.000 A 
ATOM      7  C   UNL     1       3.424   7.830  17.520  0.00  0.00    +0.000 A 
ATOM      8  N   UNL     1       3.583   6.502  17.654  0.00  0.00    +0.000 NA
ATOM      9  C   UNL     1       2.812   5.981  18.625  0.00  0.00    +0.000 A 
ENDROOT
BRANCH   5  10
ATOM     10  C   UNL     1       1.048   8.862  20.323  0.00  0.00    +0.000 A 
ATOM     11  C   UNL     1       1.245   8.733  21.714  0.00  0.00    +0.000 A 
ATOM     12  C   UNL     1       0.542   9.516  22.629  0.00  0.00    +0.000 A 
ATOM     13  C   UNL     1      -0.377  10.409  22.128  0.00  0.00    +0.000 A 
ATOM     14 CL   UNL     1      -1.270  11.441  23.164  0.00  0.00    +0.000 Cl
ATOM     15  N   UNL     1      -0.642  10.561  20.821  0.00  0.00    +0.000 NA
ATOM     16  C   UNL     1       0.070   9.807  19.936  0.00  0.00    +0.000 A 
ATOM     17  C   UNL     1      -0.276  10.106  18.504  0.00  0.00    +0.000 C 
ENDBRANCH   5  10
BRANCH   1  18
ATOM     18  C   UNL     1       3.430   3.567  18.298  0.00  0.00    +0.000 C 
ATOM     19  C   UNL     1       2.478   2.452  17.851  0.00  0.00    +0.000 C 
BRANCH  18  20
ATOM     20  C   UNL     1       4.584   3.048  19.188  0.00  0.00    +0.000 C 
BRANCH  20  22
ATOM     21  C   UNL     1       5.139   1.349  20.966  0.00  0.00    +0.000 C 
ATOM     22  C   UNL     1       4.400   1.604  19.658  0.00  0.00    +0.000 C 
ENDBRANCH  20  22
ENDBRANCH  18  20
ENDBRANCH   1  18
BRANCH   2  23
ATOM     23  C   UNL     1       1.268   3.292  20.598  0.00  0.00    +0.000 C 
ATOM     24  C   UNL     1       1.958   2.987  21.919  0.00  0.00    +0.000 C 
ENDBRANCH   2  23
TORSDOF 5
ENDMDL
MODEL 9
REMARK VINA RESULT:      -6.6      3.393      7.526
REMARK  Name = 
REMARK  9 active torsions:
REMARK  status: ('A' for Active; 'I' for Inactive)
REMARK    1  A    between atoms: C_1  and  C_2
REMARK    2  A    between atoms: C_2  and  C_3
REMARK    3  A    between atoms: C_3  and  C_4
REMARK    4  A    between atoms: C_4  and  C_5
REMARK    5  A    between atoms: C_4  and  N_6
REMARK    6  A    between atoms: C_7  and  C_8
REMARK    7  A    between atoms: C_8  and  C_9
REMARK    8  A    between atoms: C_12  and  C_13
REMARK    9  A    between atoms: C_19  and  C_20
REMARK                            x       y       z     vdW  Elec       q    Type
REMARK                         _______ _______ _______ _____ _____    ______ ____
ROOT
ATOM      1  N   UNL     1       1.729   7.226  20.357  0.00  0.00    +0.000 N 
ATOM      2  C   UNL     1       2.197   7.948  19.273  0.00  0.00    +0.000 A 
ATOM      3  N   UNL     1       3.053   7.228  18.569  0.00  0.00    +0.000 NA
ATOM      4  C   UNL     1       3.104   5.985  19.163  0.00  0.00    +0.000 A 
ATOM      5  C   UNL     1       3.799   4.798  18.818  0.00  0.00    +0.000 A 
ATOM      6  C   UNL     1       3.509   3.687  19.635  0.00  0.00    +0.000 A 
ATOM      7  C   UNL     1       2.696   3.820  20.753  0.00  0.00    +0.000 A 
ATOM      8  N   UNL     1       2.075   4.950  21.135  0.00  0.00    +0.000 NA
ATOM      9  C   UNL     1       2.289   5.972  20.287  0.00  0.00    +0.000 A 
ENDROOT
BRANCH   5  10
ATOM     10  C   UNL     1       4.737   4.765  17.669  0.00  0.00    +0.000 A 
ATOM     11  C   UNL     1       4.278   4.377  16.393  0.00  0.00    +0.000 A 
ATOM     12  C   UNL     1       5.111   4.409  15.275  0.00  0.00    +0.000 A 
ATOM     13  C   UNL     1       6.414   4.809  15.463  0.00  0.00    +0.000 A 
ATOM     14 CL   UNL     1       7.511   4.914  14.151  0.00  0.00    +0.000 Cl
ATOM     15  N   UNL     1       6.928   5.158  16.654  0.00  0.00    +0.000 NA
ATOM     16  C   UNL     1       6.096   5.148  17.733  0.00  0.00    +0.000 A 
ATOM     17  C   UNL     1       6.772   5.609  18.995  0.00  0.00    +0.000 C 
ENDBRANCH   5  10
BRANCH   1  18
ATOM     18  C   UNL     1       0.824   7.671  21.419  0.00  0.00    +0.000 C 
ATOM     19  C   UNL     1      -0.613   7.775  20.896  0.00  0.00    +0.000 C 
BRANCH  18  20
ATOM     20  C   UNL     1       1.315   8.979  22.083  0.00  0.00    +0.000 C 
BRANCH  20  22
ATOM     21  C   UNL     1      -0.352  10.826  22.487  0.00  0.00    +0.000 C 
ATOM     22  C   UNL     1       0.315   9.585  23.068  0.00  0.00    +0.000 C 
ENDBRANCH  20  22
ENDBRANCH  18  20
ENDBRANCH   1  18
BRANCH   2  23
ATOM     23  C   UNL     1       1.787   9.340  18.904  0.00  0.00    +0.000 C 
ATOM     24  C   UNL     1       0.694   9.353  17.847  0.00  0.00    +0.000 C 
ENDBRANCH   2  23
TORSDOF 5
ENDMDL
