MODEL 1
REMARK VINA RESULT:      -8.0      0.000      0.000
REMARK  Name = 
REMARK  8 active torsions:
REMARK  status: ('A' for Active; 'I' for Inactive)
REMARK    1  A    between atoms: C_1  and  C_2
REMARK    2  A    between atoms: C_5  and  C_6
REMARK    3  A    between atoms: C_13  and  N_14
REMARK    4  A    between atoms: N_14  and  S_15
REMARK    5  A    between atoms: S_15  and  C_18
REMARK    6  A    between atoms: C_18  and  C_19
REMARK    7  A    between atoms: C_18  and  C_20
REMARK    8  A    between atoms: C_22  and  C_23
REMARK                            x       y       z     vdW  Elec       q    Type
REMARK                         _______ _______ _______ _____ _____    ______ ____
ROOT
ATOM      1  C   UNL     1       4.339   5.402  17.697  0.00  0.00    +0.000 A 
ATOM      2  C   UNL     1       4.246   4.418  18.713  0.00  0.00    +0.000 A 
ATOM      3  C   UNL     1       3.324   4.501  19.768  0.00  0.00    +0.000 A 
ATOM      4  C   UNL     1       2.558   5.640  19.878  0.00  0.00    +0.000 A 
ATOM      5  C   UNL     1       2.671   6.652  18.930  0.00  0.00    +0.000 A 
ATOM      6  C   UNL     1       3.508   6.533  17.831  0.00  0.00    +0.000 A 
ATOM      7  C   UNL     1       1.812   7.824  19.290  0.00  0.00    +0.000 C 
ATOM      8  C   UNL     1       1.582   7.557  20.791  0.00  0.00    +0.000 C 
ATOM      9  C   UNL     1       1.566   6.019  20.936  0.00  0.00    +0.000 C 
ENDROOT
BRANCH   1  14
ATOM     10  C   UNL     1       7.954   4.934  13.200  0.00  0.00    +0.000 C 
ATOM     11  C   UNL     1       7.003   5.023  14.353  0.00  0.00    +0.000 A 
ATOM     12  C   UNL     1       5.789   4.367  14.338  0.00  0.00    +0.000 A 
ATOM     13  C   UNL     1       4.941   4.517  15.433  0.00  0.00    +0.000 A 
ATOM     14  C   UNL     1       5.296   5.298  16.557  0.00  0.00    +0.000 A 
ATOM     15  C   UNL     1       6.566   5.900  16.484  0.00  0.00    +0.000 A 
ATOM     16  C   UNL     1       7.181   6.749  17.558  0.00  0.00    +0.000 C 
ATOM     17  N   UNL     1       7.390   5.781  15.399  0.00  0.00    +0.000 NA
ENDBRANCH   1  14
BRANCH   8  18
ATOM     18  N   UNL     1       0.337   8.189  21.335  0.00  0.00    +0.000 NA
ATOM     19  H   UNL     1      -0.189   7.483  21.856  0.00  0.00    +0.000 HD
BRANCH  18  20
ATOM     20  S   UNL     1       0.657   9.522  22.335  0.00  0.00    +0.000 S 
ATOM     21  O   UNL     1      -0.318   9.460  23.403  0.00  0.00    +0.000 OA
ATOM     22  O   UNL     1       2.075   9.538  22.613  0.00  0.00    +0.000 OA
BRANCH  20  23
ATOM     23  C   UNL     1       0.276  10.948  21.292  0.00  0.00    +0.000 C 
ATOM     24  C   UNL     1      -0.546  10.561  20.068  0.00  0.00    +0.000 C 
ATOM     25  C   UNL     1      -0.478  11.983  22.131  0.00  0.00    +0.000 C 
ENDBRANCH  20  23
ENDBRANCH  18  20
ENDBRANCH   8  18
TORSDOF 4
ENDMDL
MODEL 2
REMARK VINA RESULT:      -7.7      1.039      1.335
REMARK  Name = 
REMARK  8 active torsions:
REMARK  status: ('A' for Active; 'I' for Inactive)
REMARK    1  A    between atoms: C_1  and  C_2
REMARK    2  A    between atoms: C_5  and  C_6
REMARK    3  A    between atoms: C_13  and  N_14
REMARK    4  A    between atoms: N_14  and  S_15
REMARK    5  A    between atoms: S_15  and  C_18
REMARK    6  A    between atoms: C_18  and  C_19
REMARK    7  A    between atoms: C_18  and  C_20
REMARK    8  A    between atoms: C_22  and  C_23
REMARK                            x       y       z     vdW  Elec       q    Type
REMARK                         _______ _______ _______ _____ _____    ______ ____
ROOT
ATOM      1  C   UNL     1       4.188   6.055  17.795  0.00  0.00    +0.000 A 
ATOM      2  C   UNL     1       4.116   5.333  19.013  0.00  0.00    +0.000 A 
ATOM      3  C   UNL     1       3.186   5.634  20.020  0.00  0.00    +0.000 A 
ATOM      4  C   UNL     1       2.388   6.746  19.862  0.00  0.00    +0.000 A 
ATOM      5  C   UNL     1       2.480   7.512  18.705  0.00  0.00    +0.000 A 
ATOM      6  C   UNL     1       3.325   7.163  17.662  0.00  0.00    +0.000 A 
ATOM      7  C   UNL     1       1.587   8.711  18.783  0.00  0.00    +0.000 C 
ATOM      8  C   UNL     1       1.357   8.795  20.304  0.00  0.00    +0.000 C 
ATOM      9  C   UNL     1       1.381   7.333  20.804  0.00  0.00    +0.000 C 
ENDROOT
BRANCH   1  14
ATOM     10  C   UNL     1       7.833   4.666  13.519  0.00  0.00    +0.000 C 
ATOM     11  C   UNL     1       6.873   4.993  14.619  0.00  0.00    +0.000 A 
ATOM     12  C   UNL     1       5.615   4.428  14.669  0.00  0.00    +0.000 A 
ATOM     13  C   UNL     1       4.762   4.799  15.707  0.00  0.00    +0.000 A 
ATOM     14  C   UNL     1       5.153   5.714  16.710  0.00  0.00    +0.000 A 
ATOM     15  C   UNL     1       6.464   6.210  16.583  0.00  0.00    +0.000 A 
ATOM     16  C   UNL     1       7.121   7.167  17.534  0.00  0.00    +0.000 C 
ATOM     17  N   UNL     1       7.296   5.872  15.551  0.00  0.00    +0.000 NA
ENDBRANCH   1  14
BRANCH   8  18
ATOM     18  N   UNL     1       0.092   9.502  20.687  0.00  0.00    +0.000 NA
ATOM     19  H   UNL     1      -0.578   8.812  21.035  0.00  0.00    +0.000 HD
BRANCH  18  20
ATOM     20  S   UNL     1       0.337  10.705  21.858  0.00  0.00    +0.000 S 
ATOM     21  O   UNL     1       0.513  10.007  23.113  0.00  0.00    +0.000 OA
ATOM     22  O   UNL     1       1.343  11.614  21.357  0.00  0.00    +0.000 OA
BRANCH  20  23
ATOM     23  C   UNL     1      -1.238  11.589  21.908  0.00  0.00    +0.000 C 
ATOM     24  C   UNL     1      -1.237  12.705  22.947  0.00  0.00    +0.000 C 
ATOM     25  C   UNL     1      -1.524  12.162  20.517  0.00  0.00    +0.000 C 
ENDBRANCH  20  23
ENDBRANCH  18  20
ENDBRANCH   8  18
TORSDOF 4
ENDMDL
MODEL 3
REMARK VINA RESULT:      -7.6      2.394      3.681
REMARK  Name = 
REMARK  8 active torsions:
REMARK  status: ('A' for Active; 'I' for Inactive)
REMARK    1  A    between atoms: C_1  and  C_2
REMARK    2  A    between atoms: C_5  and  C_6
REMARK    3  A    between atoms: C_13  and  N_14
REMARK    4  A    between atoms: N_14  and  S_15
REMARK    5  A    between atoms: S_15  and  C_18
REMARK    6  A    between atoms: C_18  and  C_19
REMARK    7  A    between atoms: C_18  and  C_20
REMARK    8  A    between atoms: C_22  and  C_23
REMARK                            x       y       z     vdW  Elec       q    Type
REMARK                         _______ _______ _______ _____ _____    ______ ____
ROOT
ATOM      1  C   UNL     1       2.639   7.123  18.657  0.00  0.00    +0.000 A 
ATOM      2  C   UNL     1       2.346   6.816  20.010  0.00  0.00    +0.000 A 
ATOM      3  C   UNL     1       1.520   7.621  20.810  0.00  0.00    +0.000 A 
ATOM      4  C   UNL     1       1.068   8.813  20.289  0.00  0.00    +0.000 A 
ATOM      5  C   UNL     1       1.390   9.172  18.985  0.00  0.00    +0.000 A 
ATOM      6  C   UNL     1       2.122   8.336  18.156  0.00  0.00    +0.000 A 
ATOM      7  C   UNL     1       0.866  10.535  18.658  0.00  0.00    +0.000 C 
ATOM      8  C   UNL     1       0.641  11.100  20.075  0.00  0.00    +0.000 C 
ATOM      9  C   UNL     1       0.248   9.884  20.943  0.00  0.00    +0.000 C 
ENDROOT
BRANCH   1  14
ATOM     10  C   UNL     1       6.033   3.834  15.315  0.00  0.00    +0.000 C 
ATOM     11  C   UNL     1       5.168   4.715  16.162  0.00  0.00    +0.000 A 
ATOM     12  C   UNL     1       5.485   6.040  16.380  0.00  0.00    +0.000 A 
ATOM     13  C   UNL     1       4.650   6.794  17.203  0.00  0.00    +0.000 A 
ATOM     14  C   UNL     1       3.489   6.250  17.797  0.00  0.00    +0.000 A 
ATOM     15  C   UNL     1       3.241   4.899  17.487  0.00  0.00    +0.000 A 
ATOM     16  C   UNL     1       2.062   4.106  17.968  0.00  0.00    +0.000 C 
ATOM     17  N   UNL     1       4.072   4.146  16.705  0.00  0.00    +0.000 NA
ENDBRANCH   1  14
BRANCH   8  18
ATOM     18  N   UNL     1      -0.383  12.193  20.136  0.00  0.00    +0.000 NA
ATOM     19  H   UNL     1      -1.284  11.784  20.394  0.00  0.00    +0.000 HD
BRANCH  18  20
ATOM     20  S   UNL     1       0.027  13.419  21.235  0.00  0.00    +0.000 S 
ATOM     21  O   UNL     1       1.431  13.233  21.532  0.00  0.00    +0.000 OA
ATOM     22  O   UNL     1      -0.470  14.670  20.710  0.00  0.00    +0.000 OA
BRANCH  20  23
ATOM     23  C   UNL     1      -0.932  13.015  22.713  0.00  0.00    +0.000 C 
ATOM     24  C   UNL     1      -1.221  14.246  23.564  0.00  0.00    +0.000 C 
ATOM     25  C   UNL     1      -2.241  12.349  22.282  0.00  0.00    +0.000 C 
ENDBRANCH  20  23
ENDBRANCH  18  20
ENDBRANCH   8  18
TORSDOF 4
ENDMDL
MODEL 4
REMARK VINA RESULT:      -7.4      2.841      3.855
REMARK  Name = 
REMARK  8 active torsions:
REMARK  status: ('A' for Active; 'I' for Inactive)
REMARK    1  A    between atoms: C_1  and  C_2
REMARK    2  A    between atoms: C_5  and  C_6
REMARK    3  A    between atoms: C_13  and  N_14
REMARK    4  A    between atoms: N_14  and  S_15
REMARK    5  A    between atoms: S_15  and  C_18
REMARK    6  A    between atoms: C_18  and  C_19
REMARK    7  A    between atoms: C_18  and  C_20
REMARK    8  A    between atoms: C_22  and  C_23
REMARK                            x       y       z     vdW  Elec       q    Type
REMARK                         _______ _______ _______ _____ _____    ______ ____
ROOT
ATOM      1  C   UNL     1       2.622   7.135  18.670  0.00  0.00    +0.000 A 
ATOM      2  C   UNL     1       2.308   6.820  20.016  0.00  0.00    +0.000 A 
ATOM      3  C   UNL     1       1.481   7.628  20.812  0.00  0.00    +0.000 A 
ATOM      4  C   UNL     1       1.050   8.830  20.296  0.00  0.00    +0.000 A 
ATOM      5  C   UNL     1       1.393   9.196  18.999  0.00  0.00    +0.000 A 
ATOM      6  C   UNL     1       2.126   8.358  18.172  0.00  0.00    +0.000 A 
ATOM      7  C   UNL     1       0.890  10.569  18.678  0.00  0.00    +0.000 C 
ATOM      8  C   UNL     1       0.654  11.124  20.096  0.00  0.00    +0.000 C 
ATOM      9  C   UNL     1       0.234   9.905  20.949  0.00  0.00    +0.000 C 
ENDROOT
BRANCH   1  14
ATOM     10  C   UNL     1       6.018   3.837  15.340  0.00  0.00    +0.000 C 
ATOM     11  C   UNL     1       5.153   4.719  16.184  0.00  0.00    +0.000 A 
ATOM     12  C   UNL     1       5.463   6.048  16.388  0.00  0.00    +0.000 A 
ATOM     13  C   UNL     1       4.628   6.805  17.208  0.00  0.00    +0.000 A 
ATOM     14  C   UNL     1       3.473   6.260  17.813  0.00  0.00    +0.000 A 
ATOM     15  C   UNL     1       3.232   4.904  17.517  0.00  0.00    +0.000 A 
ATOM     16  C   UNL     1       2.060   4.108  18.012  0.00  0.00    +0.000 C 
ATOM     17  N   UNL     1       4.064   4.149  16.737  0.00  0.00    +0.000 NA
ENDBRANCH   1  14
BRANCH   8  18
ATOM     18  N   UNL     1      -0.358  12.228  20.154  0.00  0.00    +0.000 NA
ATOM     19  H   UNL     1      -1.091  11.967  20.817  0.00  0.00    +0.000 HD
BRANCH  18  20
ATOM     20  S   UNL     1       0.318  13.718  20.602  0.00  0.00    +0.000 S 
ATOM     21  O   UNL     1      -0.758  14.479  21.199  0.00  0.00    +0.000 OA
ATOM     22  O   UNL     1       1.540  13.452  21.325  0.00  0.00    +0.000 OA
BRANCH  20  23
ATOM     23  C   UNL     1       0.759  14.486  19.026  0.00  0.00    +0.000 C 
ATOM     24  C   UNL     1       0.022  15.801  18.802  0.00  0.00    +0.000 C 
ATOM     25  C   UNL     1       2.272  14.715  18.998  0.00  0.00    +0.000 C 
ENDBRANCH  20  23
ENDBRANCH  18  20
ENDBRANCH   8  18
TORSDOF 4
ENDMDL
MODEL 5
REMARK VINA RESULT:      -7.3      3.308      8.904
REMARK  Name = 
REMARK  8 active torsions:
REMARK  status: ('A' for Active; 'I' for Inactive)
REMARK    1  A    between atoms: C_1  and  C_2
REMARK    2  A    between atoms: C_5  and  C_6
REMARK    3  A    between atoms: C_13  and  N_14
REMARK    4  A    between atoms: N_14  and  S_15
REMARK    5  A    between atoms: S_15  and  C_18
REMARK    6  A    between atoms: C_18  and  C_19
REMARK    7  A    between atoms: C_18  and  C_20
REMARK    8  A    between atoms: C_22  and  C_23
REMARK                            x       y       z     vdW  Elec       q    Type
REMARK                         _______ _______ _______ _____ _____    ______ ____
ROOT
ATOM      1  C   UNL     1       0.855  10.116  20.118  0.00  0.00    +0.000 A 
ATOM      2  C   UNL     1       1.278  10.482  18.815  0.00  0.00    +0.000 A 
ATOM      3  C   UNL     1       1.866   9.571  17.924  0.00  0.00    +0.000 A 
ATOM      4  C   UNL     1       2.142   8.300  18.377  0.00  0.00    +0.000 A 
ATOM      5  C   UNL     1       1.796   7.930  19.673  0.00  0.00    +0.000 A 
ATOM      6  C   UNL     1       1.124   8.794  20.525  0.00  0.00    +0.000 A 
ATOM      7  C   UNL     1       2.261   6.540  19.977  0.00  0.00    +0.000 C 
ATOM      8  C   UNL     1       3.333   6.354  18.884  0.00  0.00    +0.000 C 
ATOM      9  C   UNL     1       2.827   7.169  17.672  0.00  0.00    +0.000 C 
ENDROOT
BRANCH   1  14
ATOM     10  C   UNL     1      -1.698  13.931  23.644  0.00  0.00    +0.000 C 
ATOM     11  C   UNL     1      -1.022  12.973  22.714  0.00  0.00    +0.000 A 
ATOM     12  C   UNL     1      -0.593  13.365  21.463  0.00  0.00    +0.000 A 
ATOM     13  C   UNL     1       0.004  12.413  20.638  0.00  0.00    +0.000 A 
ATOM     14  C   UNL     1       0.198  11.076  21.053  0.00  0.00    +0.000 A 
ATOM     15  C   UNL     1      -0.248  10.787  22.356  0.00  0.00    +0.000 A 
ATOM     16  C   UNL     1      -0.128   9.454  23.034  0.00  0.00    +0.000 C 
ATOM     17  N   UNL     1      -0.861  11.710  23.159  0.00  0.00    +0.000 NA
ENDBRANCH   1  14
BRANCH   8  18
ATOM     18  N   UNL     1       3.596   4.922  18.532  0.00  0.00    +0.000 NA
ATOM     19  H   UNL     1       3.442   4.797  17.529  0.00  0.00    +0.000 HD
BRANCH  18  20
ATOM     20  S   UNL     1       5.166   4.421  18.938  0.00  0.00    +0.000 S 
ATOM     21  O   UNL     1       5.789   5.555  19.586  0.00  0.00    +0.000 OA
ATOM     22  O   UNL     1       5.066   3.140  19.600  0.00  0.00    +0.000 OA
BRANCH  20  23
ATOM     23  C   UNL     1       5.966   4.161  17.338  0.00  0.00    +0.000 C 
ATOM     24  C   UNL     1       5.223   4.859  16.205  0.00  0.00    +0.000 C 
ATOM     25  C   UNL     1       7.406   4.672  17.421  0.00  0.00    +0.000 C 
ENDBRANCH  20  23
ENDBRANCH  18  20
ENDBRANCH   8  18
TORSDOF 4
ENDMDL
MODEL 6
REMARK VINA RESULT:      -7.2      2.265      3.382
REMARK  Name = 
REMARK  8 active torsions:
REMARK  status: ('A' for Active; 'I' for Inactive)
REMARK    1  A    between atoms: C_1  and  C_2
REMARK    2  A    between atoms: C_5  and  C_6
REMARK    3  A    between atoms: C_13  and  N_14
REMARK    4  A    between atoms: N_14  and  S_15
REMARK    5  A    between atoms: S_15  and  C_18
REMARK    6  A    between atoms: C_18  and  C_19
REMARK    7  A    between atoms: C_18  and  C_20
REMARK    8  A    between atoms: C_22  and  C_23
REMARK                            x       y       z     vdW  Elec       q    Type
REMARK                         _______ _______ _______ _____ _____    ______ ____
ROOT
ATOM      1  C   UNL     1       2.699   6.936  18.662  0.00  0.00    +0.000 A 
ATOM      2  C   UNL     1       2.404   6.550  19.994  0.00  0.00    +0.000 A 
ATOM      3  C   UNL     1       1.571   7.303  20.836  0.00  0.00    +0.000 A 
ATOM      4  C   UNL     1       1.113   8.521  20.382  0.00  0.00    +0.000 A 
ATOM      5  C   UNL     1       1.437   8.956  19.102  0.00  0.00    +0.000 A 
ATOM      6  C   UNL     1       2.177   8.172  18.229  0.00  0.00    +0.000 A 
ATOM      7  C   UNL     1       0.907  10.333  18.852  0.00  0.00    +0.000 C 
ATOM      8  C   UNL     1       0.675  10.814  20.298  0.00  0.00    +0.000 C 
ATOM      9  C   UNL     1       0.285   9.548  21.094  0.00  0.00    +0.000 C 
ENDROOT
BRANCH   1  14
ATOM     10  C   UNL     1       6.118   3.866  15.142  0.00  0.00    +0.000 C 
ATOM     11  C   UNL     1       5.245   4.690  16.036  0.00  0.00    +0.000 A 
ATOM     12  C   UNL     1       5.514   6.023  16.274  0.00  0.00    +0.000 A 
ATOM     13  C   UNL     1       4.675   6.723  17.139  0.00  0.00    +0.000 A 
ATOM     14  C   UNL     1       3.557   6.118  17.756  0.00  0.00    +0.000 A 
ATOM     15  C   UNL     1       3.355   4.765  17.423  0.00  0.00    +0.000 A 
ATOM     16  C   UNL     1       2.226   3.912  17.922  0.00  0.00    +0.000 C 
ATOM     17  N   UNL     1       4.192   4.064  16.598  0.00  0.00    +0.000 NA
ENDBRANCH   1  14
BRANCH   8  18
ATOM     18  N   UNL     1      -0.356  11.896  20.418  0.00  0.00    +0.000 NA
ATOM     19  H   UNL     1      -1.261  11.466  20.624  0.00  0.00    +0.000 HD
BRANCH  18  20
ATOM     20  S   UNL     1       0.024  13.037  21.615  0.00  0.00    +0.000 S 
ATOM     21  O   UNL     1      -0.479  12.492  22.858  0.00  0.00    +0.000 OA
ATOM     22  O   UNL     1       1.415  13.396  21.461  0.00  0.00    +0.000 OA
BRANCH  20  23
ATOM     23  C   UNL     1      -0.976  14.477  21.173  0.00  0.00    +0.000 C 
ATOM     24  C   UNL     1      -0.588  15.050  19.815  0.00  0.00    +0.000 C 
ATOM     25  C   UNL     1      -2.451  14.069  21.174  0.00  0.00    +0.000 C 
ENDBRANCH  20  23
ENDBRANCH  18  20
ENDBRANCH   8  18
TORSDOF 4
ENDMDL
MODEL 7
REMARK VINA RESULT:      -7.2      2.044      2.928
REMARK  Name = 
REMARK  8 active torsions:
REMARK  status: ('A' for Active; 'I' for Inactive)
REMARK    1  A    between atoms: C_1  and  C_2
REMARK    2  A    between atoms: C_5  and  C_6
REMARK    3  A    between atoms: C_13  and  N_14
REMARK    4  A    between atoms: N_14  and  S_15
REMARK    5  A    between atoms: S_15  and  C_18
REMARK    6  A    between atoms: C_18  and  C_19
REMARK    7  A    between atoms: C_18  and  C_20
REMARK    8  A    between atoms: C_22  and  C_23
REMARK                            x       y       z     vdW  Elec       q    Type
REMARK                         _______ _______ _______ _____ _____    ______ ____
ROOT
ATOM      1  C   UNL     1       3.058   6.406  18.448  0.00  0.00    +0.000 A 
ATOM      2  C   UNL     1       2.867   5.841  19.734  0.00  0.00    +0.000 A 
ATOM      3  C   UNL     1       2.039   6.426  20.705  0.00  0.00    +0.000 A 
ATOM      4  C   UNL     1       1.479   7.654  20.432  0.00  0.00    +0.000 A 
ATOM      5  C   UNL     1       1.699   8.264  19.202  0.00  0.00    +0.000 A 
ATOM      6  C   UNL     1       2.434   7.647  18.201  0.00  0.00    +0.000 A 
ATOM      7  C   UNL     1       1.069   9.620  19.155  0.00  0.00    +0.000 C 
ATOM      8  C   UNL     1       0.892   9.904  20.659  0.00  0.00    +0.000 C 
ATOM      9  C   UNL     1       0.631   8.526  21.308  0.00  0.00    +0.000 C 
ENDROOT
BRANCH   1  14
ATOM     10  C   UNL     1       6.437   4.046  14.384  0.00  0.00    +0.000 C 
ATOM     11  C   UNL     1       5.566   4.689  15.418  0.00  0.00    +0.000 A 
ATOM     12  C   UNL     1       5.617   6.047  15.659  0.00  0.00    +0.000 A 
ATOM     13  C   UNL     1       4.798   6.574  16.656  0.00  0.00    +0.000 A 
ATOM     14  C   UNL     1       3.911   5.768  17.404  0.00  0.00    +0.000 A 
ATOM     15  C   UNL     1       3.915   4.403  17.060  0.00  0.00    +0.000 A 
ATOM     16  C   UNL     1       3.045   3.352  17.685  0.00  0.00    +0.000 C 
ATOM     17  N   UNL     1       4.738   3.875  16.103  0.00  0.00    +0.000 NA
ENDBRANCH   1  14
BRANCH   8  18
ATOM     18  N   UNL     1      -0.196  10.888  20.967  0.00  0.00    +0.000 NA
ATOM     19  H   UNL     1      -0.490  10.760  21.938  0.00  0.00    +0.000 HD
BRANCH  18  20
ATOM     20  S   UNL     1       0.281  12.497  20.720  0.00  0.00    +0.000 S 
ATOM     21  O   UNL     1       1.648  12.582  21.187  0.00  0.00    +0.000 OA
ATOM     22  O   UNL     1      -0.074  12.863  19.367  0.00  0.00    +0.000 OA
BRANCH  20  23
ATOM     23  C   UNL     1      -0.772  13.440  21.846  0.00  0.00    +0.000 C 
ATOM     24  C   UNL     1      -1.291  12.585  22.997  0.00  0.00    +0.000 C 
ATOM     25  C   UNL     1       0.028  14.628  22.388  0.00  0.00    +0.000 C 
ENDBRANCH  20  23
ENDBRANCH  18  20
ENDBRANCH   8  18
TORSDOF 4
ENDMDL
MODEL 8
REMARK VINA RESULT:      -7.2      4.436      8.215
REMARK  Name = 
REMARK  8 active torsions:
REMARK  status: ('A' for Active; 'I' for Inactive)
REMARK    1  A    between atoms: C_1  and  C_2
REMARK    2  A    between atoms: C_5  and  C_6
REMARK    3  A    between atoms: C_13  and  N_14
REMARK    4  A    between atoms: N_14  and  S_15
REMARK    5  A    between atoms: S_15  and  C_18
REMARK    6  A    between atoms: C_18  and  C_19
REMARK    7  A    between atoms: C_18  and  C_20
REMARK    8  A    between atoms: C_22  and  C_23
REMARK                            x       y       z     vdW  Elec       q    Type
REMARK                         _______ _______ _______ _____ _____    ______ ____
ROOT
ATOM      1  C   UNL     1       1.111  10.253  19.590  0.00  0.00    +0.000 A 
ATOM      2  C   UNL     1       0.701   9.574  20.765  0.00  0.00    +0.000 A 
ATOM      3  C   UNL     1       1.086   8.256  21.054  0.00  0.00    +0.000 A 
ATOM      4  C   UNL     1       1.799   7.560  20.102  0.00  0.00    +0.000 A 
ATOM      5  C   UNL     1       2.163   8.180  18.911  0.00  0.00    +0.000 A 
ATOM      6  C   UNL     1       1.872   9.512  18.662  0.00  0.00    +0.000 A 
ATOM      7  C   UNL     1       2.854   7.219  17.996  0.00  0.00    +0.000 C 
ATOM      8  C   UNL     1       2.404   5.875  18.601  0.00  0.00    +0.000 C 
ATOM      9  C   UNL     1       2.264   6.135  20.118  0.00  0.00    +0.000 C 
ENDROOT
BRANCH   1  14
ATOM     10  C   UNL     1      -0.246  15.774  18.503  0.00  0.00    +0.000 C 
ATOM     11  C   UNL     1       0.126  14.357  18.812  0.00  0.00    +0.000 A 
ATOM     12  C   UNL     1       1.283  14.050  19.498  0.00  0.00    +0.000 A 
ATOM     13  C   UNL     1       1.582  12.708  19.727  0.00  0.00    +0.000 A 
ATOM     14  C   UNL     1       0.729  11.665  19.299  0.00  0.00    +0.000 A 
ATOM     15  C   UNL     1      -0.438  12.087  18.635  0.00  0.00    +0.000 A 
ATOM     16  C   UNL     1      -1.511  11.177  18.113  0.00  0.00    +0.000 C 
ATOM     17  N   UNL     1      -0.722  13.401  18.382  0.00  0.00    +0.000 NA
ENDBRANCH   1  14
BRANCH   8  18
ATOM     18  N   UNL     1       3.332   4.736  18.307  0.00  0.00    +0.000 NA
ATOM     19  H   UNL     1       3.885   4.538  19.144  0.00  0.00    +0.000 HD
BRANCH  18  20
ATOM     20  S   UNL     1       2.518   3.333  17.811  0.00  0.00    +0.000 S 
ATOM     21  O   UNL     1       1.253   3.778  17.267  0.00  0.00    +0.000 OA
ATOM     22  O   UNL     1       3.436   2.540  17.025  0.00  0.00    +0.000 OA
BRANCH  20  23
ATOM     23  C   UNL     1       2.199   2.448  19.355  0.00  0.00    +0.000 C 
ATOM     24  C   UNL     1       3.284   2.700  20.396  0.00  0.00    +0.000 C 
ATOM     25  C   UNL     1       0.835   2.882  19.897  0.00  0.00    +0.000 C 
ENDBRANCH  20  23
ENDBRANCH  18  20
ENDBRANCH   8  18
TORSDOF 4
ENDMDL
MODEL 9
REMARK VINA RESULT:      -7.1      3.913      8.513
REMARK  Name = 
REMARK  8 active torsions:
REMARK  status: ('A' for Active; 'I' for Inactive)
REMARK    1  A    between atoms: C_1  and  C_2
REMARK    2  A    between atoms: C_5  and  C_6
REMARK    3  A    between atoms: C_13  and  N_14
REMARK    4  A    between atoms: N_14  and  S_15
REMARK    5  A    between atoms: S_15  and  C_18
REMARK    6  A    between atoms: C_18  and  C_19
REMARK    7  A    between atoms: C_18  and  C_20
REMARK    8  A    between atoms: C_22  and  C_23
REMARK                            x       y       z     vdW  Elec       q    Type
REMARK                         _______ _______ _______ _____ _____    ______ ____
ROOT
ATOM      1  C   UNL     1       2.275   6.965  19.746  0.00  0.00    +0.000 A 
ATOM      2  C   UNL     1       1.986   5.659  20.214  0.00  0.00    +0.000 A 
ATOM      3  C   UNL     1       2.665   4.520  19.755  0.00  0.00    +0.000 A 
ATOM      4  C   UNL     1       3.571   4.670  18.728  0.00  0.00    +0.000 A 
ATOM      5  C   UNL     1       3.831   5.932  18.205  0.00  0.00    +0.000 A 
ATOM      6  C   UNL     1       3.238   7.074  18.721  0.00  0.00    +0.000 A 
ATOM      7  C   UNL     1       4.780   5.849  17.050  0.00  0.00    +0.000 C 
ATOM      8  C   UNL     1       4.640   4.361  16.674  0.00  0.00    +0.000 C 
ATOM      9  C   UNL     1       4.367   3.625  18.005  0.00  0.00    +0.000 C 
ENDROOT
BRANCH   1  14
ATOM     10  C   UNL     1      -0.417  11.632  21.862  0.00  0.00    +0.000 C 
ATOM     11  C   UNL     1       0.266  10.405  21.343  0.00  0.00    +0.000 A 
ATOM     12  C   UNL     1       0.572   9.347  22.173  0.00  0.00    +0.000 A 
ATOM     13  C   UNL     1       1.234   8.248  21.628  0.00  0.00    +0.000 A 
ATOM     14  C   UNL     1       1.577   8.180  20.259  0.00  0.00    +0.000 A 
ATOM     15  C   UNL     1       1.194   9.298  19.495  0.00  0.00    +0.000 A 
ATOM     16  C   UNL     1       1.417   9.453  18.019  0.00  0.00    +0.000 C 
ATOM     17  N   UNL     1       0.570  10.392  20.029  0.00  0.00    +0.000 NA
ENDBRANCH   1  14
BRANCH   8  18
ATOM     18  N   UNL     1       5.831   3.803  15.954  0.00  0.00    +0.000 NA
ATOM     19  H   UNL     1       5.578   2.898  15.553  0.00  0.00    +0.000 HD
BRANCH  18  20
ATOM     20  S   UNL     1       6.405   4.832  14.734  0.00  0.00    +0.000 S 
ATOM     21  O   UNL     1       5.391   5.850  14.563  0.00  0.00    +0.000 OA
ATOM     22  O   UNL     1       7.771   5.180  15.052  0.00  0.00    +0.000 OA
BRANCH  20  23
ATOM     23  C   UNL     1       6.424   3.787  13.259  0.00  0.00    +0.000 C 
ATOM     24  C   UNL     1       5.027   3.571  12.690  0.00  0.00    +0.000 C 
ATOM     25  C   UNL     1       7.329   4.436  12.209  0.00  0.00    +0.000 C 
ENDBRANCH  20  23
ENDBRANCH  18  20
ENDBRANCH   8  18
TORSDOF 4
ENDMDL
