MODEL 1
REMARK VINA RESULT:      -7.4      0.000      0.000
REMARK  Name = 
REMARK  7 active torsions:
REMARK  status: ('A' for Active; 'I' for Inactive)
REMARK    1  A    between atoms: C_1  and  O_2
REMARK    2  A    between atoms: O_2  and  C_3
REMARK    3  A    between atoms: C_3  and  C_5
REMARK    4  A    between atoms: C_8  and  N_9
REMARK    5  A    between atoms: N_9  and  C_10
REMARK    6  A    between atoms: C_15  and  C_16
REMARK    7  A    between atoms: C_15  and  C_17
REMARK                            x       y       z     vdW  Elec       q    Type
REMARK                         _______ _______ _______ _____ _____    ______ ____
ROOT
ATOM      1  N   UNL     1       5.387   3.681  19.108  0.00  0.00    +0.000 N 
ATOM      2  H   UNL     1       6.178   3.686  19.750  0.00  0.00    +0.000 HD
ENDROOT
BRANCH   1   3
ATOM      3  C   UNL     1       4.171   4.051  19.674  0.00  0.00    +0.000 C 
ATOM      4  C   UNL     1       3.306   3.161  20.194  0.00  0.00    +0.000 C 
ATOM      5  C   UNL     1       1.966   3.545  20.681  0.00  0.00    +0.000 C 
ATOM      6  O   UNL     1       1.225   2.680  21.145  0.00  0.00    +0.000 OA
ATOM      7  C   UNL     1       1.550   4.994  20.622  0.00  0.00    +0.000 C 
ATOM      8  C   UNL     1       2.327   5.821  19.581  0.00  0.00    +0.000 C 
ATOM      9  C   UNL     1       2.057   7.310  19.850  0.00  0.00    +0.000 C 
ATOM     10  C   UNL     1       1.840   5.501  18.151  0.00  0.00    +0.000 C 
ATOM     11  C   UNL     1       3.841   5.531  19.699  0.00  0.00    +0.000 C 
ENDBRANCH   1   3
BRANCH   1  15
ATOM     12  C   UNL     1       6.696   4.588  15.176  0.00  0.00    +0.000 A 
ATOM     13  C   UNL     1       5.408   4.088  15.385  0.00  0.00    +0.000 A 
ATOM     14  C   UNL     1       4.963   3.813  16.678  0.00  0.00    +0.000 A 
ATOM     15  C   UNL     1       5.795   4.006  17.789  0.00  0.00    +0.000 A 
ATOM     16  C   UNL     1       7.075   4.532  17.578  0.00  0.00    +0.000 A 
ATOM     17  C   UNL     1       7.528   4.814  16.280  0.00  0.00    +0.000 A 
BRANCH  12  18
ATOM     18  C   UNL     1       7.108   4.866  13.775  0.00  0.00    +0.000 C 
ATOM     19  O   UNL     1       8.054   5.581  13.480  0.00  0.00    +0.000 OA
BRANCH  18  21
ATOM     20  C   UNL     1       7.012   3.405  11.962  0.00  0.00    +0.000 C 
ATOM     21  O   UNL     1       6.303   4.217  12.898  0.00  0.00    +0.000 OA
ENDBRANCH  18  21
ENDBRANCH  12  18
ENDBRANCH   1  15
TORSDOF 4
ENDMDL
MODEL 2
REMARK VINA RESULT:      -7.3      0.100      1.081
REMARK  Name = 
REMARK  7 active torsions:
REMARK  status: ('A' for Active; 'I' for Inactive)
REMARK    1  A    between atoms: C_1  and  O_2
REMARK    2  A    between atoms: O_2  and  C_3
REMARK    3  A    between atoms: C_3  and  C_5
REMARK    4  A    between atoms: C_8  and  N_9
REMARK    5  A    between atoms: N_9  and  C_10
REMARK    6  A    between atoms: C_15  and  C_16
REMARK    7  A    between atoms: C_15  and  C_17
REMARK                            x       y       z     vdW  Elec       q    Type
REMARK                         _______ _______ _______ _____ _____    ______ ____
ROOT
ATOM      1  N   UNL     1       5.411   3.665  19.154  0.00  0.00    +0.000 N 
ATOM      2  H   UNL     1       6.191   3.695  19.808  0.00  0.00    +0.000 HD
ENDROOT
BRANCH   1   3
ATOM      3  C   UNL     1       4.183   4.050  19.685  0.00  0.00    +0.000 C 
ATOM      4  C   UNL     1       3.301   3.171  20.195  0.00  0.00    +0.000 C 
ATOM      5  C   UNL     1       1.952   3.570  20.644  0.00  0.00    +0.000 C 
ATOM      6  O   UNL     1       1.195   2.715  21.101  0.00  0.00    +0.000 OA
ATOM      7  C   UNL     1       1.546   5.021  20.558  0.00  0.00    +0.000 C 
ATOM      8  C   UNL     1       2.354   5.829  19.525  0.00  0.00    +0.000 C 
ATOM      9  C   UNL     1       2.087   7.324  19.770  0.00  0.00    +0.000 C 
ATOM     10  C   UNL     1       1.900   5.494  18.088  0.00  0.00    +0.000 C 
ATOM     11  C   UNL     1       3.863   5.532  19.684  0.00  0.00    +0.000 C 
ENDBRANCH   1   3
BRANCH   1  15
ATOM     12  C   UNL     1       6.608   4.574  15.187  0.00  0.00    +0.000 A 
ATOM     13  C   UNL     1       7.490   4.788  16.249  0.00  0.00    +0.000 A 
ATOM     14  C   UNL     1       7.112   4.466  17.552  0.00  0.00    +0.000 A 
ATOM     15  C   UNL     1       5.841   3.946  17.832  0.00  0.00    +0.000 A 
ATOM     16  C   UNL     1       4.970   3.708  16.762  0.00  0.00    +0.000 A 
ATOM     17  C   UNL     1       5.346   4.026  15.448  0.00  0.00    +0.000 A 
BRANCH  12  18
ATOM     18  C   UNL     1       7.074   4.932  13.821  0.00  0.00    +0.000 C 
ATOM     19  O   UNL     1       8.077   5.595  13.604  0.00  0.00    +0.000 OA
BRANCH  18  21
ATOM     20  C   UNL     1       6.845   3.402  12.079  0.00  0.00    +0.000 C 
ATOM     21  O   UNL     1       6.244   4.420  12.879  0.00  0.00    +0.000 OA
ENDBRANCH  18  21
ENDBRANCH  12  18
ENDBRANCH   1  15
TORSDOF 4
ENDMDL
MODEL 3
REMARK VINA RESULT:      -7.2      2.922      7.344
REMARK  Name = 
REMARK  7 active torsions:
REMARK  status: ('A' for Active; 'I' for Inactive)
REMARK    1  A    between atoms: C_1  and  O_2
REMARK    2  A    between atoms: O_2  and  C_3
REMARK    3  A    between atoms: C_3  and  C_5
REMARK    4  A    between atoms: C_8  and  N_9
REMARK    5  A    between atoms: N_9  and  C_10
REMARK    6  A    between atoms: C_15  and  C_16
REMARK    7  A    between atoms: C_15  and  C_17
REMARK                            x       y       z     vdW  Elec       q    Type
REMARK                         _______ _______ _______ _____ _____    ______ ____
ROOT
ATOM      1  N   UNL     1       3.215   4.423  18.538  0.00  0.00    +0.000 N 
ATOM      2  H   UNL     1       2.490   3.861  18.094  0.00  0.00    +0.000 HD
ENDROOT
BRANCH   1   3
ATOM      3  C   UNL     1       4.460   4.368  17.919  0.00  0.00    +0.000 C 
ATOM      4  C   UNL     1       5.613   4.577  18.581  0.00  0.00    +0.000 C 
ATOM      5  C   UNL     1       6.921   4.639  17.898  0.00  0.00    +0.000 C 
ATOM      6  O   UNL     1       7.937   4.833  18.564  0.00  0.00    +0.000 OA
ATOM      7  C   UNL     1       6.981   4.437  16.404  0.00  0.00    +0.000 C 
ATOM      8  C   UNL     1       5.651   4.728  15.685  0.00  0.00    +0.000 C 
ATOM      9  C   UNL     1       5.745   4.171  14.255  0.00  0.00    +0.000 C 
ATOM     10  C   UNL     1       5.399   6.248  15.587  0.00  0.00    +0.000 C 
ATOM     11  C   UNL     1       4.484   4.048  16.437  0.00  0.00    +0.000 C 
ENDBRANCH   1   3
BRANCH   1  15
ATOM     12  C   UNL     1       1.507   7.905  20.257  0.00  0.00    +0.000 A 
ATOM     13  C   UNL     1       1.469   6.694  20.951  0.00  0.00    +0.000 A 
ATOM     14  C   UNL     1       2.053   5.551  20.403  0.00  0.00    +0.000 A 
ATOM     15  C   UNL     1       2.665   5.582  19.143  0.00  0.00    +0.000 A 
ATOM     16  C   UNL     1       2.724   6.804  18.462  0.00  0.00    +0.000 A 
ATOM     17  C   UNL     1       2.143   7.958  19.010  0.00  0.00    +0.000 A 
BRANCH  12  18
ATOM     18  C   UNL     1       0.872   9.087  20.898  0.00  0.00    +0.000 C 
ATOM     19  O   UNL     1       0.124   9.852  20.309  0.00  0.00    +0.000 OA
BRANCH  18  21
ATOM     20  C   UNL     1       0.144   9.464  23.079  0.00  0.00    +0.000 C 
ATOM     21  O   UNL     1       1.233   9.180  22.201  0.00  0.00    +0.000 OA
ENDBRANCH  18  21
ENDBRANCH  12  18
ENDBRANCH   1  15
TORSDOF 4
ENDMDL
MODEL 4
REMARK VINA RESULT:      -7.2      4.822      7.035
REMARK  Name = 
REMARK  7 active torsions:
REMARK  status: ('A' for Active; 'I' for Inactive)
REMARK    1  A    between atoms: C_1  and  O_2
REMARK    2  A    between atoms: O_2  and  C_3
REMARK    3  A    between atoms: C_3  and  C_5
REMARK    4  A    between atoms: C_8  and  N_9
REMARK    5  A    between atoms: N_9  and  C_10
REMARK    6  A    between atoms: C_15  and  C_16
REMARK    7  A    between atoms: C_15  and  C_17
REMARK                            x       y       z     vdW  Elec       q    Type
REMARK                         _______ _______ _______ _____ _____    ______ ____
ROOT
ATOM      1  N   UNL     1       2.973   6.450  20.040  0.00  0.00    +0.000 N 
ATOM      2  H   UNL     1       3.691   6.660  20.733  0.00  0.00    +0.000 HD
ENDROOT
BRANCH   1   3
ATOM      3  C   UNL     1       2.512   5.137  20.054  0.00  0.00    +0.000 C 
ATOM      4  C   UNL     1       2.077   4.528  21.173  0.00  0.00    +0.000 C 
ATOM      5  C   UNL     1       1.704   3.100  21.206  0.00  0.00    +0.000 C 
ATOM      6  O   UNL     1       1.314   2.606  22.263  0.00  0.00    +0.000 OA
ATOM      7  C   UNL     1       1.786   2.288  19.937  0.00  0.00    +0.000 C 
ATOM      8  C   UNL     1       2.749   2.874  18.887  0.00  0.00    +0.000 C 
ATOM      9  C   UNL     1       2.490   2.164  17.548  0.00  0.00    +0.000 C 
ATOM     10  C   UNL     1       4.218   2.618  19.285  0.00  0.00    +0.000 C 
ATOM     11  C   UNL     1       2.502   4.393  18.733  0.00  0.00    +0.000 C 
ENDBRANCH   1   3
BRANCH   1  15
ATOM     12  C   UNL     1       0.505   9.792  19.181  0.00  0.00    +0.000 A 
ATOM     13  C   UNL     1       0.539   9.263  20.474  0.00  0.00    +0.000 A 
ATOM     14  C   UNL     1       1.369   8.181  20.769  0.00  0.00    +0.000 A 
ATOM     15  C   UNL     1       2.165   7.586  19.781  0.00  0.00    +0.000 A 
ATOM     16  C   UNL     1       2.148   8.136  18.493  0.00  0.00    +0.000 A 
ATOM     17  C   UNL     1       1.319   9.226  18.191  0.00  0.00    +0.000 A 
BRANCH  12  18
ATOM     18  C   UNL     1      -0.396  10.948  18.933  0.00  0.00    +0.000 C 
ATOM     19  O   UNL     1      -0.478  11.911  19.682  0.00  0.00    +0.000 OA
BRANCH  18  21
ATOM     20  C   UNL     1      -2.325  10.092  17.946  0.00  0.00    +0.000 C 
ATOM     21  O   UNL     1      -1.087  10.782  17.778  0.00  0.00    +0.000 OA
ENDBRANCH  18  21
ENDBRANCH  12  18
ENDBRANCH   1  15
TORSDOF 4
ENDMDL
MODEL 5
REMARK VINA RESULT:      -7.2      1.681      2.344
REMARK  Name = 
REMARK  7 active torsions:
REMARK  status: ('A' for Active; 'I' for Inactive)
REMARK    1  A    between atoms: C_1  and  O_2
REMARK    2  A    between atoms: O_2  and  C_3
REMARK    3  A    between atoms: C_3  and  C_5
REMARK    4  A    between atoms: C_8  and  N_9
REMARK    5  A    between atoms: N_9  and  C_10
REMARK    6  A    between atoms: C_15  and  C_16
REMARK    7  A    between atoms: C_15  and  C_17
REMARK                            x       y       z     vdW  Elec       q    Type
REMARK                         _______ _______ _______ _____ _____    ______ ____
ROOT
ATOM      1  N   UNL     1       3.695   5.933  18.818  0.00  0.00    +0.000 N 
ATOM      2  H   UNL     1       3.306   6.875  18.802  0.00  0.00    +0.000 HD
ENDROOT
BRANCH   1   3
ATOM      3  C   UNL     1       2.893   4.978  19.437  0.00  0.00    +0.000 C 
ATOM      4  C   UNL     1       2.971   4.701  20.752  0.00  0.00    +0.000 C 
ATOM      5  C   UNL     1       2.207   3.605  21.379  0.00  0.00    +0.000 C 
ATOM      6  O   UNL     1       2.325   3.406  22.587  0.00  0.00    +0.000 OA
ATOM      7  C   UNL     1       1.279   2.773  20.528  0.00  0.00    +0.000 C 
ATOM      8  C   UNL     1       1.630   2.793  19.028  0.00  0.00    +0.000 C 
ATOM      9  C   UNL     1       0.443   2.203  18.249  0.00  0.00    +0.000 C 
ATOM     10  C   UNL     1       2.869   1.918  18.741  0.00  0.00    +0.000 C 
ATOM     11  C   UNL     1       1.892   4.245  18.566  0.00  0.00    +0.000 C 
ENDBRANCH   1   3
BRANCH   1  15
ATOM     12  C   UNL     1       6.049   5.112  15.385  0.00  0.00    +0.000 A 
ATOM     13  C   UNL     1       5.317   6.300  15.462  0.00  0.00    +0.000 A 
ATOM     14  C   UNL     1       4.562   6.588  16.600  0.00  0.00    +0.000 A 
ATOM     15  C   UNL     1       4.499   5.691  17.675  0.00  0.00    +0.000 A 
ATOM     16  C   UNL     1       5.256   4.515  17.606  0.00  0.00    +0.000 A 
ATOM     17  C   UNL     1       6.020   4.222  16.466  0.00  0.00    +0.000 A 
BRANCH  12  18
ATOM     18  C   UNL     1       6.837   4.868  14.149  0.00  0.00    +0.000 C 
ATOM     19  O   UNL     1       7.872   5.460  13.882  0.00  0.00    +0.000 OA
BRANCH  18  21
ATOM     20  C   UNL     1       6.908   3.696  12.136  0.00  0.00    +0.000 C 
ATOM     21  O   UNL     1       6.254   3.910  13.387  0.00  0.00    +0.000 OA
ENDBRANCH  18  21
ENDBRANCH  12  18
ENDBRANCH   1  15
TORSDOF 4
ENDMDL
MODEL 6
REMARK VINA RESULT:      -7.2      2.880      7.324
REMARK  Name = 
REMARK  7 active torsions:
REMARK  status: ('A' for Active; 'I' for Inactive)
REMARK    1  A    between atoms: C_1  and  O_2
REMARK    2  A    between atoms: O_2  and  C_3
REMARK    3  A    between atoms: C_3  and  C_5
REMARK    4  A    between atoms: C_8  and  N_9
REMARK    5  A    between atoms: N_9  and  C_10
REMARK    6  A    between atoms: C_15  and  C_16
REMARK    7  A    between atoms: C_15  and  C_17
REMARK                            x       y       z     vdW  Elec       q    Type
REMARK                         _______ _______ _______ _____ _____    ______ ____
ROOT
ATOM      1  N   UNL     1       3.321   4.293  18.624  0.00  0.00    +0.000 N 
ATOM      2  H   UNL     1       2.638   3.646  18.234  0.00  0.00    +0.000 HD
ENDROOT
BRANCH   1   3
ATOM      3  C   UNL     1       4.557   4.299  17.983  0.00  0.00    +0.000 C 
ATOM      4  C   UNL     1       5.713   4.540  18.628  0.00  0.00    +0.000 C 
ATOM      5  C   UNL     1       7.004   4.666  17.924  0.00  0.00    +0.000 C 
ATOM      6  O   UNL     1       8.024   4.887  18.576  0.00  0.00    +0.000 OA
ATOM      7  C   UNL     1       7.046   4.493  16.426  0.00  0.00    +0.000 C 
ATOM      8  C   UNL     1       5.692   4.745  15.735  0.00  0.00    +0.000 C 
ATOM      9  C   UNL     1       5.782   4.218  14.293  0.00  0.00    +0.000 C 
ATOM     10  C   UNL     1       5.380   6.255  15.671  0.00  0.00    +0.000 C 
ATOM     11  C   UNL     1       4.566   4.006  16.495  0.00  0.00    +0.000 C 
ENDBRANCH   1   3
BRANCH   1  15
ATOM     12  C   UNL     1       1.487   7.717  20.330  0.00  0.00    +0.000 A 
ATOM     13  C   UNL     1       2.131   7.813  19.094  0.00  0.00    +0.000 A 
ATOM     14  C   UNL     1       2.713   6.685  18.515  0.00  0.00    +0.000 A 
ATOM     15  C   UNL     1       2.688   5.442  19.163  0.00  0.00    +0.000 A 
ATOM     16  C   UNL     1       2.018   5.344  20.388  0.00  0.00    +0.000 A 
ATOM     17  C   UNL     1       1.427   6.474  20.973  0.00  0.00    +0.000 A 
BRANCH  12  18
ATOM     18  C   UNL     1       0.882   8.955  20.890  0.00  0.00    +0.000 C 
ATOM     19  O   UNL     1       1.150  10.077  20.488  0.00  0.00    +0.000 OA
BRANCH  18  21
ATOM     20  C   UNL     1      -0.177   9.716  22.820  0.00  0.00    +0.000 C 
ATOM     21  O   UNL     1       0.006   8.657  21.881  0.00  0.00    +0.000 OA
ENDBRANCH  18  21
ENDBRANCH  12  18
ENDBRANCH   1  15
TORSDOF 4
ENDMDL
MODEL 7
REMARK VINA RESULT:      -7.1      1.692      2.372
REMARK  Name = 
REMARK  7 active torsions:
REMARK  status: ('A' for Active; 'I' for Inactive)
REMARK    1  A    between atoms: C_1  and  O_2
REMARK    2  A    between atoms: O_2  and  C_3
REMARK    3  A    between atoms: C_3  and  C_5
REMARK    4  A    between atoms: C_8  and  N_9
REMARK    5  A    between atoms: N_9  and  C_10
REMARK    6  A    between atoms: C_15  and  C_16
REMARK    7  A    between atoms: C_15  and  C_17
REMARK                            x       y       z     vdW  Elec       q    Type
REMARK                         _______ _______ _______ _____ _____    ______ ____
ROOT
ATOM      1  N   UNL     1       3.794   5.848  18.769  0.00  0.00    +0.000 N 
ATOM      2  H   UNL     1       3.449   6.806  18.760  0.00  0.00    +0.000 HD
ENDROOT
BRANCH   1   3
ATOM      3  C   UNL     1       2.961   4.931  19.404  0.00  0.00    +0.000 C 
ATOM      4  C   UNL     1       3.039   4.664  20.721  0.00  0.00    +0.000 C 
ATOM      5  C   UNL     1       2.238   3.604  21.366  0.00  0.00    +0.000 C 
ATOM      6  O   UNL     1       2.358   3.413  22.575  0.00  0.00    +0.000 OA
ATOM      7  C   UNL     1       1.272   2.800  20.530  0.00  0.00    +0.000 C 
ATOM      8  C   UNL     1       1.611   2.792  19.028  0.00  0.00    +0.000 C 
ATOM      9  C   UNL     1       0.396   2.240  18.264  0.00  0.00    +0.000 C 
ATOM     10  C   UNL     1       2.814   1.867  18.741  0.00  0.00    +0.000 C 
ATOM     11  C   UNL     1       1.925   4.228  18.548  0.00  0.00    +0.000 C 
ENDBRANCH   1   3
BRANCH   1  15
ATOM     12  C   UNL     1       6.151   5.113  15.319  0.00  0.00    +0.000 A 
ATOM     13  C   UNL     1       6.112   4.172  16.352  0.00  0.00    +0.000 A 
ATOM     14  C   UNL     1       5.318   4.396  17.476  0.00  0.00    +0.000 A 
ATOM     15  C   UNL     1       4.564   5.570  17.611  0.00  0.00    +0.000 A 
ATOM     16  C   UNL     1       4.584   6.497  16.563  0.00  0.00    +0.000 A 
ATOM     17  C   UNL     1       5.378   6.276  15.427  0.00  0.00    +0.000 A 
BRANCH  12  18
ATOM     18  C   UNL     1       7.012   4.812  14.145  0.00  0.00    +0.000 C 
ATOM     19  O   UNL     1       7.865   5.578  13.722  0.00  0.00    +0.000 OA
BRANCH  18  21
ATOM     20  C   UNL     1       5.839   3.634  12.513  0.00  0.00    +0.000 C 
ATOM     21  O   UNL     1       6.721   3.591  13.634  0.00  0.00    +0.000 OA
ENDBRANCH  18  21
ENDBRANCH  12  18
ENDBRANCH   1  15
TORSDOF 4
ENDMDL
MODEL 8
REMARK VINA RESULT:      -7.1      4.837      6.983
REMARK  Name = 
REMARK  7 active torsions:
REMARK  status: ('A' for Active; 'I' for Inactive)
REMARK    1  A    between atoms: C_1  and  O_2
REMARK    2  A    between atoms: O_2  and  C_3
REMARK    3  A    between atoms: C_3  and  C_5
REMARK    4  A    between atoms: C_8  and  N_9
REMARK    5  A    between atoms: N_9  and  C_10
REMARK    6  A    between atoms: C_15  and  C_16
REMARK    7  A    between atoms: C_15  and  C_17
REMARK                            x       y       z     vdW  Elec       q    Type
REMARK                         _______ _______ _______ _____ _____    ______ ____
ROOT
ATOM      1  N   UNL     1       3.009   6.447  20.037  0.00  0.00    +0.000 N 
ATOM      2  H   UNL     1       3.695   6.662  20.759  0.00  0.00    +0.000 HD
ENDROOT
BRANCH   1   3
ATOM      3  C   UNL     1       2.532   5.139  20.052  0.00  0.00    +0.000 C 
ATOM      4  C   UNL     1       2.096   4.535  21.173  0.00  0.00    +0.000 C 
ATOM      5  C   UNL     1       1.708   3.111  21.207  0.00  0.00    +0.000 C 
ATOM      6  O   UNL     1       1.317   2.621  22.266  0.00  0.00    +0.000 OA
ATOM      7  C   UNL     1       1.772   2.299  19.937  0.00  0.00    +0.000 C 
ATOM      8  C   UNL     1       2.736   2.875  18.882  0.00  0.00    +0.000 C 
ATOM      9  C   UNL     1       2.462   2.169  17.544  0.00  0.00    +0.000 C 
ATOM     10  C   UNL     1       4.205   2.600  19.272  0.00  0.00    +0.000 C 
ATOM     11  C   UNL     1       2.507   4.396  18.730  0.00  0.00    +0.000 C 
ENDBRANCH   1   3
BRANCH   1  15
ATOM     12  C   UNL     1       0.620   9.795  19.001  0.00  0.00    +0.000 A 
ATOM     13  C   UNL     1       0.638   9.332  20.319  0.00  0.00    +0.000 A 
ATOM     14  C   UNL     1       1.442   8.248  20.671  0.00  0.00    +0.000 A 
ATOM     15  C   UNL     1       2.228   7.586  19.717  0.00  0.00    +0.000 A 
ATOM     16  C   UNL     1       2.227   8.071  18.404  0.00  0.00    +0.000 A 
ATOM     17  C   UNL     1       1.423   9.163  18.044  0.00  0.00    +0.000 A 
BRANCH  12  18
ATOM     18  C   UNL     1      -0.254  10.958  18.691  0.00  0.00    +0.000 C 
ATOM     19  O   UNL     1      -1.216  10.897  17.940  0.00  0.00    +0.000 OA
BRANCH  18  21
ATOM     20  C   UNL     1       1.282  12.710  18.751  0.00  0.00    +0.000 C 
ATOM     21  O   UNL     1       0.162  12.064  19.357  0.00  0.00    +0.000 OA
ENDBRANCH  18  21
ENDBRANCH  12  18
ENDBRANCH   1  15
TORSDOF 4
ENDMDL
MODEL 9
REMARK VINA RESULT:      -7.1      3.046      7.132
REMARK  Name = 
REMARK  7 active torsions:
REMARK  status: ('A' for Active; 'I' for Inactive)
REMARK    1  A    between atoms: C_1  and  O_2
REMARK    2  A    between atoms: O_2  and  C_3
REMARK    3  A    between atoms: C_3  and  C_5
REMARK    4  A    between atoms: C_8  and  N_9
REMARK    5  A    between atoms: N_9  and  C_10
REMARK    6  A    between atoms: C_15  and  C_16
REMARK    7  A    between atoms: C_15  and  C_17
REMARK                            x       y       z     vdW  Elec       q    Type
REMARK                         _______ _______ _______ _____ _____    ______ ____
ROOT
ATOM      1  N   UNL     1       3.238   4.540  18.585  0.00  0.00    +0.000 N 
ATOM      2  H   UNL     1       2.531   3.899  18.227  0.00  0.00    +0.000 HD
ENDROOT
BRANCH   1   3
ATOM      3  C   UNL     1       4.479   4.451  17.962  0.00  0.00    +0.000 C 
ATOM      4  C   UNL     1       5.640   4.646  18.616  0.00  0.00    +0.000 C 
ATOM      5  C   UNL     1       6.945   4.672  17.927  0.00  0.00    +0.000 C 
ATOM      6  O   UNL     1       7.968   4.854  18.586  0.00  0.00    +0.000 OA
ATOM      7  C   UNL     1       6.995   4.447  16.436  0.00  0.00    +0.000 C 
ATOM      8  C   UNL     1       5.667   4.755  15.718  0.00  0.00    +0.000 C 
ATOM      9  C   UNL     1       5.744   4.177  14.296  0.00  0.00    +0.000 C 
ATOM     10  C   UNL     1       5.446   6.278  15.600  0.00  0.00    +0.000 C 
ATOM     11  C   UNL     1       4.490   4.110  16.485  0.00  0.00    +0.000 C 
ENDBRANCH   1   3
BRANCH   1  15
ATOM     12  C   UNL     1       1.545   8.146  20.044  0.00  0.00    +0.000 A 
ATOM     13  C   UNL     1       2.106   8.105  18.764  0.00  0.00    +0.000 A 
ATOM     14  C   UNL     1       2.640   6.916  18.269  0.00  0.00    +0.000 A 
ATOM     15  C   UNL     1       2.650   5.747  19.043  0.00  0.00    +0.000 A 
ATOM     16  C   UNL     1       2.063   5.785  20.313  0.00  0.00    +0.000 A 
ATOM     17  C   UNL     1       1.521   6.978  20.815  0.00  0.00    +0.000 A 
BRANCH  12  18
ATOM     18  C   UNL     1       0.987   9.443  20.511  0.00  0.00    +0.000 C 
ATOM     19  O   UNL     1       0.862   9.737  21.690  0.00  0.00    +0.000 OA
BRANCH  18  21
ATOM     20  C   UNL     1      -0.738  10.530  19.384  0.00  0.00    +0.000 C 
ATOM     21  O   UNL     1       0.656  10.232  19.459  0.00  0.00    +0.000 OA
ENDBRANCH  18  21
ENDBRANCH  12  18
ENDBRANCH   1  15
TORSDOF 4
ENDMDL
