MODEL 1
REMARK VINA RESULT:      -8.4      0.000      0.000
REMARK  Name = 
REMARK  5 active torsions:
REMARK  status: ('A' for Active; 'I' for Inactive)
REMARK    1  A    between atoms: C_1  and  N_2
REMARK    2  A    between atoms: C_5  and  C_6
REMARK    3  A    between atoms: N_9  and  C_10
REMARK    4  A    between atoms: C_10  and  C_11
REMARK    5  A    between atoms: C_15  and  O_16
REMARK                            x       y       z     vdW  Elec       q    Type
REMARK                         _______ _______ _______ _____ _____    ______ ____
ROOT
ATOM      1  C   UNL     1       2.617  12.216  17.943  0.00  0.00    +0.000 C 
ATOM      2  N   UNL     1       1.433  11.905  18.732  0.00  0.00    +0.000 N 
ATOM      3  C   UNL     1       0.875  10.580  18.579  0.00  0.00    +0.000 C 
ATOM      4  C   UNL     1       0.719   9.858  19.852  0.00  0.00    +0.000 A 
ATOM      5  C   UNL     1       1.127   8.577  20.165  0.00  0.00    +0.000 A 
ATOM      6  N   UNL     1       0.614   8.265  21.396  0.00  0.00    +0.000 N 
ATOM      7  C   UNL     1      -0.009   9.370  21.916  0.00  0.00    +0.000 A 
ATOM      8  N   UNL     1      -0.651   9.389  23.097  0.00  0.00    +0.000 NA
ATOM      9  C   UNL     1      -1.145  10.616  23.372  0.00  0.00    +0.000 A 
ATOM     10  C   UNL     1      -0.946  11.765  22.610  0.00  0.00    +0.000 A 
ATOM     11  F   UNL     1      -1.532  12.889  23.052  0.00  0.00    +0.000 F 
ATOM     12  C   UNL     1      -0.207  11.740  21.405  0.00  0.00    +0.000 A 
ATOM     13  C   UNL     1       0.174  10.432  21.031  0.00  0.00    +0.000 A 
ATOM     14  C   UNL     1       0.084  12.942  20.548  0.00  0.00    +0.000 A 
ATOM     15  C   UNL     1      -0.158  14.229  21.080  0.00  0.00    +0.000 A 
ATOM     16  C   UNL     1      -0.162  15.375  20.291  0.00  0.00    +0.000 A 
ATOM     17  F   UNL     1      -0.399  16.566  20.854  0.00  0.00    +0.000 F 
ATOM     18  C   UNL     1       0.055  15.293  18.934  0.00  0.00    +0.000 A 
ATOM     19  C   UNL     1       0.476  14.081  18.414  0.00  0.00    +0.000 A 
ATOM     20  C   UNL     1       0.627  12.929  19.226  0.00  0.00    +0.000 A 
ATOM     21  H   UNL     1       0.696   7.384  21.881  0.00  0.00    +0.000 HD
ENDROOT
BRANCH   5  22
ATOM     22  C   UNL     1       2.009   7.695  19.494  0.00  0.00    +0.000 C 
ATOM     23  C   UNL     1       2.262   6.506  20.060  0.00  0.00    +0.000 C 
ATOM     24  C   UNL     1       3.030   5.404  19.377  0.00  0.00    +0.000 C 
ATOM     25  N   UNL     1       3.278   5.631  17.939  0.00  0.00    +0.000 NA
ATOM     26  C   UNL     1       3.637   7.036  17.685  0.00  0.00    +0.000 C 
ATOM     27  C   UNL     1       2.506   7.975  18.094  0.00  0.00    +0.000 C 
BRANCH  25  28
ATOM     28  C   UNL     1       4.377   4.764  17.459  0.00  0.00    +0.000 C 
BRANCH  28  29
ATOM     29  C   UNL     1       5.619   4.851  18.335  0.00  0.00    +0.000 C 
ATOM     30  O   UNL     1       5.831   4.064  19.261  0.00  0.00    +0.000 OA
ATOM     31  N   UNL     1       6.443   5.920  18.064  0.00  0.00    +0.000 N 
ATOM     32  C   UNL     1       7.712   6.233  18.710  0.00  0.00    +0.000 C 
ATOM     33  C   UNL     1       7.909   7.232  17.544  0.00  0.00    +0.000 C 
ATOM     34  C   UNL     1       6.940   6.327  16.748  0.00  0.00    +0.000 C 
BRANCH  33  35
ATOM     35  O   UNL     1       7.463   8.589  17.776  0.00  0.00    +0.000 OA
ATOM     36  H   UNL     1       7.237   8.611  18.723  0.00  0.00    +0.000 HD
ENDBRANCH  33  35
ENDBRANCH  28  29
ENDBRANCH  25  28
ENDBRANCH   5  22
TORSDOF 4
ENDMDL
MODEL 2
REMARK VINA RESULT:      -8.4      2.660      4.370
REMARK  Name = 
REMARK  5 active torsions:
REMARK  status: ('A' for Active; 'I' for Inactive)
REMARK    1  A    between atoms: C_1  and  N_2
REMARK    2  A    between atoms: C_5  and  C_6
REMARK    3  A    between atoms: N_9  and  C_10
REMARK    4  A    between atoms: C_10  and  C_11
REMARK    5  A    between atoms: C_15  and  O_16
REMARK                            x       y       z     vdW  Elec       q    Type
REMARK                         _______ _______ _______ _____ _____    ______ ____
ROOT
ATOM      1  C   UNL     1       0.154  10.073  22.949  0.00  0.00    +0.000 C 
ATOM      2  N   UNL     1      -0.290  10.823  21.783  0.00  0.00    +0.000 N 
ATOM      3  C   UNL     1       0.624  10.895  20.666  0.00  0.00    +0.000 C 
ATOM      4  C   UNL     1       0.032  10.451  19.394  0.00  0.00    +0.000 A 
ATOM      5  C   UNL     1       0.543   9.550  18.481  0.00  0.00    +0.000 A 
ATOM      6  N   UNL     1      -0.258   9.583  17.370  0.00  0.00    +0.000 N 
ATOM      7  C   UNL     1      -1.332  10.399  17.615  0.00  0.00    +0.000 A 
ATOM      8  N   UNL     1      -2.289  10.679  16.713  0.00  0.00    +0.000 NA
ATOM      9  C   UNL     1      -3.239  11.485  17.233  0.00  0.00    +0.000 A 
ATOM     10  C   UNL     1      -3.312  11.910  18.558  0.00  0.00    +0.000 A 
ATOM     11  F   UNL     1      -4.334  12.721  18.875  0.00  0.00    +0.000 F 
ATOM     12  C   UNL     1      -2.333  11.548  19.511  0.00  0.00    +0.000 A 
ATOM     13  C   UNL     1      -1.254  10.839  18.936  0.00  0.00    +0.000 A 
ATOM     14  C   UNL     1      -2.362  11.934  20.965  0.00  0.00    +0.000 A 
ATOM     15  C   UNL     1      -3.555  12.470  21.501  0.00  0.00    +0.000 A 
ATOM     16  C   UNL     1      -3.603  13.082  22.749  0.00  0.00    +0.000 A 
ATOM     17  F   UNL     1      -4.764  13.572  23.201  0.00  0.00    +0.000 F 
ATOM     18  C   UNL     1      -2.466  13.209  23.514  0.00  0.00    +0.000 A 
ATOM     19  C   UNL     1      -1.328  12.536  23.103  0.00  0.00    +0.000 A 
ATOM     20  C   UNL     1      -1.294  11.782  21.903  0.00  0.00    +0.000 A 
ATOM     21  H   UNL     1      -0.123   9.071  16.511  0.00  0.00    +0.000 HD
ENDROOT
BRANCH   5  22
ATOM     22  C   UNL     1       1.603   8.619  18.592  0.00  0.00    +0.000 C 
ATOM     23  C   UNL     1       1.640   7.831  19.677  0.00  0.00    +0.000 C 
ATOM     24  C   UNL     1       2.598   6.679  19.839  0.00  0.00    +0.000 C 
ATOM     25  N   UNL     1       3.336   6.319  18.612  0.00  0.00    +0.000 NA
ATOM     26  C   UNL     1       3.764   7.525  17.885  0.00  0.00    +0.000 C 
ATOM     27  C   UNL     1       2.561   8.360  17.451  0.00  0.00    +0.000 C 
BRANCH  25  28
ATOM     28  C   UNL     1       4.533   5.514  18.945  0.00  0.00    +0.000 C 
BRANCH  28  29
ATOM     29  C   UNL     1       4.609   4.218  18.150  0.00  0.00    +0.000 C 
ATOM     30  O   UNL     1       5.455   4.030  17.273  0.00  0.00    +0.000 OA
ATOM     31  N   UNL     1       3.613   3.310  18.429  0.00  0.00    +0.000 N 
ATOM     32  C   UNL     1       3.456   1.978  17.856  0.00  0.00    +0.000 C 
ATOM     33  C   UNL     1       2.427   1.754  18.990  0.00  0.00    +0.000 C 
ATOM     34  C   UNL     1       3.194   2.856  19.758  0.00  0.00    +0.000 C 
BRANCH  33  35
ATOM     35  O   UNL     1       1.045   2.048  18.673  0.00  0.00    +0.000 OA
ATOM     36  H   UNL     1       0.547   1.739  19.450  0.00  0.00    +0.000 HD
ENDBRANCH  33  35
ENDBRANCH  28  29
ENDBRANCH  25  28
ENDBRANCH   5  22
TORSDOF 4
ENDMDL
MODEL 3
REMARK VINA RESULT:      -8.3      3.017      4.624
REMARK  Name = 
REMARK  5 active torsions:
REMARK  status: ('A' for Active; 'I' for Inactive)
REMARK    1  A    between atoms: C_1  and  N_2
REMARK    2  A    between atoms: C_5  and  C_6
REMARK    3  A    between atoms: N_9  and  C_10
REMARK    4  A    between atoms: C_10  and  C_11
REMARK    5  A    between atoms: C_15  and  O_16
REMARK                            x       y       z     vdW  Elec       q    Type
REMARK                         _______ _______ _______ _____ _____    ______ ____
ROOT
ATOM      1  C   UNL     1      -0.755  10.738  23.030  0.00  0.00    +0.000 C 
ATOM      2  N   UNL     1      -1.232  11.431  21.842  0.00  0.00    +0.000 N 
ATOM      3  C   UNL     1      -0.322  11.510  20.722  0.00  0.00    +0.000 C 
ATOM      4  C   UNL     1      -0.892  11.000  19.465  0.00  0.00    +0.000 A 
ATOM      5  C   UNL     1      -0.340  10.096  18.580  0.00  0.00    +0.000 A 
ATOM      6  N   UNL     1      -1.142  10.057  17.470  0.00  0.00    +0.000 N 
ATOM      7  C   UNL     1      -2.252  10.830  17.690  0.00  0.00    +0.000 A 
ATOM      8  N   UNL     1      -3.221  11.038  16.781  0.00  0.00    +0.000 NA
ATOM      9  C   UNL     1      -4.207  11.816  17.277  0.00  0.00    +0.000 A 
ATOM     10  C   UNL     1      -4.300  12.278  18.588  0.00  0.00    +0.000 A 
ATOM     11  F   UNL     1      -5.359  13.050  18.881  0.00  0.00    +0.000 F 
ATOM     12  C   UNL     1      -3.305  11.991  19.551  0.00  0.00    +0.000 A 
ATOM     13  C   UNL     1      -2.195  11.315  18.997  0.00  0.00    +0.000 A 
ATOM     14  C   UNL     1      -3.352  12.419  20.992  0.00  0.00    +0.000 A 
ATOM     15  C   UNL     1      -4.569  12.916  21.513  0.00  0.00    +0.000 A 
ATOM     16  C   UNL     1      -4.646  13.564  22.742  0.00  0.00    +0.000 A 
ATOM     17  F   UNL     1      -5.828  14.014  23.180  0.00  0.00    +0.000 F 
ATOM     18  C   UNL     1      -3.515  13.766  23.501  0.00  0.00    +0.000 A 
ATOM     19  C   UNL     1      -2.348  13.133  23.110  0.00  0.00    +0.000 A 
ATOM     20  C   UNL     1      -2.279  12.346  21.934  0.00  0.00    +0.000 A 
ATOM     21  H   UNL     1      -0.983   9.526  16.626  0.00  0.00    +0.000 HD
ENDROOT
BRANCH   5  22
ATOM     22  C   UNL     1       0.761   9.218  18.718  0.00  0.00    +0.000 C 
ATOM     23  C   UNL     1       0.944   8.616  19.903  0.00  0.00    +0.000 C 
ATOM     24  C   UNL     1       1.958   7.527  20.137  0.00  0.00    +0.000 C 
ATOM     25  N   UNL     1       2.576   6.990  18.908  0.00  0.00    +0.000 NA
ATOM     26  C   UNL     1       2.876   8.073  17.958  0.00  0.00    +0.000 C 
ATOM     27  C   UNL     1       1.603   8.800  17.533  0.00  0.00    +0.000 C 
BRANCH  25  28
ATOM     28  C   UNL     1       3.832   6.276  19.229  0.00  0.00    +0.000 C 
BRANCH  28  29
ATOM     29  C   UNL     1       4.181   5.210  18.200  0.00  0.00    +0.000 C 
ATOM     30  O   UNL     1       4.835   5.462  17.185  0.00  0.00    +0.000 OA
ATOM     31  N   UNL     1       3.644   3.968  18.449  0.00  0.00    +0.000 N 
ATOM     32  C   UNL     1       3.839   2.755  17.664  0.00  0.00    +0.000 C 
ATOM     33  C   UNL     1       3.214   2.025  18.877  0.00  0.00    +0.000 C 
ATOM     34  C   UNL     1       3.698   3.232  19.715  0.00  0.00    +0.000 C 
BRANCH  33  35
ATOM     35  O   UNL     1       1.782   1.815  18.835  0.00  0.00    +0.000 OA
ATOM     36  H   UNL     1       1.609   1.185  19.557  0.00  0.00    +0.000 HD
ENDBRANCH  33  35
ENDBRANCH  28  29
ENDBRANCH  25  28
ENDBRANCH   5  22
TORSDOF 4
ENDMDL
MODEL 4
REMARK VINA RESULT:      -8.2      1.533      2.037
REMARK  Name = 
REMARK  5 active torsions:
REMARK  status: ('A' for Active; 'I' for Inactive)
REMARK    1  A    between atoms: C_1  and  N_2
REMARK    2  A    between atoms: C_5  and  C_6
REMARK    3  A    between atoms: N_9  and  C_10
REMARK    4  A    between atoms: C_10  and  C_11
REMARK    5  A    between atoms: C_15  and  O_16
REMARK                            x       y       z     vdW  Elec       q    Type
REMARK                         _______ _______ _______ _____ _____    ______ ____
ROOT
ATOM      1  C   UNL     1       2.977  13.119  18.331  0.00  0.00    +0.000 C 
ATOM      2  N   UNL     1       1.694  13.118  19.019  0.00  0.00    +0.000 N 
ATOM      3  C   UNL     1       0.850  11.960  18.829  0.00  0.00    +0.000 C 
ATOM      4  C   UNL     1       0.425  11.330  20.089  0.00  0.00    +0.000 A 
ATOM      5  C   UNL     1       0.489   9.997  20.443  0.00  0.00    +0.000 A 
ATOM      6  N   UNL     1      -0.182   9.849  21.629  0.00  0.00    +0.000 N 
ATOM      7  C   UNL     1      -0.563  11.083  22.087  0.00  0.00    +0.000 A 
ATOM      8  N   UNL     1      -1.276  11.286  23.208  0.00  0.00    +0.000 NA
ATOM      9  C   UNL     1      -1.483  12.602  23.432  0.00  0.00    +0.000 A 
ATOM     10  C   UNL     1      -0.956  13.650  22.682  0.00  0.00    +0.000 A 
ATOM     11  F   UNL     1      -1.290  14.892  23.065  0.00  0.00    +0.000 F 
ATOM     12  C   UNL     1      -0.148  13.419  21.544  0.00  0.00    +0.000 A 
ATOM     13  C   UNL     1      -0.061  12.048  21.213  0.00  0.00    +0.000 A 
ATOM     14  C   UNL     1       0.489  14.494  20.707  0.00  0.00    +0.000 A 
ATOM     15  C   UNL     1       0.518  15.816  21.208  0.00  0.00    +0.000 A 
ATOM     16  C   UNL     1       0.852  16.908  20.413  0.00  0.00    +0.000 A 
ATOM     17  F   UNL     1       0.860  18.136  20.946  0.00  0.00    +0.000 F 
ATOM     18  C   UNL     1       1.152  16.740  19.080  0.00  0.00    +0.000 A 
ATOM     19  C   UNL     1       1.312  15.450  18.606  0.00  0.00    +0.000 A 
ATOM     20  C   UNL     1       1.118  14.317  19.436  0.00  0.00    +0.000 A 
ATOM     21  H   UNL     1      -0.351   8.986  22.125  0.00  0.00    +0.000 HD
ENDROOT
BRANCH   5  22
ATOM     22  C   UNL     1       1.186   8.914  19.856  0.00  0.00    +0.000 C 
ATOM     23  C   UNL     1       1.560   9.026  18.573  0.00  0.00    +0.000 C 
ATOM     24  C   UNL     1       2.460   8.038  17.877  0.00  0.00    +0.000 C 
ATOM     25  N   UNL     1       3.106   7.060  18.775  0.00  0.00    +0.000 NA
ATOM     26  C   UNL     1       2.162   6.589  19.802  0.00  0.00    +0.000 C 
ATOM     27  C   UNL     1       1.680   7.744  20.677  0.00  0.00    +0.000 C 
BRANCH  25  28
ATOM     28  C   UNL     1       3.594   5.894  18.006  0.00  0.00    +0.000 C 
BRANCH  28  29
ATOM     29  C   UNL     1       4.992   5.460  18.422  0.00  0.00    +0.000 C 
ATOM     30  O   UNL     1       5.349   5.423  19.601  0.00  0.00    +0.000 OA
ATOM     31  N   UNL     1       5.848   5.190  17.378  0.00  0.00    +0.000 N 
ATOM     32  C   UNL     1       7.225   4.720  17.472  0.00  0.00    +0.000 C 
ATOM     33  C   UNL     1       7.092   4.428  15.958  0.00  0.00    +0.000 C 
ATOM     34  C   UNL     1       5.570   4.337  16.220  0.00  0.00    +0.000 C 
BRANCH  33  35
ATOM     35  O   UNL     1       7.518   5.480  15.059  0.00  0.00    +0.000 OA
ATOM     36  H   UNL     1       6.689   5.889  14.754  0.00  0.00    +0.000 HD
ENDBRANCH  33  35
ENDBRANCH  28  29
ENDBRANCH  25  28
ENDBRANCH   5  22
TORSDOF 4
ENDMDL
MODEL 5
REMARK VINA RESULT:      -8.2      2.791      4.077
REMARK  Name = 
REMARK  5 active torsions:
REMARK  status: ('A' for Active; 'I' for Inactive)
REMARK    1  A    between atoms: C_1  and  N_2
REMARK    2  A    between atoms: C_5  and  C_6
REMARK    3  A    between atoms: N_9  and  C_10
REMARK    4  A    between atoms: C_10  and  C_11
REMARK    5  A    between atoms: C_15  and  O_16
REMARK                            x       y       z     vdW  Elec       q    Type
REMARK                         _______ _______ _______ _____ _____    ______ ____
ROOT
ATOM      1  C   UNL     1      -0.544  10.496  23.144  0.00  0.00    +0.000 C 
ATOM      2  N   UNL     1      -1.050  11.258  22.012  0.00  0.00    +0.000 N 
ATOM      3  C   UNL     1      -0.165  11.410  20.878  0.00  0.00    +0.000 C 
ATOM      4  C   UNL     1      -0.762  10.976  19.605  0.00  0.00    +0.000 A 
ATOM      5  C   UNL     1      -0.227  10.131  18.654  0.00  0.00    +0.000 A 
ATOM      6  N   UNL     1      -1.053  10.157  17.562  0.00  0.00    +0.000 N 
ATOM      7  C   UNL     1      -2.160  10.910  17.853  0.00  0.00    +0.000 A 
ATOM      8  N   UNL     1      -3.149  11.169  16.981  0.00  0.00    +0.000 NA
ATOM      9  C   UNL     1      -4.127  11.911  17.546  0.00  0.00    +0.000 A 
ATOM     10  C   UNL     1      -4.192  12.291  18.884  0.00  0.00    +0.000 A 
ATOM     11  F   UNL     1      -5.246  13.038  19.247  0.00  0.00    +0.000 F 
ATOM     12  C   UNL     1      -3.175  11.949  19.806  0.00  0.00    +0.000 A 
ATOM     13  C   UNL     1      -2.076  11.313  19.186  0.00  0.00    +0.000 A 
ATOM     14  C   UNL     1      -3.191  12.288  21.271  0.00  0.00    +0.000 A 
ATOM     15  C   UNL     1      -4.398  12.746  21.848  0.00  0.00    +0.000 A 
ATOM     16  C   UNL     1      -4.449  13.317  23.116  0.00  0.00    +0.000 A 
ATOM     17  F   UNL     1      -5.623  13.734  23.607  0.00  0.00    +0.000 F 
ATOM     18  C   UNL     1      -3.303  13.477  23.861  0.00  0.00    +0.000 A 
ATOM     19  C   UNL     1      -2.142  12.875  23.406  0.00  0.00    +0.000 A 
ATOM     20  C   UNL     1      -2.098  12.162  22.183  0.00  0.00    +0.000 A 
ATOM     21  H   UNL     1      -0.911   9.680  16.683  0.00  0.00    +0.000 HD
ENDROOT
BRANCH   5  22
ATOM     22  C   UNL     1       0.881   9.251  18.714  0.00  0.00    +0.000 C 
ATOM     23  C   UNL     1       1.071   8.552  19.843  0.00  0.00    +0.000 C 
ATOM     24  C   UNL     1       2.093   7.453  19.981  0.00  0.00    +0.000 C 
ATOM     25  N   UNL     1       2.709   7.027  18.709  0.00  0.00    +0.000 NA
ATOM     26  C   UNL     1       2.999   8.187  17.852  0.00  0.00    +0.000 C 
ATOM     27  C   UNL     1       1.720   8.941  17.495  0.00  0.00    +0.000 C 
BRANCH  25  28
ATOM     28  C   UNL     1       3.970   6.295  18.964  0.00  0.00    +0.000 C 
BRANCH  28  29
ATOM     29  C   UNL     1       4.110   5.048  18.103  0.00  0.00    +0.000 C 
ATOM     30  O   UNL     1       3.507   4.001  18.353  0.00  0.00    +0.000 OA
ATOM     31  N   UNL     1       5.020   5.153  17.076  0.00  0.00    +0.000 N 
ATOM     32  C   UNL     1       5.333   4.141  16.074  0.00  0.00    +0.000 C 
ATOM     33  C   UNL     1       6.057   5.288  15.329  0.00  0.00    +0.000 C 
ATOM     34  C   UNL     1       5.108   6.239  16.096  0.00  0.00    +0.000 C 
BRANCH  33  35
ATOM     35  O   UNL     1       7.470   5.444  15.604  0.00  0.00    +0.000 OA
ATOM     36  H   UNL     1       7.510   6.160  16.263  0.00  0.00    +0.000 HD
ENDBRANCH  33  35
ENDBRANCH  28  29
ENDBRANCH  25  28
ENDBRANCH   5  22
TORSDOF 4
ENDMDL
MODEL 6
REMARK VINA RESULT:      -8.2      1.740      2.627
REMARK  Name = 
REMARK  5 active torsions:
REMARK  status: ('A' for Active; 'I' for Inactive)
REMARK    1  A    between atoms: C_1  and  N_2
REMARK    2  A    between atoms: C_5  and  C_6
REMARK    3  A    between atoms: N_9  and  C_10
REMARK    4  A    between atoms: C_10  and  C_11
REMARK    5  A    between atoms: C_15  and  O_16
REMARK                            x       y       z     vdW  Elec       q    Type
REMARK                         _______ _______ _______ _____ _____    ______ ____
ROOT
ATOM      1  C   UNL     1       2.380  13.221  18.170  0.00  0.00    +0.000 C 
ATOM      2  N   UNL     1       1.152  12.955  18.905  0.00  0.00    +0.000 N 
ATOM      3  C   UNL     1       0.542  11.658  18.711  0.00  0.00    +0.000 C 
ATOM      4  C   UNL     1       0.301  10.929  19.966  0.00  0.00    +0.000 A 
ATOM      5  C   UNL     1       0.637   9.627  20.277  0.00  0.00    +0.000 A 
ATOM      6  N   UNL     1       0.060   9.324  21.481  0.00  0.00    +0.000 N 
ATOM      7  C   UNL     1      -0.533  10.449  21.991  0.00  0.00    +0.000 A 
ATOM      8  N   UNL     1      -1.223  10.484  23.144  0.00  0.00    +0.000 NA
ATOM      9  C   UNL     1      -1.672  11.728  23.416  0.00  0.00    +0.000 A 
ATOM     10  C   UNL     1      -1.391  12.876  22.679  0.00  0.00    +0.000 A 
ATOM     11  F   UNL     1      -1.943  14.020  23.112  0.00  0.00    +0.000 F 
ATOM     12  C   UNL     1      -0.603  12.833  21.505  0.00  0.00    +0.000 A 
ATOM     13  C   UNL     1      -0.266  11.513  21.129  0.00  0.00    +0.000 A 
ATOM     14  C   UNL     1      -0.224  14.030  20.678  0.00  0.00    +0.000 A 
ATOM     15  C   UNL     1      -0.429  15.321  21.218  0.00  0.00    +0.000 A 
ATOM     16  C   UNL     1      -0.349  16.475  20.445  0.00  0.00    +0.000 A 
ATOM     17  F   UNL     1      -0.556  17.668  21.015  0.00  0.00    +0.000 F 
ATOM     18  C   UNL     1      -0.079  16.399  19.097  0.00  0.00    +0.000 A 
ATOM     19  C   UNL     1       0.308  15.176  18.578  0.00  0.00    +0.000 A 
ATOM     20  C   UNL     1       0.373  14.009  19.380  0.00  0.00    +0.000 A 
ATOM     21  H   UNL     1       0.083   8.434  21.957  0.00  0.00    +0.000 HD
ENDROOT
BRANCH   5  22
ATOM     22  C   UNL     1       1.506   8.715  19.631  0.00  0.00    +0.000 C 
ATOM     23  C   UNL     1       1.835   7.588  20.281  0.00  0.00    +0.000 C 
ATOM     24  C   UNL     1       2.596   6.452  19.649  0.00  0.00    +0.000 C 
ATOM     25  N   UNL     1       2.746   6.556  18.184  0.00  0.00    +0.000 NA
ATOM     26  C   UNL     1       3.040   7.942  17.784  0.00  0.00    +0.000 C 
ATOM     27  C   UNL     1       1.905   8.881  18.182  0.00  0.00    +0.000 C 
BRANCH  25  28
ATOM     28  C   UNL     1       3.843   5.681  17.712  0.00  0.00    +0.000 C 
BRANCH  28  29
ATOM     29  C   UNL     1       4.474   4.872  18.836  0.00  0.00    +0.000 C 
ATOM     30  O   UNL     1       5.262   5.368  19.645  0.00  0.00    +0.000 OA
ATOM     31  N   UNL     1       4.161   3.532  18.830  0.00  0.00    +0.000 N 
ATOM     32  C   UNL     1       4.586   2.529  19.799  0.00  0.00    +0.000 C 
ATOM     33  C   UNL     1       3.508   1.630  19.145  0.00  0.00    +0.000 C 
ATOM     34  C   UNL     1       2.822   2.949  18.719  0.00  0.00    +0.000 C 
BRANCH  33  35
ATOM     35  O   UNL     1       3.953   0.770  18.068  0.00  0.00    +0.000 OA
ATOM     36  H   UNL     1       4.041  -0.107  18.480  0.00  0.00    +0.000 HD
ENDBRANCH  33  35
ENDBRANCH  28  29
ENDBRANCH  25  28
ENDBRANCH   5  22
TORSDOF 4
ENDMDL
MODEL 7
REMARK VINA RESULT:      -8.1      3.140      4.333
REMARK  Name = 
REMARK  5 active torsions:
REMARK  status: ('A' for Active; 'I' for Inactive)
REMARK    1  A    between atoms: C_1  and  N_2
REMARK    2  A    between atoms: C_5  and  C_6
REMARK    3  A    between atoms: N_9  and  C_10
REMARK    4  A    between atoms: C_10  and  C_11
REMARK    5  A    between atoms: C_15  and  O_16
REMARK                            x       y       z     vdW  Elec       q    Type
REMARK                         _______ _______ _______ _____ _____    ______ ____
ROOT
ATOM      1  C   UNL     1      -1.111  11.079  23.066  0.00  0.00    +0.000 C 
ATOM      2  N   UNL     1      -1.627  11.740  21.876  0.00  0.00    +0.000 N 
ATOM      3  C   UNL     1      -0.733  11.840  20.744  0.00  0.00    +0.000 C 
ATOM      4  C   UNL     1      -1.299  11.296  19.499  0.00  0.00    +0.000 A 
ATOM      5  C   UNL     1      -0.725  10.403  18.617  0.00  0.00    +0.000 A 
ATOM      6  N   UNL     1      -1.538  10.323  17.517  0.00  0.00    +0.000 N 
ATOM      7  C   UNL     1      -2.673  11.058  17.743  0.00  0.00    +0.000 A 
ATOM      8  N   UNL     1      -3.659  11.221  16.844  0.00  0.00    +0.000 NA
ATOM      9  C   UNL     1      -4.667  11.967  17.343  0.00  0.00    +0.000 A 
ATOM     10  C   UNL     1      -4.762  12.440  18.650  0.00  0.00    +0.000 A 
ATOM     11  F   UNL     1      -5.844  13.176  18.948  0.00  0.00    +0.000 F 
ATOM     12  C   UNL     1      -3.746  12.200  19.604  0.00  0.00    +0.000 A 
ATOM     13  C   UNL     1      -2.618  11.558  19.044  0.00  0.00    +0.000 A 
ATOM     14  C   UNL     1      -3.791  12.642  21.041  0.00  0.00    +0.000 A 
ATOM     15  C   UNL     1      -5.019  13.100  21.571  0.00  0.00    +0.000 A 
ATOM     16  C   UNL     1      -5.105  13.758  22.794  0.00  0.00    +0.000 A 
ATOM     17  F   UNL     1      -6.298  14.170  23.241  0.00  0.00    +0.000 F 
ATOM     18  C   UNL     1      -3.974  14.010  23.537  0.00  0.00    +0.000 A 
ATOM     19  C   UNL     1      -2.789  13.415  23.139  0.00  0.00    +0.000 A 
ATOM     20  C   UNL     1      -2.706  12.618  21.971  0.00  0.00    +0.000 A 
ATOM     21  H   UNL     1      -1.369   9.789  16.677  0.00  0.00    +0.000 HD
ENDROOT
BRANCH   5  22
ATOM     22  C   UNL     1       0.409   9.567  18.752  0.00  0.00    +0.000 C 
ATOM     23  C   UNL     1       0.627   8.985  19.941  0.00  0.00    +0.000 C 
ATOM     24  C   UNL     1       1.683   7.936  20.175  0.00  0.00    +0.000 C 
ATOM     25  N   UNL     1       2.305   7.409  18.944  0.00  0.00    +0.000 NA
ATOM     26  C   UNL     1       2.555   8.491  17.978  0.00  0.00    +0.000 C 
ATOM     27  C   UNL     1       1.252   9.167  17.561  0.00  0.00    +0.000 C 
BRANCH  25  28
ATOM     28  C   UNL     1       3.590   6.744  19.257  0.00  0.00    +0.000 C 
BRANCH  28  29
ATOM     29  C   UNL     1       3.852   5.528  18.379  0.00  0.00    +0.000 C 
ATOM     30  O   UNL     1       2.947   4.788  17.989  0.00  0.00    +0.000 OA
ATOM     31  N   UNL     1       5.181   5.275  18.124  0.00  0.00    +0.000 N 
ATOM     32  C   UNL     1       5.726   4.211  17.289  0.00  0.00    +0.000 C 
ATOM     33  C   UNL     1       7.057   4.996  17.385  0.00  0.00    +0.000 C 
ATOM     34  C   UNL     1       6.178   6.240  17.655  0.00  0.00    +0.000 C 
BRANCH  33  35
ATOM     35  O   UNL     1       7.956   4.611  18.453  0.00  0.00    +0.000 OA
ATOM     36  H   UNL     1       8.844   4.700  18.065  0.00  0.00    +0.000 HD
ENDBRANCH  33  35
ENDBRANCH  28  29
ENDBRANCH  25  28
ENDBRANCH   5  22
TORSDOF 4
ENDMDL
MODEL 8
REMARK VINA RESULT:      -8.1      2.435      3.099
REMARK  Name = 
REMARK  5 active torsions:
REMARK  status: ('A' for Active; 'I' for Inactive)
REMARK    1  A    between atoms: C_1  and  N_2
REMARK    2  A    between atoms: C_5  and  C_6
REMARK    3  A    between atoms: N_9  and  C_10
REMARK    4  A    between atoms: C_10  and  C_11
REMARK    5  A    between atoms: C_15  and  O_16
REMARK                            x       y       z     vdW  Elec       q    Type
REMARK                         _______ _______ _______ _____ _____    ______ ____
ROOT
ATOM      1  C   UNL     1       3.075  13.565  18.381  0.00  0.00    +0.000 C 
ATOM      2  N   UNL     1       1.774  13.548  19.034  0.00  0.00    +0.000 N 
ATOM      3  C   UNL     1       0.929  12.403  18.778  0.00  0.00    +0.000 C 
ATOM      4  C   UNL     1       0.466  11.729  20.001  0.00  0.00    +0.000 A 
ATOM      5  C   UNL     1       0.512  10.384  20.307  0.00  0.00    +0.000 A 
ATOM      6  N   UNL     1      -0.190  10.196  21.468  0.00  0.00    +0.000 N 
ATOM      7  C   UNL     1      -0.576  11.415  21.962  0.00  0.00    +0.000 A 
ATOM      8  N   UNL     1      -1.317  11.580  23.071  0.00  0.00    +0.000 NA
ATOM      9  C   UNL     1      -1.522  12.888  23.340  0.00  0.00    +0.000 A 
ATOM     10  C   UNL     1      -0.968  13.960  22.644  0.00  0.00    +0.000 A 
ATOM     11  F   UNL     1      -1.305  15.190  23.064  0.00  0.00    +0.000 F 
ATOM     12  C   UNL     1      -0.133  13.766  21.520  0.00  0.00    +0.000 A 
ATOM     13  C   UNL     1      -0.045  12.408  21.139  0.00  0.00    +0.000 A 
ATOM     14  C   UNL     1       0.533  14.867  20.741  0.00  0.00    +0.000 A 
ATOM     15  C   UNL     1       0.558  16.169  21.292  0.00  0.00    +0.000 A 
ATOM     16  C   UNL     1       0.919  17.288  20.548  0.00  0.00    +0.000 A 
ATOM     17  F   UNL     1       0.920  18.495  21.127  0.00  0.00    +0.000 F 
ATOM     18  C   UNL     1       1.253  17.169  19.218  0.00  0.00    +0.000 A 
ATOM     19  C   UNL     1       1.418  15.896  18.700  0.00  0.00    +0.000 A 
ATOM     20  C   UNL     1       1.195  14.734  19.481  0.00  0.00    +0.000 A 
ATOM     21  H   UNL     1      -0.378   9.317  21.926  0.00  0.00    +0.000 HD
ENDROOT
BRANCH   5  22
ATOM     22  C   UNL     1       1.218   9.319  19.698  0.00  0.00    +0.000 C 
ATOM     23  C   UNL     1       1.575   8.278  20.465  0.00  0.00    +0.000 C 
ATOM     24  C   UNL     1       2.164   7.003  19.919  0.00  0.00    +0.000 C 
ATOM     25  N   UNL     1       2.097   6.878  18.450  0.00  0.00    +0.000 NA
ATOM     26  C   UNL     1       2.409   8.161  17.799  0.00  0.00    +0.000 C 
ATOM     27  C   UNL     1       1.403   9.238  18.199  0.00  0.00    +0.000 C 
BRANCH  25  28
ATOM     28  C   UNL     1       3.057   5.857  17.973  0.00  0.00    +0.000 C 
BRANCH  28  29
ATOM     29  C   UNL     1       2.471   4.452  17.978  0.00  0.00    +0.000 C 
ATOM     30  O   UNL     1       1.463   4.154  17.333  0.00  0.00    +0.000 OA
ATOM     31  N   UNL     1       3.105   3.565  18.819  0.00  0.00    +0.000 N 
ATOM     32  C   UNL     1       2.790   2.153  18.999  0.00  0.00    +0.000 C 
ATOM     33  C   UNL     1       4.150   2.079  19.736  0.00  0.00    +0.000 C 
ATOM     34  C   UNL     1       4.547   3.319  18.902  0.00  0.00    +0.000 C 
BRANCH  33  35
ATOM     35  O   UNL     1       4.116   2.265  21.172  0.00  0.00    +0.000 OA
ATOM     36  H   UNL     1       4.832   1.697  21.506  0.00  0.00    +0.000 HD
ENDBRANCH  33  35
ENDBRANCH  28  29
ENDBRANCH  25  28
ENDBRANCH   5  22
TORSDOF 4
ENDMDL
MODEL 9
REMARK VINA RESULT:      -8.0      3.773      5.426
REMARK  Name = 
REMARK  5 active torsions:
REMARK  status: ('A' for Active; 'I' for Inactive)
REMARK    1  A    between atoms: C_1  and  N_2
REMARK    2  A    between atoms: C_5  and  C_6
REMARK    3  A    between atoms: N_9  and  C_10
REMARK    4  A    between atoms: C_10  and  C_11
REMARK    5  A    between atoms: C_15  and  O_16
REMARK                            x       y       z     vdW  Elec       q    Type
REMARK                         _______ _______ _______ _____ _____    ______ ____
ROOT
ATOM      1  C   UNL     1      -1.785  11.636  23.147  0.00  0.00    +0.000 C 
ATOM      2  N   UNL     1      -2.364  12.247  21.959  0.00  0.00    +0.000 N 
ATOM      3  C   UNL     1      -1.512  12.352  20.797  0.00  0.00    +0.000 C 
ATOM      4  C   UNL     1      -2.095  11.756  19.585  0.00  0.00    +0.000 A 
ATOM      5  C   UNL     1      -1.515  10.863  18.706  0.00  0.00    +0.000 A 
ATOM      6  N   UNL     1      -2.359  10.725  17.636  0.00  0.00    +0.000 N 
ATOM      7  C   UNL     1      -3.514  11.421  17.880  0.00  0.00    +0.000 A 
ATOM      8  N   UNL     1      -4.533  11.523  17.010  0.00  0.00    +0.000 NA
ATOM      9  C   UNL     1      -5.554  12.243  17.525  0.00  0.00    +0.000 A 
ATOM     10  C   UNL     1      -5.625  12.745  18.822  0.00  0.00    +0.000 A 
ATOM     11  F   UNL     1      -6.725  13.446  19.137  0.00  0.00    +0.000 F 
ATOM     12  C   UNL     1      -4.570  12.568  19.748  0.00  0.00    +0.000 A 
ATOM     13  C   UNL     1      -3.438  11.956  19.166  0.00  0.00    +0.000 A 
ATOM     14  C   UNL     1      -4.588  13.044  21.174  0.00  0.00    +0.000 A 
ATOM     15  C   UNL     1      -5.815  13.468  21.734  0.00  0.00    +0.000 A 
ATOM     16  C   UNL     1      -5.888  14.153  22.942  0.00  0.00    +0.000 A 
ATOM     17  F   UNL     1      -7.080  14.530  23.418  0.00  0.00    +0.000 F 
ATOM     18  C   UNL     1      -4.744  14.466  23.641  0.00  0.00    +0.000 A 
ATOM     19  C   UNL     1      -3.550  13.908  23.219  0.00  0.00    +0.000 A 
ATOM     20  C   UNL     1      -3.473  13.085  22.068  0.00  0.00    +0.000 A 
ATOM     21  H   UNL     1      -2.197  10.176  16.803  0.00  0.00    +0.000 HD
ENDROOT
BRANCH   5  22
ATOM     22  C   UNL     1      -0.345  10.075  18.823  0.00  0.00    +0.000 C 
ATOM     23  C   UNL     1       0.016   9.659  20.046  0.00  0.00    +0.000 C 
ATOM     24  C   UNL     1       1.125   8.671  20.297  0.00  0.00    +0.000 C 
ATOM     25  N   UNL     1       1.633   7.999  19.085  0.00  0.00    +0.000 NA
ATOM     26  C   UNL     1       1.743   8.949  17.966  0.00  0.00    +0.000 C 
ATOM     27  C   UNL     1       0.381   9.539  17.610  0.00  0.00    +0.000 C 
BRANCH  25  28
ATOM     28  C   UNL     1       2.965   7.407  19.340  0.00  0.00    +0.000 C 
BRANCH  28  29
ATOM     29  C   UNL     1       3.141   6.048  18.677  0.00  0.00    +0.000 C 
ATOM     30  O   UNL     1       3.787   5.899  17.638  0.00  0.00    +0.000 OA
ATOM     31  N   UNL     1       2.457   5.017  19.282  0.00  0.00    +0.000 N 
ATOM     32  C   UNL     1       2.469   3.612  18.894  0.00  0.00    +0.000 C 
ATOM     33  C   UNL     1       1.797   3.363  20.266  0.00  0.00    +0.000 C 
ATOM     34  C   UNL     1       2.458   4.689  20.709  0.00  0.00    +0.000 C 
BRANCH  33  35
ATOM     35  O   UNL     1       0.349   3.341  20.279  0.00  0.00    +0.000 OA
ATOM     36  H   UNL     1       0.092   3.817  19.470  0.00  0.00    +0.000 HD
ENDBRANCH  33  35
ENDBRANCH  28  29
ENDBRANCH  25  28
ENDBRANCH   5  22
TORSDOF 4
ENDMDL
