MODEL 1
REMARK VINA RESULT:      -7.4      0.000      0.000
REMARK  Name = 
REMARK  6 active torsions:
REMARK  status: ('A' for Active; 'I' for Inactive)
REMARK    1  A    between atoms: C_2  and  C_3
REMARK    2  A    between atoms: C_3  and  C_16
REMARK    3  A    between atoms: C_4  and  C_5
REMARK    4  A    between atoms: C_7  and  O_8
REMARK    5  A    between atoms: C_9  and  O_10
REMARK    6  A    between atoms: C_11  and  N_12
REMARK                            x       y       z     vdW  Elec       q    Type
REMARK                         _______ _______ _______ _____ _____    ______ ____
ROOT
ATOM      1  C   UNL     1       3.929   4.650  17.485  0.00  0.00    +0.000 A 
ATOM      2  C   UNL     1       3.329   5.843  17.922  0.00  0.00    +0.000 A 
ATOM      3  C   UNL     1       2.886   5.952  19.242  0.00  0.00    +0.000 A 
ATOM      4  C   UNL     1       3.019   4.893  20.139  0.00  0.00    +0.000 A 
ATOM      5  C   UNL     1       3.607   3.715  19.697  0.00  0.00    +0.000 A 
ATOM      6  C   UNL     1       4.062   3.576  18.377  0.00  0.00    +0.000 A 
ENDROOT
BRANCH   5   7
ATOM      7  N   UNL     1       3.765   2.596  20.600  0.00  0.00    +0.000 N 
ATOM      8  O   UNL     1       4.795   1.916  20.504  0.00  0.00    +0.000 OA
ATOM      9  O   UNL     1       2.809   2.354  21.354  0.00  0.00    +0.000 OA
ENDBRANCH   5   7
BRANCH   1  11
ATOM     10  C   UNL     1       5.811   4.541  15.851  0.00  0.00    +0.000 C 
ATOM     11  C   UNL     1       4.484   4.554  16.121  0.00  0.00    +0.000 C 
BRANCH  10  12
ATOM     12  C   UNL     1       6.341   4.436  14.472  0.00  0.00    +0.000 A 
ATOM     13  C   UNL     1       5.771   3.567  13.533  0.00  0.00    +0.000 A 
ATOM     14  C   UNL     1       6.302   3.510  12.254  0.00  0.00    +0.000 A 
ATOM     15  N   UNL     1       7.346   4.255  11.847  0.00  0.00    +0.000 NA
ATOM     16  C   UNL     1       7.882   5.096  12.754  0.00  0.00    +0.000 A 
ATOM     17  C   UNL     1       7.423   5.221  14.057  0.00  0.00    +0.000 A 
ENDBRANCH  10  12
BRANCH  10  19
ATOM     18  N   UNL     1       7.535   4.629  18.032  0.00  0.00    +0.000 NA
ATOM     19  C   UNL     1       6.753   4.589  17.043  0.00  0.00    +0.000 C 
ENDBRANCH  10  19
ENDBRANCH   1  11
BRANCH   3  20
ATOM     20  O   UNL     1       2.310   7.100  19.716  0.00  0.00    +0.000 OA
ATOM     21  H   UNL     1       2.668   7.292  20.601  0.00  0.00    +0.000 HD
ENDBRANCH   3  20
BRANCH   4  22
ATOM     22  O   UNL     1       2.551   5.047  21.411  0.00  0.00    +0.000 OA
ATOM     23  H   UNL     1       3.094   4.453  21.969  0.00  0.00    +0.000 HD
ENDBRANCH   4  22
TORSDOF 6
ENDMDL
MODEL 2
REMARK VINA RESULT:      -7.4      0.047      1.025
REMARK  Name = 
REMARK  6 active torsions:
REMARK  status: ('A' for Active; 'I' for Inactive)
REMARK    1  A    between atoms: C_2  and  C_3
REMARK    2  A    between atoms: C_3  and  C_16
REMARK    3  A    between atoms: C_4  and  C_5
REMARK    4  A    between atoms: C_7  and  O_8
REMARK    5  A    between atoms: C_9  and  O_10
REMARK    6  A    between atoms: C_11  and  N_12
REMARK                            x       y       z     vdW  Elec       q    Type
REMARK                         _______ _______ _______ _____ _____    ______ ____
ROOT
ATOM      1  C   UNL     1       3.918   4.625  17.490  0.00  0.00    +0.000 A 
ATOM      2  C   UNL     1       3.314   5.814  17.934  0.00  0.00    +0.000 A 
ATOM      3  C   UNL     1       2.884   5.919  19.259  0.00  0.00    +0.000 A 
ATOM      4  C   UNL     1       3.034   4.861  20.153  0.00  0.00    +0.000 A 
ATOM      5  C   UNL     1       3.627   3.688  19.705  0.00  0.00    +0.000 A 
ATOM      6  C   UNL     1       4.069   3.552  18.380  0.00  0.00    +0.000 A 
ENDROOT
BRANCH   5   7
ATOM      7  N   UNL     1       3.803   2.569  20.606  0.00  0.00    +0.000 N 
ATOM      8  O   UNL     1       4.836   1.897  20.500  0.00  0.00    +0.000 OA
ATOM      9  O   UNL     1       2.856   2.320  21.370  0.00  0.00    +0.000 OA
ENDBRANCH   5   7
BRANCH   1  11
ATOM     10  C   UNL     1       5.785   4.523  15.838  0.00  0.00    +0.000 C 
ATOM     11  C   UNL     1       4.460   4.534  16.120  0.00  0.00    +0.000 C 
BRANCH  10  12
ATOM     12  C   UNL     1       6.302   4.423  14.453  0.00  0.00    +0.000 A 
ATOM     13  C   UNL     1       7.395   5.187  14.023  0.00  0.00    +0.000 A 
ATOM     14  C   UNL     1       7.842   5.051  12.719  0.00  0.00    +0.000 A 
ATOM     15  N   UNL     1       7.289   4.213  11.824  0.00  0.00    +0.000 NA
ATOM     16  C   UNL     1       6.245   3.475  12.249  0.00  0.00    +0.000 A 
ATOM     17  C   UNL     1       5.723   3.542  13.533  0.00  0.00    +0.000 A 
ENDBRANCH  10  12
BRANCH  10  19
ATOM     18  N   UNL     1       7.529   4.605  18.002  0.00  0.00    +0.000 NA
ATOM     19  C   UNL     1       6.738   4.568  17.021  0.00  0.00    +0.000 C 
ENDBRANCH  10  19
ENDBRANCH   1  11
BRANCH   3  20
ATOM     20  O   UNL     1       2.304   7.062  19.738  0.00  0.00    +0.000 OA
ATOM     21  H   UNL     1       2.632   7.823  19.226  0.00  0.00    +0.000 HD
ENDBRANCH   3  20
BRANCH   4  22
ATOM     22  O   UNL     1       2.578   5.011  21.431  0.00  0.00    +0.000 OA
ATOM     23  H   UNL     1       2.722   4.147  21.868  0.00  0.00    +0.000 HD
ENDBRANCH   4  22
TORSDOF 6
ENDMDL
MODEL 3
REMARK VINA RESULT:      -7.2      4.178      7.660
REMARK  Name = 
REMARK  6 active torsions:
REMARK  status: ('A' for Active; 'I' for Inactive)
REMARK    1  A    between atoms: C_2  and  C_3
REMARK    2  A    between atoms: C_3  and  C_16
REMARK    3  A    between atoms: C_4  and  C_5
REMARK    4  A    between atoms: C_7  and  O_8
REMARK    5  A    between atoms: C_9  and  O_10
REMARK    6  A    between atoms: C_11  and  N_12
REMARK                            x       y       z     vdW  Elec       q    Type
REMARK                         _______ _______ _______ _____ _____    ______ ____
ROOT
ATOM      1  C   UNL     1       2.641   5.850  19.608  0.00  0.00    +0.000 A 
ATOM      2  C   UNL     1       1.887   4.900  18.899  0.00  0.00    +0.000 A 
ATOM      3  C   UNL     1       2.539   3.923  18.143  0.00  0.00    +0.000 A 
ATOM      4  C   UNL     1       3.930   3.876  18.070  0.00  0.00    +0.000 A 
ATOM      5  C   UNL     1       4.668   4.822  18.769  0.00  0.00    +0.000 A 
ATOM      6  C   UNL     1       4.041   5.816  19.536  0.00  0.00    +0.000 A 
ENDROOT
BRANCH   5   7
ATOM      7  N   UNL     1       6.113   4.802  18.719  0.00  0.00    +0.000 N 
ATOM      8  O   UNL     1       6.732   5.093  19.750  0.00  0.00    +0.000 OA
ATOM      9  O   UNL     1       6.626   4.570  17.612  0.00  0.00    +0.000 OA
ENDBRANCH   5   7
BRANCH   1  11
ATOM     10  C   UNL     1       1.662   8.093  20.098  0.00  0.00    +0.000 C 
ATOM     11  C   UNL     1       1.968   6.830  20.483  0.00  0.00    +0.000 C 
BRANCH  10  12
ATOM     12  C   UNL     1       0.979   9.054  20.994  0.00  0.00    +0.000 A 
ATOM     13  C   UNL     1       0.612   8.703  22.300  0.00  0.00    +0.000 A 
ATOM     14  C   UNL     1      -0.021   9.642  23.099  0.00  0.00    +0.000 A 
ATOM     15  N   UNL     1      -0.305  10.894  22.696  0.00  0.00    +0.000 NA
ATOM     16  C   UNL     1       0.061  11.226  21.443  0.00  0.00    +0.000 A 
ATOM     17  C   UNL     1       0.695  10.356  20.567  0.00  0.00    +0.000 A 
ENDBRANCH  10  12
BRANCH  10  19
ATOM     18  N   UNL     1       2.295   8.793  17.482  0.00  0.00    +0.000 NA
ATOM     19  C   UNL     1       2.008   8.476  18.668  0.00  0.00    +0.000 C 
ENDBRANCH  10  19
ENDBRANCH   1  11
BRANCH   3  20
ATOM     20  O   UNL     1       1.846   2.969  17.450  0.00  0.00    +0.000 OA
ATOM     21  H   UNL     1       1.178   2.571  18.037  0.00  0.00    +0.000 HD
ENDBRANCH   3  20
BRANCH   4  22
ATOM     22  O   UNL     1       4.515   2.912  17.301  0.00  0.00    +0.000 OA
ATOM     23  H   UNL     1       3.901   2.150  17.316  0.00  0.00    +0.000 HD
ENDBRANCH   4  22
TORSDOF 6
ENDMDL
MODEL 4
REMARK VINA RESULT:      -7.2      4.176      7.677
REMARK  Name = 
REMARK  6 active torsions:
REMARK  status: ('A' for Active; 'I' for Inactive)
REMARK    1  A    between atoms: C_2  and  C_3
REMARK    2  A    between atoms: C_3  and  C_16
REMARK    3  A    between atoms: C_4  and  C_5
REMARK    4  A    between atoms: C_7  and  O_8
REMARK    5  A    between atoms: C_9  and  O_10
REMARK    6  A    between atoms: C_11  and  N_12
REMARK                            x       y       z     vdW  Elec       q    Type
REMARK                         _______ _______ _______ _____ _____    ______ ____
ROOT
ATOM      1  C   UNL     1       2.598   5.843  19.639  0.00  0.00    +0.000 A 
ATOM      2  C   UNL     1       1.834   4.867  18.978  0.00  0.00    +0.000 A 
ATOM      3  C   UNL     1       2.474   3.875  18.230  0.00  0.00    +0.000 A 
ATOM      4  C   UNL     1       3.863   3.839  18.118  0.00  0.00    +0.000 A 
ATOM      5  C   UNL     1       4.610   4.811  18.769  0.00  0.00    +0.000 A 
ATOM      6  C   UNL     1       3.996   5.819  19.527  0.00  0.00    +0.000 A 
ENDROOT
BRANCH   5   7
ATOM      7  N   UNL     1       6.054   4.803  18.678  0.00  0.00    +0.000 N 
ATOM      8  O   UNL     1       6.564   4.502  17.592  0.00  0.00    +0.000 OA
ATOM      9  O   UNL     1       6.677   5.024  19.730  0.00  0.00    +0.000 OA
ENDBRANCH   5   7
BRANCH   1  11
ATOM     10  C   UNL     1       1.646   8.101  20.108  0.00  0.00    +0.000 C 
ATOM     11  C   UNL     1       1.941   6.840  20.506  0.00  0.00    +0.000 C 
BRANCH  10  12
ATOM     12  C   UNL     1       0.978   9.080  20.997  0.00  0.00    +0.000 A 
ATOM     13  C   UNL     1       0.727  10.394  20.580  0.00  0.00    +0.000 A 
ATOM     14  C   UNL     1       0.094  11.269  21.449  0.00  0.00    +0.000 A 
ATOM     15  N   UNL     1      -0.307  10.929  22.687  0.00  0.00    +0.000 NA
ATOM     16  C   UNL     1      -0.071   9.661  23.076  0.00  0.00    +0.000 A 
ATOM     17  C   UNL     1       0.558   8.714  22.280  0.00  0.00    +0.000 A 
ENDBRANCH  10  12
BRANCH  10  19
ATOM     18  N   UNL     1       2.270   8.764  17.480  0.00  0.00    +0.000 NA
ATOM     19  C   UNL     1       1.987   8.463  18.672  0.00  0.00    +0.000 C 
ENDBRANCH  10  19
ENDBRANCH   1  11
BRANCH   3  20
ATOM     20  O   UNL     1       1.771   2.896  17.583  0.00  0.00    +0.000 OA
ATOM     21  H   UNL     1       0.843   2.923  17.879  0.00  0.00    +0.000 HD
ENDBRANCH   3  20
BRANCH   4  22
ATOM     22  O   UNL     1       4.435   2.860  17.359  0.00  0.00    +0.000 OA
ATOM     23  H   UNL     1       5.235   2.577  17.846  0.00  0.00    +0.000 HD
ENDBRANCH   4  22
TORSDOF 6
ENDMDL
MODEL 5
REMARK VINA RESULT:      -7.0      1.147      2.624
REMARK  Name = 
REMARK  6 active torsions:
REMARK  status: ('A' for Active; 'I' for Inactive)
REMARK    1  A    between atoms: C_2  and  C_3
REMARK    2  A    between atoms: C_3  and  C_16
REMARK    3  A    between atoms: C_4  and  C_5
REMARK    4  A    between atoms: C_7  and  O_8
REMARK    5  A    between atoms: C_9  and  O_10
REMARK    6  A    between atoms: C_11  and  N_12
REMARK                            x       y       z     vdW  Elec       q    Type
REMARK                         _______ _______ _______ _____ _____    ______ ____
ROOT
ATOM      1  C   UNL     1       4.040   4.608  17.602  0.00  0.00    +0.000 A 
ATOM      2  C   UNL     1       4.117   3.499  18.460  0.00  0.00    +0.000 A 
ATOM      3  C   UNL     1       3.560   3.572  19.739  0.00  0.00    +0.000 A 
ATOM      4  C   UNL     1       2.933   4.734  20.188  0.00  0.00    +0.000 A 
ATOM      5  C   UNL     1       2.867   5.828  19.335  0.00  0.00    +0.000 A 
ATOM      6  C   UNL     1       3.417   5.784  18.045  0.00  0.00    +0.000 A 
ENDROOT
BRANCH   5   7
ATOM      7  N   UNL     1       2.221   7.049  19.764  0.00  0.00    +0.000 N 
ATOM      8  O   UNL     1       1.546   7.013  20.801  0.00  0.00    +0.000 OA
ATOM      9  O   UNL     1       2.329   8.029  19.009  0.00  0.00    +0.000 OA
ENDBRANCH   5   7
BRANCH   1  11
ATOM     10  C   UNL     1       5.859   4.500  15.897  0.00  0.00    +0.000 C 
ATOM     11  C   UNL     1       4.543   4.512  16.217  0.00  0.00    +0.000 C 
BRANCH  10  12
ATOM     12  C   UNL     1       6.337   4.395  14.499  0.00  0.00    +0.000 A 
ATOM     13  C   UNL     1       5.731   3.526  13.582  0.00  0.00    +0.000 A 
ATOM     14  C   UNL     1       6.214   3.469  12.284  0.00  0.00    +0.000 A 
ATOM     15  N   UNL     1       7.241   4.215  11.838  0.00  0.00    +0.000 NA
ATOM     16  C   UNL     1       7.810   5.055  12.724  0.00  0.00    +0.000 A 
ATOM     17  C   UNL     1       7.401   5.181  14.043  0.00  0.00    +0.000 A 
ENDBRANCH  10  12
BRANCH  10  19
ATOM     18  N   UNL     1       7.664   4.587  18.011  0.00  0.00    +0.000 NA
ATOM     19  C   UNL     1       6.846   4.547  17.053  0.00  0.00    +0.000 C 
ENDBRANCH  10  19
ENDBRANCH   1  11
BRANCH   3  20
ATOM     20  O   UNL     1       3.597   2.512  20.603  0.00  0.00    +0.000 OA
ATOM     21  H   UNL     1       3.938   1.731  20.132  0.00  0.00    +0.000 HD
ENDBRANCH   3  20
BRANCH   4  22
ATOM     22  O   UNL     1       2.422   4.758  21.453  0.00  0.00    +0.000 OA
ATOM     23  H   UNL     1       1.567   5.228  21.386  0.00  0.00    +0.000 HD
ENDBRANCH   4  22
TORSDOF 6
ENDMDL
MODEL 6
REMARK VINA RESULT:      -7.0      1.149      2.817
REMARK  Name = 
REMARK  6 active torsions:
REMARK  status: ('A' for Active; 'I' for Inactive)
REMARK    1  A    between atoms: C_2  and  C_3
REMARK    2  A    between atoms: C_3  and  C_16
REMARK    3  A    between atoms: C_4  and  C_5
REMARK    4  A    between atoms: C_7  and  O_8
REMARK    5  A    between atoms: C_9  and  O_10
REMARK    6  A    between atoms: C_11  and  N_12
REMARK                            x       y       z     vdW  Elec       q    Type
REMARK                         _______ _______ _______ _____ _____    ______ ____
ROOT
ATOM      1  C   UNL     1       4.033   4.624  17.596  0.00  0.00    +0.000 A 
ATOM      2  C   UNL     1       4.107   3.510  18.447  0.00  0.00    +0.000 A 
ATOM      3  C   UNL     1       3.548   3.576  19.726  0.00  0.00    +0.000 A 
ATOM      4  C   UNL     1       2.921   4.735  20.180  0.00  0.00    +0.000 A 
ATOM      5  C   UNL     1       2.857   5.834  19.334  0.00  0.00    +0.000 A 
ATOM      6  C   UNL     1       3.410   5.798  18.045  0.00  0.00    +0.000 A 
ENDROOT
BRANCH   5   7
ATOM      7  N   UNL     1       2.211   7.053  19.770  0.00  0.00    +0.000 N 
ATOM      8  O   UNL     1       1.539   7.013  20.808  0.00  0.00    +0.000 OA
ATOM      9  O   UNL     1       2.317   8.036  19.018  0.00  0.00    +0.000 OA
ENDBRANCH   5   7
BRANCH   1  11
ATOM     10  C   UNL     1       5.855   4.522  15.895  0.00  0.00    +0.000 C 
ATOM     11  C   UNL     1       4.538   4.537  16.212  0.00  0.00    +0.000 C 
BRANCH  10  12
ATOM     12  C   UNL     1       6.335   4.426  14.497  0.00  0.00    +0.000 A 
ATOM     13  C   UNL     1       7.415   5.193  14.040  0.00  0.00    +0.000 A 
ATOM     14  C   UNL     1       7.828   5.062  12.723  0.00  0.00    +0.000 A 
ATOM     15  N   UNL     1       7.253   4.224  11.842  0.00  0.00    +0.000 NA
ATOM     16  C   UNL     1       6.222   3.483  12.293  0.00  0.00    +0.000 A 
ATOM     17  C   UNL     1       5.734   3.546  13.590  0.00  0.00    +0.000 A 
ENDBRANCH  10  12
BRANCH  10  19
ATOM     18  N   UNL     1       7.656   4.588  18.013  0.00  0.00    +0.000 NA
ATOM     19  C   UNL     1       6.839   4.558  17.052  0.00  0.00    +0.000 C 
ENDBRANCH  10  19
ENDBRANCH   1  11
BRANCH   3  20
ATOM     20  O   UNL     1       3.583   2.510  20.583  0.00  0.00    +0.000 OA
ATOM     21  H   UNL     1       4.299   1.908  20.312  0.00  0.00    +0.000 HD
ENDBRANCH   3  20
BRANCH   4  22
ATOM     22  O   UNL     1       2.408   4.752  21.445  0.00  0.00    +0.000 OA
ATOM     23  H   UNL     1       1.676   5.401  21.427  0.00  0.00    +0.000 HD
ENDBRANCH   4  22
TORSDOF 6
ENDMDL
MODEL 7
REMARK VINA RESULT:      -7.0      4.716      7.337
REMARK  Name = 
REMARK  6 active torsions:
REMARK  status: ('A' for Active; 'I' for Inactive)
REMARK    1  A    between atoms: C_2  and  C_3
REMARK    2  A    between atoms: C_3  and  C_16
REMARK    3  A    between atoms: C_4  and  C_5
REMARK    4  A    between atoms: C_7  and  O_8
REMARK    5  A    between atoms: C_9  and  O_10
REMARK    6  A    between atoms: C_11  and  N_12
REMARK                            x       y       z     vdW  Elec       q    Type
REMARK                         _______ _______ _______ _____ _____    ______ ____
ROOT
ATOM      1  C   UNL     1       1.719   4.888  20.184  0.00  0.00    +0.000 A 
ATOM      2  C   UNL     1       0.795   4.029  19.566  0.00  0.00    +0.000 A 
ATOM      3  C   UNL     1       1.227   2.807  19.044  0.00  0.00    +0.000 A 
ATOM      4  C   UNL     1       2.565   2.424  19.117  0.00  0.00    +0.000 A 
ATOM      5  C   UNL     1       3.473   3.281  19.725  0.00  0.00    +0.000 A 
ATOM      6  C   UNL     1       3.069   4.515  20.258  0.00  0.00    +0.000 A 
ENDROOT
BRANCH   5   7
ATOM      7  N   UNL     1       4.869   2.915  19.822  0.00  0.00    +0.000 N 
ATOM      8  O   UNL     1       5.154   1.878  20.433  0.00  0.00    +0.000 OA
ATOM      9  O   UNL     1       5.687   3.721  19.348  0.00  0.00    +0.000 OA
ENDBRANCH   5   7
BRANCH   1  11
ATOM     10  C   UNL     1       1.525   7.371  20.325  0.00  0.00    +0.000 C 
ATOM     11  C   UNL     1       1.260   6.139  20.820  0.00  0.00    +0.000 C 
BRANCH  10  12
ATOM     12  C   UNL     1       1.046   8.611  20.980  0.00  0.00    +0.000 A 
ATOM     13  C   UNL     1       0.532   8.598  22.283  0.00  0.00    +0.000 A 
ATOM     14  C   UNL     1       0.101   9.787  22.851  0.00  0.00    +0.000 A 
ATOM     15  N   UNL     1       0.152  10.975  22.222  0.00  0.00    +0.000 NA
ATOM     16  C   UNL     1       0.657  10.979  20.973  0.00  0.00    +0.000 A 
ATOM     17  C   UNL     1       1.110   9.843  20.318  0.00  0.00    +0.000 A 
ENDBRANCH  10  12
BRANCH  10  19
ATOM     18  N   UNL     1       2.951   7.486  17.940  0.00  0.00    +0.000 NA
ATOM     19  C   UNL     1       2.304   7.434  19.022  0.00  0.00    +0.000 C 
ENDBRANCH  10  19
ENDBRANCH   1  11
BRANCH   3  20
ATOM     20  O   UNL     1       0.360   1.933  18.447  0.00  0.00    +0.000 OA
ATOM     21  H   UNL     1       0.661   1.023  18.616  0.00  0.00    +0.000 HD
ENDBRANCH   3  20
BRANCH   4  22
ATOM     22  O   UNL     1       2.936   1.228  18.574  0.00  0.00    +0.000 OA
ATOM     23  H   UNL     1       3.290   1.436  17.686  0.00  0.00    +0.000 HD
ENDBRANCH   4  22
TORSDOF 6
ENDMDL
MODEL 8
REMARK VINA RESULT:      -6.9      4.720      7.387
REMARK  Name = 
REMARK  6 active torsions:
REMARK  status: ('A' for Active; 'I' for Inactive)
REMARK    1  A    between atoms: C_2  and  C_3
REMARK    2  A    between atoms: C_3  and  C_16
REMARK    3  A    between atoms: C_4  and  C_5
REMARK    4  A    between atoms: C_7  and  O_8
REMARK    5  A    between atoms: C_9  and  O_10
REMARK    6  A    between atoms: C_11  and  N_12
REMARK                            x       y       z     vdW  Elec       q    Type
REMARK                         _______ _______ _______ _____ _____    ______ ____
ROOT
ATOM      1  C   UNL     1       1.718   4.921  20.203  0.00  0.00    +0.000 A 
ATOM      2  C   UNL     1       0.793   4.060  19.588  0.00  0.00    +0.000 A 
ATOM      3  C   UNL     1       1.226   2.842  19.060  0.00  0.00    +0.000 A 
ATOM      4  C   UNL     1       2.566   2.464  19.121  0.00  0.00    +0.000 A 
ATOM      5  C   UNL     1       3.475   3.324  19.725  0.00  0.00    +0.000 A 
ATOM      6  C   UNL     1       3.069   4.554  20.264  0.00  0.00    +0.000 A 
ENDROOT
BRANCH   5   7
ATOM      7  N   UNL     1       4.873   2.963  19.810  0.00  0.00    +0.000 N 
ATOM      8  O   UNL     1       5.696   3.698  19.250  0.00  0.00    +0.000 OA
ATOM      9  O   UNL     1       5.135   1.890  20.378  0.00  0.00    +0.000 OA
ENDBRANCH   5   7
BRANCH   1  11
ATOM     10  C   UNL     1       1.501   7.403  20.344  0.00  0.00    +0.000 C 
ATOM     11  C   UNL     1       1.258   6.168  20.846  0.00  0.00    +0.000 C 
BRANCH  10  12
ATOM     12  C   UNL     1       1.022   8.638  21.007  0.00  0.00    +0.000 A 
ATOM     13  C   UNL     1       1.100   9.886  20.373  0.00  0.00    +0.000 A 
ATOM     14  C   UNL     1       0.632  11.010  21.035  0.00  0.00    +0.000 A 
ATOM     15  N   UNL     1       0.092  10.979  22.266  0.00  0.00    +0.000 NA
ATOM     16  C   UNL     1       0.012   9.774  22.864  0.00  0.00    +0.000 A 
ATOM     17  C   UNL     1       0.455   8.594  22.285  0.00  0.00    +0.000 A 
ENDBRANCH  10  12
BRANCH  10  19
ATOM     18  N   UNL     1       2.879   7.529  17.932  0.00  0.00    +0.000 NA
ATOM     19  C   UNL     1       2.254   7.472  19.026  0.00  0.00    +0.000 C 
ENDBRANCH  10  19
ENDBRANCH   1  11
BRANCH   3  20
ATOM     20  O   UNL     1       0.358   1.966  18.467  0.00  0.00    +0.000 OA
ATOM     21  H   UNL     1       0.754   1.076  18.470  0.00  0.00    +0.000 HD
ENDBRANCH   3  20
BRANCH   4  22
ATOM     22  O   UNL     1       2.939   1.272  18.572  0.00  0.00    +0.000 OA
ATOM     23  H   UNL     1       2.903   0.620  19.301  0.00  0.00    +0.000 HD
ENDBRANCH   4  22
TORSDOF 6
ENDMDL
MODEL 9
REMARK VINA RESULT:      -6.8      4.079      7.134
REMARK  Name = 
REMARK  6 active torsions:
REMARK  status: ('A' for Active; 'I' for Inactive)
REMARK    1  A    between atoms: C_2  and  C_3
REMARK    2  A    between atoms: C_3  and  C_16
REMARK    3  A    between atoms: C_4  and  C_5
REMARK    4  A    between atoms: C_7  and  O_8
REMARK    5  A    between atoms: C_9  and  O_10
REMARK    6  A    between atoms: C_11  and  N_12
REMARK                            x       y       z     vdW  Elec       q    Type
REMARK                         _______ _______ _______ _____ _____    ______ ____
ROOT
ATOM      1  C   UNL     1       4.871   6.629  17.458  0.00  0.00    +0.000 A 
ATOM      2  C   UNL     1       5.738   6.173  18.464  0.00  0.00    +0.000 A 
ATOM      3  C   UNL     1       6.785   5.309  18.138  0.00  0.00    +0.000 A 
ATOM      4  C   UNL     1       6.983   4.878  16.827  0.00  0.00    +0.000 A 
ATOM      5  C   UNL     1       6.118   5.328  15.838  0.00  0.00    +0.000 A 
ATOM      6  C   UNL     1       5.057   6.197  16.137  0.00  0.00    +0.000 A 
ENDROOT
BRANCH   5   7
ATOM      7  N   UNL     1       6.295   4.906  14.466  0.00  0.00    +0.000 N 
ATOM      8  O   UNL     1       5.444   4.152  13.979  0.00  0.00    +0.000 OA
ATOM      9  O   UNL     1       7.340   5.272  13.904  0.00  0.00    +0.000 OA
ENDBRANCH   5   7
BRANCH   1  11
ATOM     10  C   UNL     1       2.776   7.358  18.601  0.00  0.00    +0.000 C 
ATOM     11  C   UNL     1       3.818   7.614  17.774  0.00  0.00    +0.000 C 
BRANCH  10  12
ATOM     12  C   UNL     1       1.737   8.368  18.907  0.00  0.00    +0.000 A 
ATOM     13  C   UNL     1       1.270   8.564  20.214  0.00  0.00    +0.000 A 
ATOM     14  C   UNL     1       0.299   9.525  20.447  0.00  0.00    +0.000 A 
ATOM     15  N   UNL     1      -0.227  10.302  19.483  0.00  0.00    +0.000 NA
ATOM     16  C   UNL     1       0.236  10.114  18.232  0.00  0.00    +0.000 A 
ATOM     17  C   UNL     1       1.201   9.176  17.898  0.00  0.00    +0.000 A 
ENDBRANCH  10  12
BRANCH  10  19
ATOM     18  N   UNL     1       2.712   4.848  19.797  0.00  0.00    +0.000 NA
ATOM     19  C   UNL     1       2.741   5.986  19.255  0.00  0.00    +0.000 C 
ENDBRANCH  10  19
ENDBRANCH   1  11
BRANCH   3  20
ATOM     20  O   UNL     1       7.663   4.852  19.083  0.00  0.00    +0.000 OA
ATOM     21  H   UNL     1       8.006   3.984  18.804  0.00  0.00    +0.000 HD
ENDBRANCH   3  20
BRANCH   4  22
ATOM     22  O   UNL     1       8.010   4.018  16.566  0.00  0.00    +0.000 OA
ATOM     23  H   UNL     1       8.227   4.140  15.620  0.00  0.00    +0.000 HD
ENDBRANCH   4  22
TORSDOF 6
ENDMDL
