MODEL 1
REMARK VINA RESULT:      -8.2      0.000      0.000
REMARK  Name = 
REMARK  9 active torsions:
REMARK  status: ('A' for Active; 'I' for Inactive)
REMARK    1  A    between atoms: C_1  and  O_2
REMARK    2  A    between atoms: O_2  and  C_3
REMARK    3  A    between atoms: C_3  and  C_5
REMARK    4  A    between atoms: C_8  and  O_9
REMARK    5  A    between atoms: O_9  and  C_10
REMARK    6  A    between atoms: C_10  and  C_11
REMARK    7  A    between atoms: C_13  and  C_14
REMARK    8  A    between atoms: C_24  and  O_25
REMARK    9  A    between atoms: O_25  and  C_26
REMARK                            x       y       z     vdW  Elec       q    Type
REMARK                         _______ _______ _______ _____ _____    ______ ____
ROOT
ATOM      1  C   UNL     1       2.595   4.293  19.608  0.00  0.00    +0.000 A 
ATOM      2  C   UNL     1       3.614   4.432  18.630  0.00  0.00    +0.000 A 
ATOM      3  C   UNL     1       4.030   3.357  17.836  0.00  0.00    +0.000 A 
ATOM      4  C   UNL     1       3.509   2.093  18.080  0.00  0.00    +0.000 A 
ATOM      5  C   UNL     1       2.535   1.932  19.068  0.00  0.00    +0.000 A 
ATOM      6  C   UNL     1       2.059   3.013  19.832  0.00  0.00    +0.000 A 
ENDROOT
BRANCH   3   7
ATOM      7  C   UNL     1       4.887   3.597  16.673  0.00  0.00    +0.000 C 
ATOM      8  C   UNL     1       5.776   4.601  16.609  0.00  0.00    +0.000 C 
ATOM      9  S   UNL     1       6.112   5.797  17.812  0.00  0.00    +0.000 S 
ATOM     10  C   UNL     1       7.286   6.608  16.799  0.00  0.00    +0.000 C 
ATOM     11  O   UNL     1       7.887   7.623  17.116  0.00  0.00    +0.000 OA
ATOM     12  N   UNL     1       7.416   5.942  15.626  0.00  0.00    +0.000 N 
ATOM     13  C   UNL     1       6.640   4.837  15.423  0.00  0.00    +0.000 C 
ATOM     14  O   UNL     1       6.656   4.151  14.413  0.00  0.00    +0.000 OA
ATOM     15  H   UNL     1       8.053   6.264  14.920  0.00  0.00    +0.000 HD
ENDBRANCH   3   7
BRANCH   6  16
ATOM     16  O   UNL     1       1.017   2.625  20.624  0.00  0.00    +0.000 OA
ATOM     17  C   UNL     1       1.182   2.473  22.019  0.00  0.00    +0.000 C 
ENDBRANCH   6  16
BRANCH   1  18
ATOM     18  C   UNL     1       2.125   5.584  20.241  0.00  0.00    +0.000 C 
BRANCH  18  19
ATOM     19  O   UNL     1       2.788   6.688  19.626  0.00  0.00    +0.000 OA
BRANCH  19  23
ATOM     20  C   UNL     1       0.446  10.137  19.366  0.00  0.00    +0.000 A 
ATOM     21  C   UNL     1       0.588   9.421  20.559  0.00  0.00    +0.000 A 
ATOM     22  C   UNL     1       1.388   8.277  20.601  0.00  0.00    +0.000 A 
ATOM     23  C   UNL     1       2.038   7.820  19.450  0.00  0.00    +0.000 A 
ATOM     24  C   UNL     1       1.910   8.542  18.262  0.00  0.00    +0.000 A 
ATOM     25  C   UNL     1       1.105   9.689  18.216  0.00  0.00    +0.000 A 
BRANCH  20  26
ATOM     26  C   UNL     1      -0.377  11.374  19.371  0.00  0.00    +0.000 C 
ATOM     27  O   UNL     1      -0.529  12.073  20.366  0.00  0.00    +0.000 OA
BRANCH  26  29
ATOM     28  C   UNL     1      -2.330  11.580  18.123  0.00  0.00    +0.000 C 
ATOM     29  O   UNL     1      -0.903  11.611  18.147  0.00  0.00    +0.000 OA
ENDBRANCH  26  29
ENDBRANCH  20  26
ENDBRANCH  19  23
ENDBRANCH  18  19
ENDBRANCH   1  18
TORSDOF 7
ENDMDL
MODEL 2
REMARK VINA RESULT:      -8.1      4.223      8.504
REMARK  Name = 
REMARK  9 active torsions:
REMARK  status: ('A' for Active; 'I' for Inactive)
REMARK    1  A    between atoms: C_1  and  O_2
REMARK    2  A    between atoms: O_2  and  C_3
REMARK    3  A    between atoms: C_3  and  C_5
REMARK    4  A    between atoms: C_8  and  O_9
REMARK    5  A    between atoms: O_9  and  C_10
REMARK    6  A    between atoms: C_10  and  C_11
REMARK    7  A    between atoms: C_13  and  C_14
REMARK    8  A    between atoms: C_24  and  O_25
REMARK    9  A    between atoms: O_25  and  C_26
REMARK                            x       y       z     vdW  Elec       q    Type
REMARK                         _______ _______ _______ _____ _____    ______ ____
ROOT
ATOM      1  C   UNL     1       5.979   5.613  17.291  0.00  0.00    +0.000 A 
ATOM      2  C   UNL     1       4.888   4.761  17.599  0.00  0.00    +0.000 A 
ATOM      3  C   UNL     1       3.599   5.259  17.821  0.00  0.00    +0.000 A 
ATOM      4  C   UNL     1       3.399   6.633  17.846  0.00  0.00    +0.000 A 
ATOM      5  C   UNL     1       4.472   7.488  17.587  0.00  0.00    +0.000 A 
ATOM      6  C   UNL     1       5.760   7.002  17.298  0.00  0.00    +0.000 A 
ENDROOT
BRANCH   3   7
ATOM      7  C   UNL     1       2.460   4.340  17.876  0.00  0.00    +0.000 C 
ATOM      8  C   UNL     1       2.001   3.806  19.019  0.00  0.00    +0.000 C 
ATOM      9  S   UNL     1       2.604   4.051  20.621  0.00  0.00    +0.000 S 
ATOM     10  C   UNL     1       1.443   2.945  21.319  0.00  0.00    +0.000 C 
ATOM     11  O   UNL     1       1.392   2.655  22.505  0.00  0.00    +0.000 OA
ATOM     12  N   UNL     1       0.626   2.465  20.349  0.00  0.00    +0.000 N 
ATOM     13  C   UNL     1       0.846   2.872  19.064  0.00  0.00    +0.000 C 
ATOM     14  O   UNL     1       0.188   2.515  18.100  0.00  0.00    +0.000 OA
ATOM     15  H   UNL     1      -0.107   1.816  20.569  0.00  0.00    +0.000 HD
ENDBRANCH   3   7
BRANCH   6  16
ATOM     16  O   UNL     1       6.594   8.023  16.942  0.00  0.00    +0.000 OA
ATOM     17  C   UNL     1       7.728   8.340  17.723  0.00  0.00    +0.000 C 
ENDBRANCH   6  16
BRANCH   1  18
ATOM     18  C   UNL     1       7.256   4.910  16.887  0.00  0.00    +0.000 C 
BRANCH  18  19
ATOM     19  O   UNL     1       7.703   5.416  15.629  0.00  0.00    +0.000 OA
BRANCH  19  23
ATOM     20  C   UNL     1       5.936   3.438  12.402  0.00  0.00    +0.000 A 
ATOM     21  C   UNL     1       5.494   3.260  13.717  0.00  0.00    +0.000 A 
ATOM     22  C   UNL     1       6.112   3.949  14.765  0.00  0.00    +0.000 A 
ATOM     23  C   UNL     1       7.189   4.805  14.517  0.00  0.00    +0.000 A 
ATOM     24  C   UNL     1       7.620   4.996  13.203  0.00  0.00    +0.000 A 
ATOM     25  C   UNL     1       7.005   4.305  12.150  0.00  0.00    +0.000 A 
BRANCH  20  26
ATOM     26  C   UNL     1       5.226   2.724  11.309  0.00  0.00    +0.000 C 
ATOM     27  O   UNL     1       5.413   1.541  11.050  0.00  0.00    +0.000 OA
BRANCH  26  29
ATOM     28  C   UNL     1       3.051   2.998  10.526  0.00  0.00    +0.000 C 
ATOM     29  O   UNL     1       4.360   3.549  10.675  0.00  0.00    +0.000 OA
ENDBRANCH  26  29
ENDBRANCH  20  26
ENDBRANCH  19  23
ENDBRANCH  18  19
ENDBRANCH   1  18
TORSDOF 7
ENDMDL
MODEL 3
REMARK VINA RESULT:      -8.0      0.769      1.426
REMARK  Name = 
REMARK  9 active torsions:
REMARK  status: ('A' for Active; 'I' for Inactive)
REMARK    1  A    between atoms: C_1  and  O_2
REMARK    2  A    between atoms: O_2  and  C_3
REMARK    3  A    between atoms: C_3  and  C_5
REMARK    4  A    between atoms: C_8  and  O_9
REMARK    5  A    between atoms: O_9  and  C_10
REMARK    6  A    between atoms: C_10  and  C_11
REMARK    7  A    between atoms: C_13  and  C_14
REMARK    8  A    between atoms: C_24  and  O_25
REMARK    9  A    between atoms: O_25  and  C_26
REMARK                            x       y       z     vdW  Elec       q    Type
REMARK                         _______ _______ _______ _____ _____    ______ ____
ROOT
ATOM      1  C   UNL     1       2.361   4.170  19.392  0.00  0.00    +0.000 A 
ATOM      2  C   UNL     1       3.326   4.361  18.369  0.00  0.00    +0.000 A 
ATOM      3  C   UNL     1       3.888   3.286  17.672  0.00  0.00    +0.000 A 
ATOM      4  C   UNL     1       3.574   1.989  18.059  0.00  0.00    +0.000 A 
ATOM      5  C   UNL     1       2.658   1.784  19.093  0.00  0.00    +0.000 A 
ATOM      6  C   UNL     1       2.035   2.854  19.761  0.00  0.00    +0.000 A 
ENDROOT
BRANCH   3   7
ATOM      7  C   UNL     1       4.674   3.531  16.460  0.00  0.00    +0.000 C 
ATOM      8  C   UNL     1       5.622   4.478  16.378  0.00  0.00    +0.000 C 
ATOM      9  S   UNL     1       6.123   5.585  17.608  0.00  0.00    +0.000 S 
ATOM     10  C   UNL     1       7.273   6.371  16.551  0.00  0.00    +0.000 C 
ATOM     11  O   UNL     1       7.962   7.328  16.870  0.00  0.00    +0.000 OA
ATOM     12  N   UNL     1       7.274   5.762  15.340  0.00  0.00    +0.000 N 
ATOM     13  C   UNL     1       6.412   4.721  15.144  0.00  0.00    +0.000 C 
ATOM     14  O   UNL     1       6.310   4.090  14.103  0.00  0.00    +0.000 OA
ATOM     15  H   UNL     1       7.879   6.080  14.605  0.00  0.00    +0.000 HD
ENDBRANCH   3   7
BRANCH   6  16
ATOM     16  O   UNL     1       1.082   2.395  20.625  0.00  0.00    +0.000 OA
ATOM     17  C   UNL     1       1.283   2.449  22.023  0.00  0.00    +0.000 C 
ENDBRANCH   6  16
BRANCH   1  18
ATOM     18  C   UNL     1       1.708   5.433  19.910  0.00  0.00    +0.000 C 
BRANCH  18  19
ATOM     19  O   UNL     1       2.600   6.535  19.744  0.00  0.00    +0.000 OA
BRANCH  19  23
ATOM     20  C   UNL     1       0.889  10.301  19.159  0.00  0.00    +0.000 A 
ATOM     21  C   UNL     1       1.555   9.618  18.136  0.00  0.00    +0.000 A 
ATOM     22  C   UNL     1       2.106   8.356  18.376  0.00  0.00    +0.000 A 
ATOM     23  C   UNL     1       2.018   7.771  19.642  0.00  0.00    +0.000 A 
ATOM     24  C   UNL     1       1.339   8.444  20.660  0.00  0.00    +0.000 A 
ATOM     25  C   UNL     1       0.788   9.711  20.424  0.00  0.00    +0.000 A 
BRANCH  20  26
ATOM     26  C   UNL     1       0.277  11.619  18.853  0.00  0.00    +0.000 C 
ATOM     27  O   UNL     1      -0.766  11.744  18.222  0.00  0.00    +0.000 OA
BRANCH  26  29
ATOM     28  C   UNL     1       1.694  13.406  18.389  0.00  0.00    +0.000 C 
ATOM     29  O   UNL     1       1.015  12.628  19.374  0.00  0.00    +0.000 OA
ENDBRANCH  26  29
ENDBRANCH  20  26
ENDBRANCH  19  23
ENDBRANCH  18  19
ENDBRANCH   1  18
TORSDOF 7
ENDMDL
MODEL 4
REMARK VINA RESULT:      -8.0      1.797      2.682
REMARK  Name = 
REMARK  9 active torsions:
REMARK  status: ('A' for Active; 'I' for Inactive)
REMARK    1  A    between atoms: C_1  and  O_2
REMARK    2  A    between atoms: O_2  and  C_3
REMARK    3  A    between atoms: C_3  and  C_5
REMARK    4  A    between atoms: C_8  and  O_9
REMARK    5  A    between atoms: O_9  and  C_10
REMARK    6  A    between atoms: C_10  and  C_11
REMARK    7  A    between atoms: C_13  and  C_14
REMARK    8  A    between atoms: C_24  and  O_25
REMARK    9  A    between atoms: O_25  and  C_26
REMARK                            x       y       z     vdW  Elec       q    Type
REMARK                         _______ _______ _______ _____ _____    ______ ____
ROOT
ATOM      1  C   UNL     1       2.419   5.477  20.173  0.00  0.00    +0.000 A 
ATOM      2  C   UNL     1       3.604   6.004  19.599  0.00  0.00    +0.000 A 
ATOM      3  C   UNL     1       4.639   5.179  19.147  0.00  0.00    +0.000 A 
ATOM      4  C   UNL     1       4.555   3.809  19.360  0.00  0.00    +0.000 A 
ATOM      5  C   UNL     1       3.414   3.277  19.963  0.00  0.00    +0.000 A 
ATOM      6  C   UNL     1       2.335   4.087  20.365  0.00  0.00    +0.000 A 
ENDROOT
BRANCH   3   7
ATOM      7  C   UNL     1       5.719   5.740  18.330  0.00  0.00    +0.000 C 
ATOM      8  C   UNL     1       5.964   5.351  17.068  0.00  0.00    +0.000 C 
ATOM      9  S   UNL     1       5.120   4.158  16.144  0.00  0.00    +0.000 S 
ATOM     10  C   UNL     1       6.182   4.352  14.768  0.00  0.00    +0.000 C 
ATOM     11  O   UNL     1       6.100   3.702  13.736  0.00  0.00    +0.000 OA
ATOM     12  N   UNL     1       7.096   5.318  15.026  0.00  0.00    +0.000 N 
ATOM     13  C   UNL     1       7.063   5.924  16.249  0.00  0.00    +0.000 C 
ATOM     14  O   UNL     1       7.829   6.804  16.611  0.00  0.00    +0.000 OA
ATOM     15  H   UNL     1       7.788   5.568  14.343  0.00  0.00    +0.000 HD
ENDBRANCH   3   7
BRANCH   6  16
ATOM     16  O   UNL     1       1.289   3.321  20.792  0.00  0.00    +0.000 OA
ATOM     17  C   UNL     1       1.452   2.389  21.841  0.00  0.00    +0.000 C 
ENDBRANCH   6  16
BRANCH   1  18
ATOM     18  C   UNL     1       1.319   6.484  20.428  0.00  0.00    +0.000 C 
BRANCH  18  19
ATOM     19  O   UNL     1       1.877   7.795  20.500  0.00  0.00    +0.000 OA
BRANCH  19  23
ATOM     20  C   UNL     1      -0.699  10.781  21.878  0.00  0.00    +0.000 A 
ATOM     21  C   UNL     1      -0.089   9.866  22.743  0.00  0.00    +0.000 A 
ATOM     22  C   UNL     1       0.772   8.888  22.237  0.00  0.00    +0.000 A 
ATOM     23  C   UNL     1       1.018   8.797  20.864  0.00  0.00    +0.000 A 
ATOM     24  C   UNL     1       0.422   9.720  20.002  0.00  0.00    +0.000 A 
ATOM     25  C   UNL     1      -0.444  10.700  20.505  0.00  0.00    +0.000 A 
BRANCH  20  26
ATOM     26  C   UNL     1      -1.572  11.834  22.457  0.00  0.00    +0.000 C 
ATOM     27  O   UNL     1      -2.321  11.636  23.406  0.00  0.00    +0.000 OA
BRANCH  26  29
ATOM     28  C   UNL     1      -0.569  13.934  22.500  0.00  0.00    +0.000 C 
ATOM     29  O   UNL     1      -1.408  13.010  21.807  0.00  0.00    +0.000 OA
ENDBRANCH  26  29
ENDBRANCH  20  26
ENDBRANCH  19  23
ENDBRANCH  18  19
ENDBRANCH   1  18
TORSDOF 7
ENDMDL
MODEL 5
REMARK VINA RESULT:      -7.9      2.255      3.409
REMARK  Name = 
REMARK  9 active torsions:
REMARK  status: ('A' for Active; 'I' for Inactive)
REMARK    1  A    between atoms: C_1  and  O_2
REMARK    2  A    between atoms: O_2  and  C_3
REMARK    3  A    between atoms: C_3  and  C_5
REMARK    4  A    between atoms: C_8  and  O_9
REMARK    5  A    between atoms: O_9  and  C_10
REMARK    6  A    between atoms: C_10  and  C_11
REMARK    7  A    between atoms: C_13  and  C_14
REMARK    8  A    between atoms: C_24  and  O_25
REMARK    9  A    between atoms: O_25  and  C_26
REMARK                            x       y       z     vdW  Elec       q    Type
REMARK                         _______ _______ _______ _____ _____    ______ ____
ROOT
ATOM      1  C   UNL     1       4.116   5.618  17.979  0.00  0.00    +0.000 A 
ATOM      2  C   UNL     1       5.002   5.966  16.927  0.00  0.00    +0.000 A 
ATOM      3  C   UNL     1       6.295   5.437  16.842  0.00  0.00    +0.000 A 
ATOM      4  C   UNL     1       6.766   4.630  17.870  0.00  0.00    +0.000 A 
ATOM      5  C   UNL     1       5.920   4.313  18.935  0.00  0.00    +0.000 A 
ATOM      6  C   UNL     1       4.596   4.783  19.003  0.00  0.00    +0.000 A 
ENDROOT
BRANCH   3   7
ATOM      7  C   UNL     1       7.077   5.612  15.616  0.00  0.00    +0.000 C 
ATOM      8  C   UNL     1       6.831   4.934  14.483  0.00  0.00    +0.000 C 
ATOM      9  S   UNL     1       5.603   3.750  14.203  0.00  0.00    +0.000 S 
ATOM     10  C   UNL     1       6.138   3.460  12.563  0.00  0.00    +0.000 C 
ATOM     11  O   UNL     1       5.639   2.638  11.809  0.00  0.00    +0.000 OA
ATOM     12  N   UNL     1       7.179   4.277  12.269  0.00  0.00    +0.000 N 
ATOM     13  C   UNL     1       7.633   5.117  13.246  0.00  0.00    +0.000 C 
ATOM     14  O   UNL     1       8.562   5.899  13.114  0.00  0.00    +0.000 OA
ATOM     15  H   UNL     1       7.614   4.251  11.365  0.00  0.00    +0.000 HD
ENDBRANCH   3   7
BRANCH   6  16
ATOM     16  O   UNL     1       3.937   4.221  20.058  0.00  0.00    +0.000 OA
ATOM     17  C   UNL     1       3.523   2.870  20.019  0.00  0.00    +0.000 C 
ENDBRANCH   6  16
BRANCH   1  18
ATOM     18  C   UNL     1       2.697   6.117  17.822  0.00  0.00    +0.000 C 
BRANCH  18  19
ATOM     19  O   UNL     1       2.708   7.523  17.578  0.00  0.00    +0.000 OA
BRANCH  19  23
ATOM     20  C   UNL     1       0.737  10.082  20.227  0.00  0.00    +0.000 A 
ATOM     21  C   UNL     1       0.948  10.417  18.886  0.00  0.00    +0.000 A 
ATOM     22  C   UNL     1       1.606   9.526  18.034  0.00  0.00    +0.000 A 
ATOM     23  C   UNL     1       2.080   8.301  18.514  0.00  0.00    +0.000 A 
ATOM     24  C   UNL     1       1.856   7.958  19.848  0.00  0.00    +0.000 A 
ATOM     25  C   UNL     1       1.199   8.851  20.706  0.00  0.00    +0.000 A 
BRANCH  20  26
ATOM     26  C   UNL     1      -0.006  11.035  21.091  0.00  0.00    +0.000 C 
ATOM     27  O   UNL     1      -0.726  11.921  20.645  0.00  0.00    +0.000 OA
BRANCH  26  29
ATOM     28  C   UNL     1      -0.969  10.436  23.123  0.00  0.00    +0.000 C 
ATOM     29  O   UNL     1       0.215  10.775  22.401  0.00  0.00    +0.000 OA
ENDBRANCH  26  29
ENDBRANCH  20  26
ENDBRANCH  19  23
ENDBRANCH  18  19
ENDBRANCH   1  18
TORSDOF 7
ENDMDL
MODEL 6
REMARK VINA RESULT:      -7.9      2.589      5.102
REMARK  Name = 
REMARK  9 active torsions:
REMARK  status: ('A' for Active; 'I' for Inactive)
REMARK    1  A    between atoms: C_1  and  O_2
REMARK    2  A    between atoms: O_2  and  C_3
REMARK    3  A    between atoms: C_3  and  C_5
REMARK    4  A    between atoms: C_8  and  O_9
REMARK    5  A    between atoms: O_9  and  C_10
REMARK    6  A    between atoms: C_10  and  C_11
REMARK    7  A    between atoms: C_13  and  C_14
REMARK    8  A    between atoms: C_24  and  O_25
REMARK    9  A    between atoms: O_25  and  C_26
REMARK                            x       y       z     vdW  Elec       q    Type
REMARK                         _______ _______ _______ _____ _____    ______ ____
ROOT
ATOM      1  C   UNL     1       4.571   6.600  17.085  0.00  0.00    +0.000 A 
ATOM      2  C   UNL     1       3.454   5.732  17.192  0.00  0.00    +0.000 A 
ATOM      3  C   UNL     1       3.583   4.342  17.089  0.00  0.00    +0.000 A 
ATOM      4  C   UNL     1       4.820   3.799  16.767  0.00  0.00    +0.000 A 
ATOM      5  C   UNL     1       5.922   4.644  16.616  0.00  0.00    +0.000 A 
ATOM      6  C   UNL     1       5.822   6.037  16.780  0.00  0.00    +0.000 A 
ENDROOT
BRANCH   3   7
ATOM      7  C   UNL     1       2.464   3.474  17.462  0.00  0.00    +0.000 C 
ATOM      8  C   UNL     1       2.109   3.239  18.736  0.00  0.00    +0.000 C 
ATOM      9  S   UNL     1       2.841   3.863  20.172  0.00  0.00    +0.000 S 
ATOM     10  C   UNL     1       1.756   2.970  21.214  0.00  0.00    +0.000 C 
ATOM     11  O   UNL     1       1.808   2.980  22.435  0.00  0.00    +0.000 OA
ATOM     12  N   UNL     1       0.867   2.276  20.463  0.00  0.00    +0.000 N 
ATOM     13  C   UNL     1       0.973   2.354  19.104  0.00  0.00    +0.000 C 
ATOM     14  O   UNL     1       0.241   1.778  18.315  0.00  0.00    +0.000 OA
ATOM     15  H   UNL     1       0.163   1.706  20.896  0.00  0.00    +0.000 HD
ENDBRANCH   3   7
BRANCH   6  16
ATOM     16  O   UNL     1       7.056   6.620  16.723  0.00  0.00    +0.000 OA
ATOM     17  C   UNL     1       7.708   7.058  17.898  0.00  0.00    +0.000 C 
ENDBRANCH   6  16
BRANCH   1  18
ATOM     18  C   UNL     1       4.297   8.051  17.415  0.00  0.00    +0.000 C 
BRANCH  18  19
ATOM     19  O   UNL     1       2.932   8.357  17.133  0.00  0.00    +0.000 OA
BRANCH  19  23
ATOM     20  C   UNL     1       0.722   9.393  20.523  0.00  0.00    +0.000 A 
ATOM     21  C   UNL     1       1.485   8.222  20.460  0.00  0.00    +0.000 A 
ATOM     22  C   UNL     1       2.214   7.920  19.307  0.00  0.00    +0.000 A 
ATOM     23  C   UNL     1       2.175   8.769  18.197  0.00  0.00    +0.000 A 
ATOM     24  C   UNL     1       1.427   9.946  18.265  0.00  0.00    +0.000 A 
ATOM     25  C   UNL     1       0.692  10.251  19.418  0.00  0.00    +0.000 A 
BRANCH  20  26
ATOM     26  C   UNL     1      -0.004   9.703  21.782  0.00  0.00    +0.000 C 
ATOM     27  O   UNL     1      -0.633   8.864  22.416  0.00  0.00    +0.000 OA
BRANCH  26  29
ATOM     28  C   UNL     1      -0.970  11.540  22.834  0.00  0.00    +0.000 C 
ATOM     29  O   UNL     1       0.143  11.007  22.117  0.00  0.00    +0.000 OA
ENDBRANCH  26  29
ENDBRANCH  20  26
ENDBRANCH  19  23
ENDBRANCH  18  19
ENDBRANCH   1  18
TORSDOF 7
ENDMDL
MODEL 7
REMARK VINA RESULT:      -7.9      1.259      1.968
REMARK  Name = 
REMARK  9 active torsions:
REMARK  status: ('A' for Active; 'I' for Inactive)
REMARK    1  A    between atoms: C_1  and  O_2
REMARK    2  A    between atoms: O_2  and  C_3
REMARK    3  A    between atoms: C_3  and  C_5
REMARK    4  A    between atoms: C_8  and  O_9
REMARK    5  A    between atoms: O_9  and  C_10
REMARK    6  A    between atoms: C_10  and  C_11
REMARK    7  A    between atoms: C_13  and  C_14
REMARK    8  A    between atoms: C_24  and  O_25
REMARK    9  A    between atoms: O_25  and  C_26
REMARK                            x       y       z     vdW  Elec       q    Type
REMARK                         _______ _______ _______ _____ _____    ______ ____
ROOT
ATOM      1  C   UNL     1       2.603   4.939  20.185  0.00  0.00    +0.000 A 
ATOM      2  C   UNL     1       3.737   5.588  19.633  0.00  0.00    +0.000 A 
ATOM      3  C   UNL     1       4.819   4.871  19.110  0.00  0.00    +0.000 A 
ATOM      4  C   UNL     1       4.835   3.487  19.228  0.00  0.00    +0.000 A 
ATOM      5  C   UNL     1       3.745   2.835  19.807  0.00  0.00    +0.000 A 
ATOM      6  C   UNL     1       2.620   3.536  20.279  0.00  0.00    +0.000 A 
ENDROOT
BRANCH   3   7
ATOM      7  C   UNL     1       5.841   5.563  18.321  0.00  0.00    +0.000 C 
ATOM      8  C   UNL     1       6.115   5.256  17.043  0.00  0.00    +0.000 C 
ATOM      9  S   UNL     1       5.377   4.036  16.064  0.00  0.00    +0.000 S 
ATOM     10  C   UNL     1       6.413   4.387  14.698  0.00  0.00    +0.000 C 
ATOM     11  O   UNL     1       6.385   3.780  13.638  0.00  0.00    +0.000 OA
ATOM     12  N   UNL     1       7.238   5.418  15.001  0.00  0.00    +0.000 N 
ATOM     13  C   UNL     1       7.156   5.961  16.251  0.00  0.00    +0.000 C 
ATOM     14  O   UNL     1       7.842   6.888  16.653  0.00  0.00    +0.000 OA
ATOM     15  H   UNL     1       7.903   5.759  14.331  0.00  0.00    +0.000 HD
ENDBRANCH   3   7
BRANCH   6  16
ATOM     16  O   UNL     1       1.638   2.670  20.666  0.00  0.00    +0.000 OA
ATOM     17  C   UNL     1       1.365   2.446  22.034  0.00  0.00    +0.000 C 
ENDBRANCH   6  16
BRANCH   1  18
ATOM     18  C   UNL     1       1.440   5.845  20.526  0.00  0.00    +0.000 C 
BRANCH  18  19
ATOM     19  O   UNL     1       1.931   7.119  20.940  0.00  0.00    +0.000 OA
BRANCH  19  23
ATOM     20  C   UNL     1      -0.057  10.484  19.466  0.00  0.00    +0.000 A 
ATOM     21  C   UNL     1      -0.329   9.952  20.731  0.00  0.00    +0.000 A 
ATOM     22  C   UNL     1       0.367   8.829  21.186  0.00  0.00    +0.000 A 
ATOM     23  C   UNL     1       1.325   8.210  20.377  0.00  0.00    +0.000 A 
ATOM     24  C   UNL     1       1.609   8.750  19.121  0.00  0.00    +0.000 A 
ATOM     25  C   UNL     1       0.911   9.874  18.661  0.00  0.00    +0.000 A 
BRANCH  20  26
ATOM     26  C   UNL     1      -0.785  11.706  19.036  0.00  0.00    +0.000 C 
ATOM     27  O   UNL     1      -0.226  12.680  18.547  0.00  0.00    +0.000 OA
BRANCH  26  29
ATOM     28  C   UNL     1      -2.683  12.656  19.990  0.00  0.00    +0.000 C 
ATOM     29  O   UNL     1      -2.116  11.577  19.247  0.00  0.00    +0.000 OA
ENDBRANCH  26  29
ENDBRANCH  20  26
ENDBRANCH  19  23
ENDBRANCH  18  19
ENDBRANCH   1  18
TORSDOF 7
ENDMDL
MODEL 8
REMARK VINA RESULT:      -7.9      1.329      2.253
REMARK  Name = 
REMARK  9 active torsions:
REMARK  status: ('A' for Active; 'I' for Inactive)
REMARK    1  A    between atoms: C_1  and  O_2
REMARK    2  A    between atoms: O_2  and  C_3
REMARK    3  A    between atoms: C_3  and  C_5
REMARK    4  A    between atoms: C_8  and  O_9
REMARK    5  A    between atoms: O_9  and  C_10
REMARK    6  A    between atoms: C_10  and  C_11
REMARK    7  A    between atoms: C_13  and  C_14
REMARK    8  A    between atoms: C_24  and  O_25
REMARK    9  A    between atoms: O_25  and  C_26
REMARK                            x       y       z     vdW  Elec       q    Type
REMARK                         _______ _______ _______ _____ _____    ______ ____
ROOT
ATOM      1  C   UNL     1       2.432   5.484  20.069  0.00  0.00    +0.000 A 
ATOM      2  C   UNL     1       3.616   6.020  19.502  0.00  0.00    +0.000 A 
ATOM      3  C   UNL     1       4.665   5.203  19.067  0.00  0.00    +0.000 A 
ATOM      4  C   UNL     1       4.595   3.834  19.291  0.00  0.00    +0.000 A 
ATOM      5  C   UNL     1       3.453   3.294  19.887  0.00  0.00    +0.000 A 
ATOM      6  C   UNL     1       2.362   4.095  20.272  0.00  0.00    +0.000 A 
ENDROOT
BRANCH   3   7
ATOM      7  C   UNL     1       5.746   5.769  18.256  0.00  0.00    +0.000 C 
ATOM      8  C   UNL     1       6.016   5.365  17.004  0.00  0.00    +0.000 C 
ATOM      9  S   UNL     1       5.205   4.144  16.088  0.00  0.00    +0.000 S 
ATOM     10  C   UNL     1       6.282   4.334  14.723  0.00  0.00    +0.000 C 
ATOM     11  O   UNL     1       6.225   3.667  13.701  0.00  0.00    +0.000 OA
ATOM     12  N   UNL     1       7.176   5.320  14.978  0.00  0.00    +0.000 N 
ATOM     13  C   UNL     1       7.116   5.944  16.191  0.00  0.00    +0.000 C 
ATOM     14  O   UNL     1       7.862   6.842  16.549  0.00  0.00    +0.000 OA
ATOM     15  H   UNL     1       7.873   5.571  14.301  0.00  0.00    +0.000 HD
ENDBRANCH   3   7
BRANCH   6  16
ATOM     16  O   UNL     1       1.320   3.321  20.695  0.00  0.00    +0.000 OA
ATOM     17  C   UNL     1       1.457   2.466  21.812  0.00  0.00    +0.000 C 
ENDBRANCH   6  16
BRANCH   1  18
ATOM     18  C   UNL     1       1.318   6.480  20.305  0.00  0.00    +0.000 C 
BRANCH  18  19
ATOM     19  O   UNL     1       1.874   7.737  20.691  0.00  0.00    +0.000 OA
BRANCH  19  23
ATOM     20  C   UNL     1      -0.185  11.077  19.256  0.00  0.00    +0.000 A 
ATOM     21  C   UNL     1       0.616  10.283  18.428  0.00  0.00    +0.000 A 
ATOM     22  C   UNL     1       1.280   9.170  18.951  0.00  0.00    +0.000 A 
ATOM     23  C   UNL     1       1.172   8.849  20.307  0.00  0.00    +0.000 A 
ATOM     24  C   UNL     1       0.360   9.631  21.131  0.00  0.00    +0.000 A 
ATOM     25  C   UNL     1      -0.305  10.749  20.611  0.00  0.00    +0.000 A 
BRANCH  20  26
ATOM     26  C   UNL     1      -0.912  12.224  18.655  0.00  0.00    +0.000 C 
ATOM     27  O   UNL     1      -0.345  13.163  18.108  0.00  0.00    +0.000 OA
BRANCH  26  29
ATOM     28  C   UNL     1      -2.850  11.332  17.726  0.00  0.00    +0.000 C 
ATOM     29  O   UNL     1      -2.251  12.073  18.789  0.00  0.00    +0.000 OA
ENDBRANCH  26  29
ENDBRANCH  20  26
ENDBRANCH  19  23
ENDBRANCH  18  19
ENDBRANCH   1  18
TORSDOF 7
ENDMDL
MODEL 9
REMARK VINA RESULT:      -7.9      5.032      7.741
REMARK  Name = 
REMARK  9 active torsions:
REMARK  status: ('A' for Active; 'I' for Inactive)
REMARK    1  A    between atoms: C_1  and  O_2
REMARK    2  A    between atoms: O_2  and  C_3
REMARK    3  A    between atoms: C_3  and  C_5
REMARK    4  A    between atoms: C_8  and  O_9
REMARK    5  A    between atoms: O_9  and  C_10
REMARK    6  A    between atoms: C_10  and  C_11
REMARK    7  A    between atoms: C_13  and  C_14
REMARK    8  A    between atoms: C_24  and  O_25
REMARK    9  A    between atoms: O_25  and  C_26
REMARK                            x       y       z     vdW  Elec       q    Type
REMARK                         _______ _______ _______ _____ _____    ______ ____
ROOT
ATOM      1  C   UNL     1       6.944   6.130  17.502  0.00  0.00    +0.000 A 
ATOM      2  C   UNL     1       6.101   5.619  18.522  0.00  0.00    +0.000 A 
ATOM      3  C   UNL     1       5.275   4.509  18.314  0.00  0.00    +0.000 A 
ATOM      4  C   UNL     1       5.195   3.953  17.044  0.00  0.00    +0.000 A 
ATOM      5  C   UNL     1       5.988   4.471  16.017  0.00  0.00    +0.000 A 
ATOM      6  C   UNL     1       6.872   5.545  16.226  0.00  0.00    +0.000 A 
ENDROOT
BRANCH   3   7
ATOM      7  C   UNL     1       4.623   3.858  19.453  0.00  0.00    +0.000 C 
ATOM      8  C   UNL     1       3.394   3.322  19.389  0.00  0.00    +0.000 C 
ATOM      9  S   UNL     1       2.330   3.271  18.027  0.00  0.00    +0.000 S 
ATOM     10  C   UNL     1       1.064   2.480  18.939  0.00  0.00    +0.000 C 
ATOM     11  O   UNL     1      -0.034   2.191  18.488  0.00  0.00    +0.000 OA
ATOM     12  N   UNL     1       1.488   2.247  20.205  0.00  0.00    +0.000 N 
ATOM     13  C   UNL     1       2.740   2.667  20.551  0.00  0.00    +0.000 C 
ATOM     14  O   UNL     1       3.242   2.523  21.656  0.00  0.00    +0.000 OA
ATOM     15  H   UNL     1       0.890   1.795  20.873  0.00  0.00    +0.000 HD
ENDBRANCH   3   7
BRANCH   6  16
ATOM     16  O   UNL     1       7.631   5.769  15.113  0.00  0.00    +0.000 OA
ATOM     17  C   UNL     1       7.402   5.048  13.920  0.00  0.00    +0.000 C 
ENDBRANCH   6  16
BRANCH   1  18
ATOM     18  C   UNL     1       7.916   7.203  17.941  0.00  0.00    +0.000 C 
BRANCH  18  19
ATOM     19  O   UNL     1       7.526   8.458  17.384  0.00  0.00    +0.000 OA
BRANCH  19  23
ATOM     20  C   UNL     1       9.583  11.660  19.106  0.00  0.00    +0.000 A 
ATOM     21  C   UNL     1       9.653  10.364  19.626  0.00  0.00    +0.000 A 
ATOM     22  C   UNL     1       8.953   9.321  19.012  0.00  0.00    +0.000 A 
ATOM     23  C   UNL     1       8.159   9.563  17.887  0.00  0.00    +0.000 A 
ATOM     24  C   UNL     1       8.101  10.854  17.357  0.00  0.00    +0.000 A 
ATOM     25  C   UNL     1       8.799  11.902  17.972  0.00  0.00    +0.000 A 
BRANCH  20  26
ATOM     26  C   UNL     1      10.377  12.733  19.759  0.00  0.00    +0.000 C 
ATOM     27  O   UNL     1      11.357  12.509  20.459  0.00  0.00    +0.000 OA
BRANCH  26  29
ATOM     28  C   UNL     1       9.286  14.619  20.577  0.00  0.00    +0.000 C 
ATOM     29  O   UNL     1       9.877  13.955  19.460  0.00  0.00    +0.000 OA
ENDBRANCH  26  29
ENDBRANCH  20  26
ENDBRANCH  19  23
ENDBRANCH  18  19
ENDBRANCH   1  18
TORSDOF 7
ENDMDL
