MODEL 1
REMARK VINA RESULT:      -7.4      0.000      0.000
REMARK  Name = 
REMARK  6 active torsions:
REMARK  status: ('A' for Active; 'I' for Inactive)
REMARK    1  A    between atoms: C_2  and  O_3
REMARK    2  A    between atoms: C_2  and  C_4
REMARK    3  A    between atoms: C_4  and  C_5
REMARK    4  A    between atoms: C_13  and  O_14
REMARK    5  A    between atoms: O_14  and  C_15
REMARK    6  A    between atoms: C_15  and  C_16
REMARK                            x       y       z     vdW  Elec       q    Type
REMARK                         _______ _______ _______ _____ _____    ______ ____
ROOT
ATOM      1  C   UNL     1       6.721   5.011  17.017  0.00  0.00    +0.000 C 
ATOM      2  C   UNL     1       6.995   5.094  15.502  0.00  0.00    +0.000 C 
ATOM      3  C   UNL     1       6.377   3.806  14.980  0.00  0.00    +0.000 C 
ATOM      4  C   UNL     1       5.131   3.615  15.842  0.00  0.00    +0.000 C 
ATOM      5  N   UNL     1       5.336   4.498  16.989  0.00  0.00    +0.000 N 
ATOM      6  C   UNL     1       4.337   4.868  17.844  0.00  0.00    +0.000 A 
ATOM      7  C   UNL     1       2.995   4.869  17.465  0.00  0.00    +0.000 A 
ATOM      8  C   UNL     1       2.019   5.387  18.317  0.00  0.00    +0.000 A 
ATOM      9  C   UNL     1       2.385   5.852  19.566  0.00  0.00    +0.000 A 
ATOM     10  C   UNL     1       3.725   5.788  19.894  0.00  0.00    +0.000 A 
ATOM     11  N   UNL     1       4.683   5.313  19.069  0.00  0.00    +0.000 NA
ENDROOT
BRANCH   1  12
ATOM     12  C   UNL     1       6.939   6.352  17.719  0.00  0.00    +0.000 C 
BRANCH  12  14
ATOM     13  O   UNL     1       8.126   5.314  19.572  0.00  0.00    +0.000 OA
ATOM     14  C   UNL     1       7.937   6.274  18.843  0.00  0.00    +0.000 C 
BRANCH  14  15
ATOM     15  O   UNL     1       8.626   7.432  18.997  0.00  0.00    +0.000 OA
ATOM     16  H   UNL     1       8.170   8.077  19.573  0.00  0.00    +0.000 HD
ENDBRANCH  14  15
ENDBRANCH  12  14
ENDBRANCH   1  12
BRANCH   9  17
ATOM     17  O   UNL     1       1.388   6.347  20.345  0.00  0.00    +0.000 OA
BRANCH  17  18
ATOM     18  C   UNL     1       1.701   7.560  21.039  0.00  0.00    +0.000 C 
BRANCH  18  19
ATOM     19  C   UNL     1       1.033   8.730  20.359  0.00  0.00    +0.000 A 
ATOM     20  C   UNL     1       1.351   9.052  19.027  0.00  0.00    +0.000 A 
ATOM     21  C   UNL     1       0.707  10.096  18.367  0.00  0.00    +0.000 A 
ATOM     22  C   UNL     1      -0.278  10.824  19.032  0.00  0.00    +0.000 A 
ATOM     23 CL   UNL     1      -1.075  12.111  18.217  0.00  0.00    +0.000 Cl
ATOM     24  C   UNL     1      -0.626  10.510  20.342  0.00  0.00    +0.000 A 
ATOM     25  C   UNL     1       0.019   9.465  20.999  0.00  0.00    +0.000 A 
ATOM     26 CL   UNL     1      -0.487   9.097  22.611  0.00  0.00    +0.000 Cl
ENDBRANCH  18  19
ENDBRANCH  17  18
ENDBRANCH   9  17
TORSDOF 6
ENDMDL
MODEL 2
REMARK VINA RESULT:      -7.3      3.635      7.640
REMARK  Name = 
REMARK  6 active torsions:
REMARK  status: ('A' for Active; 'I' for Inactive)
REMARK    1  A    between atoms: C_2  and  O_3
REMARK    2  A    between atoms: C_2  and  C_4
REMARK    3  A    between atoms: C_4  and  C_5
REMARK    4  A    between atoms: C_13  and  O_14
REMARK    5  A    between atoms: O_14  and  C_15
REMARK    6  A    between atoms: C_15  and  C_16
REMARK                            x       y       z     vdW  Elec       q    Type
REMARK                         _______ _______ _______ _____ _____    ______ ____
ROOT
ATOM      1  C   UNL     1       0.782   9.829  20.527  0.00  0.00    +0.000 C 
ATOM      2  C   UNL     1      -0.276  10.706  19.830  0.00  0.00    +0.000 C 
ATOM      3  C   UNL     1       0.511  11.343  18.696  0.00  0.00    +0.000 C 
ATOM      4  C   UNL     1       1.469  10.242  18.243  0.00  0.00    +0.000 C 
ATOM      5  N   UNL     1       1.464   9.275  19.339  0.00  0.00    +0.000 N 
ATOM      6  C   UNL     1       1.938   7.999  19.221  0.00  0.00    +0.000 A 
ATOM      7  C   UNL     1       2.006   7.341  17.994  0.00  0.00    +0.000 A 
ATOM      8  C   UNL     1       2.360   5.993  17.933  0.00  0.00    +0.000 A 
ATOM      9  C   UNL     1       2.699   5.325  19.096  0.00  0.00    +0.000 A 
ATOM     10  C   UNL     1       2.647   6.045  20.273  0.00  0.00    +0.000 A 
ATOM     11  N   UNL     1       2.280   7.344  20.349  0.00  0.00    +0.000 NA
ENDROOT
BRANCH   1  12
ATOM     12  C   UNL     1       0.156   8.818  21.489  0.00  0.00    +0.000 C 
BRANCH  12  14
ATOM     13  O   UNL     1       1.012   9.458  23.675  0.00  0.00    +0.000 OA
ATOM     14  C   UNL     1       0.075   9.323  22.905  0.00  0.00    +0.000 C 
BRANCH  14  15
ATOM     15  O   UNL     1      -1.198   9.606  23.275  0.00  0.00    +0.000 OA
ATOM     16  H   UNL     1      -1.290  10.479  23.705  0.00  0.00    +0.000 HD
ENDBRANCH  14  15
ENDBRANCH  12  14
ENDBRANCH   1  12
BRANCH   9  17
ATOM     17  O   UNL     1       3.031   4.014  18.968  0.00  0.00    +0.000 OA
BRANCH  17  18
ATOM     18  C   UNL     1       4.417   3.715  19.166  0.00  0.00    +0.000 C 
BRANCH  18  19
ATOM     19  C   UNL     1       5.197   4.034  17.914  0.00  0.00    +0.000 A 
ATOM     20  C   UNL     1       4.768   3.544  16.667  0.00  0.00    +0.000 A 
ATOM     21  C   UNL     1       5.446   3.872  15.495  0.00  0.00    +0.000 A 
ATOM     22  C   UNL     1       6.559   4.709  15.556  0.00  0.00    +0.000 A 
ATOM     23 CL   UNL     1       7.394   5.116  14.110  0.00  0.00    +0.000 Cl
ATOM     24  C   UNL     1       6.989   5.225  16.775  0.00  0.00    +0.000 A 
ATOM     25  C   UNL     1       6.308   4.896  17.946  0.00  0.00    +0.000 A 
ATOM     26 CL   UNL     1       6.866   5.602  19.422  0.00  0.00    +0.000 Cl
ENDBRANCH  18  19
ENDBRANCH  17  18
ENDBRANCH   9  17
TORSDOF 6
ENDMDL
MODEL 3
REMARK VINA RESULT:      -7.3      3.827      8.006
REMARK  Name = 
REMARK  6 active torsions:
REMARK  status: ('A' for Active; 'I' for Inactive)
REMARK    1  A    between atoms: C_2  and  O_3
REMARK    2  A    between atoms: C_2  and  C_4
REMARK    3  A    between atoms: C_4  and  C_5
REMARK    4  A    between atoms: C_13  and  O_14
REMARK    5  A    between atoms: O_14  and  C_15
REMARK    6  A    between atoms: C_15  and  C_16
REMARK                            x       y       z     vdW  Elec       q    Type
REMARK                         _______ _______ _______ _____ _____    ______ ____
ROOT
ATOM      1  C   UNL     1       0.337  10.648  20.761  0.00  0.00    +0.000 C 
ATOM      2  C   UNL     1      -0.658  11.576  20.037  0.00  0.00    +0.000 C 
ATOM      3  C   UNL     1       0.230  12.306  19.041  0.00  0.00    +0.000 C 
ATOM      4  C   UNL     1       1.239  11.248  18.597  0.00  0.00    +0.000 C 
ATOM      5  N   UNL     1       1.137  10.195  19.605  0.00  0.00    +0.000 N 
ATOM      6  C   UNL     1       1.635   8.934  19.431  0.00  0.00    +0.000 A 
ATOM      7  C   UNL     1       1.829   8.378  18.167  0.00  0.00    +0.000 A 
ATOM      8  C   UNL     1       2.202   7.041  18.032  0.00  0.00    +0.000 A 
ATOM      9  C   UNL     1       2.433   6.282  19.164  0.00  0.00    +0.000 A 
ATOM     10  C   UNL     1       2.259   6.903  20.386  0.00  0.00    +0.000 A 
ATOM     11  N   UNL     1       1.872   8.190  20.530  0.00  0.00    +0.000 NA
ENDROOT
BRANCH   1  12
ATOM     12  C   UNL     1      -0.370   9.560  21.572  0.00  0.00    +0.000 C 
BRANCH  12  14
ATOM     13  O   UNL     1      -1.546  10.853  23.264  0.00  0.00    +0.000 OA
ATOM     14  C   UNL     1      -0.725  10.001  22.966  0.00  0.00    +0.000 C 
BRANCH  14  15
ATOM     15  O   UNL     1       0.001   9.351  23.909  0.00  0.00    +0.000 OA
ATOM     16  H   UNL     1       0.456   9.955  24.529  0.00  0.00    +0.000 HD
ENDBRANCH  14  15
ENDBRANCH  12  14
ENDBRANCH   1  12
BRANCH   9  17
ATOM     17  O   UNL     1       2.790   4.986  18.964  0.00  0.00    +0.000 OA
BRANCH  17  18
ATOM     18  C   UNL     1       4.154   4.675  19.272  0.00  0.00    +0.000 C 
BRANCH  18  19
ATOM     19  C   UNL     1       4.979   4.668  18.009  0.00  0.00    +0.000 A 
ATOM     20  C   UNL     1       4.392   4.311  16.781  0.00  0.00    +0.000 A 
ATOM     21  C   UNL     1       5.126   4.348  15.597  0.00  0.00    +0.000 A 
ATOM     22  C   UNL     1       6.457   4.759  15.627  0.00  0.00    +0.000 A 
ATOM     23 CL   UNL     1       7.362   4.808  14.166  0.00  0.00    +0.000 Cl
ATOM     24  C   UNL     1       7.053   5.138  16.826  0.00  0.00    +0.000 A 
ATOM     25  C   UNL     1       6.317   5.101  18.009  0.00  0.00    +0.000 A 
ATOM     26 CL   UNL     1       7.101   5.624  19.458  0.00  0.00    +0.000 Cl
ENDBRANCH  18  19
ENDBRANCH  17  18
ENDBRANCH   9  17
TORSDOF 6
ENDMDL
MODEL 4
REMARK VINA RESULT:      -7.2      3.927      8.138
REMARK  Name = 
REMARK  6 active torsions:
REMARK  status: ('A' for Active; 'I' for Inactive)
REMARK    1  A    between atoms: C_2  and  O_3
REMARK    2  A    between atoms: C_2  and  C_4
REMARK    3  A    between atoms: C_4  and  C_5
REMARK    4  A    between atoms: C_13  and  O_14
REMARK    5  A    between atoms: O_14  and  C_15
REMARK    6  A    between atoms: C_15  and  C_16
REMARK                            x       y       z     vdW  Elec       q    Type
REMARK                         _______ _______ _______ _____ _____    ______ ____
ROOT
ATOM      1  C   UNL     1       0.024  11.548  20.570  0.00  0.00    +0.000 C 
ATOM      2  C   UNL     1      -0.783  12.549  19.721  0.00  0.00    +0.000 C 
ATOM      3  C   UNL     1       0.299  13.255  18.918  0.00  0.00    +0.000 C 
ATOM      4  C   UNL     1       1.314  12.154  18.614  0.00  0.00    +0.000 C 
ATOM      5  N   UNL     1       0.987  11.081  19.552  0.00  0.00    +0.000 N 
ATOM      6  C   UNL     1       1.442   9.800  19.420  0.00  0.00    +0.000 A 
ATOM      7  C   UNL     1       1.822   9.268  18.188  0.00  0.00    +0.000 A 
ATOM      8  C   UNL     1       2.144   7.915  18.070  0.00  0.00    +0.000 A 
ATOM      9  C   UNL     1       2.137   7.114  19.197  0.00  0.00    +0.000 A 
ATOM     10  C   UNL     1       1.787   7.711  20.392  0.00  0.00    +0.000 A 
ATOM     11  N   UNL     1       1.448   9.014  20.515  0.00  0.00    +0.000 NA
ENDROOT
BRANCH   1  12
ATOM     12  C   UNL     1      -0.867  10.480  21.208  0.00  0.00    +0.000 C 
BRANCH  12  14
ATOM     13  O   UNL     1      -1.024  11.480  23.421  0.00  0.00    +0.000 OA
ATOM     14  C   UNL     1      -0.831  10.505  22.713  0.00  0.00    +0.000 C 
BRANCH  14  15
ATOM     15  O   UNL     1      -0.525   9.293  23.238  0.00  0.00    +0.000 OA
ATOM     16  H   UNL     1       0.408   9.220  23.521  0.00  0.00    +0.000 HD
ENDBRANCH  14  15
ENDBRANCH  12  14
ENDBRANCH   1  12
BRANCH   9  17
ATOM     17  O   UNL     1       2.457   5.806  19.013  0.00  0.00    +0.000 OA
BRANCH  17  18
ATOM     18  C   UNL     1       3.825   5.471  19.274  0.00  0.00    +0.000 C 
BRANCH  18  19
ATOM     19  C   UNL     1       4.577   5.328  17.973  0.00  0.00    +0.000 A 
ATOM     20  C   UNL     1       5.546   6.280  17.607  0.00  0.00    +0.000 A 
ATOM     21  C   UNL     1       6.286   6.136  16.435  0.00  0.00    +0.000 A 
ATOM     22  C   UNL     1       6.073   5.026  15.620  0.00  0.00    +0.000 A 
ATOM     23 CL   UNL     1       6.987   4.847  14.175  0.00  0.00    +0.000 Cl
ATOM     24  C   UNL     1       5.135   4.060  15.972  0.00  0.00    +0.000 A 
ATOM     25  C   UNL     1       4.397   4.206  17.146  0.00  0.00    +0.000 A 
ATOM     26 CL   UNL     1       3.278   2.951  17.549  0.00  0.00    +0.000 Cl
ENDBRANCH  18  19
ENDBRANCH  17  18
ENDBRANCH   9  17
TORSDOF 6
ENDMDL
MODEL 5
REMARK VINA RESULT:      -7.1      2.401      3.157
REMARK  Name = 
REMARK  6 active torsions:
REMARK  status: ('A' for Active; 'I' for Inactive)
REMARK    1  A    between atoms: C_2  and  O_3
REMARK    2  A    between atoms: C_2  and  C_4
REMARK    3  A    between atoms: C_4  and  C_5
REMARK    4  A    between atoms: C_13  and  O_14
REMARK    5  A    between atoms: O_14  and  C_15
REMARK    6  A    between atoms: C_15  and  C_16
REMARK                            x       y       z     vdW  Elec       q    Type
REMARK                         _______ _______ _______ _____ _____    ______ ____
ROOT
ATOM      1  C   UNL     1       5.224   4.175  17.613  0.00  0.00    +0.000 C 
ATOM      2  C   UNL     1       6.703   4.253  17.187  0.00  0.00    +0.000 C 
ATOM      3  C   UNL     1       6.611   4.711  15.740  0.00  0.00    +0.000 C 
ATOM      4  C   UNL     1       5.432   5.683  15.732  0.00  0.00    +0.000 C 
ATOM      5  N   UNL     1       4.719   5.410  16.978  0.00  0.00    +0.000 N 
ATOM      6  C   UNL     1       3.789   6.254  17.516  0.00  0.00    +0.000 A 
ATOM      7  C   UNL     1       3.777   7.621  17.241  0.00  0.00    +0.000 A 
ATOM      8  C   UNL     1       2.903   8.472  17.918  0.00  0.00    +0.000 A 
ATOM      9  C   UNL     1       2.008   7.942  18.828  0.00  0.00    +0.000 A 
ATOM     10  C   UNL     1       2.046   6.575  19.027  0.00  0.00    +0.000 A 
ATOM     11  N   UNL     1       2.905   5.744  18.397  0.00  0.00    +0.000 NA
ENDROOT
BRANCH   1  12
ATOM     12  C   UNL     1       5.061   4.071  19.130  0.00  0.00    +0.000 C 
BRANCH  12  14
ATOM     13  O   UNL     1       3.188   2.565  19.508  0.00  0.00    +0.000 OA
ATOM     14  C   UNL     1       4.384   2.799  19.566  0.00  0.00    +0.000 C 
BRANCH  14  15
ATOM     15  O   UNL     1       5.262   1.901  20.076  0.00  0.00    +0.000 OA
ATOM     16  H   UNL     1       6.195   2.122  19.884  0.00  0.00    +0.000 HD
ENDBRANCH  14  15
ENDBRANCH  12  14
ENDBRANCH   1  12
BRANCH   9  17
ATOM     17  O   UNL     1       1.187   8.824  19.456  0.00  0.00    +0.000 OA
BRANCH  17  18
ATOM     18  C   UNL     1       1.164  10.141  18.894  0.00  0.00    +0.000 C 
BRANCH  18  19
ATOM     19  C   UNL     1      -0.262  10.578  18.664  0.00  0.00    +0.000 A 
ATOM     20  C   UNL     1      -1.005  10.040  17.598  0.00  0.00    +0.000 A 
ATOM     21  C   UNL     1      -2.338  10.393  17.401  0.00  0.00    +0.000 A 
ATOM     22  C   UNL     1      -2.950  11.283  18.282  0.00  0.00    +0.000 A 
ATOM     23 CL   UNL     1      -4.596  11.717  18.041  0.00  0.00    +0.000 Cl
ATOM     24  C   UNL     1      -2.242  11.812  19.357  0.00  0.00    +0.000 A 
ATOM     25  C   UNL     1      -0.908  11.456  19.552  0.00  0.00    +0.000 A 
ATOM     26 CL   UNL     1      -0.096  12.115  20.929  0.00  0.00    +0.000 Cl
ENDBRANCH  18  19
ENDBRANCH  17  18
ENDBRANCH   9  17
TORSDOF 6
ENDMDL
MODEL 6
REMARK VINA RESULT:      -7.1      4.834      7.818
REMARK  Name = 
REMARK  6 active torsions:
REMARK  status: ('A' for Active; 'I' for Inactive)
REMARK    1  A    between atoms: C_2  and  O_3
REMARK    2  A    between atoms: C_2  and  C_4
REMARK    3  A    between atoms: C_4  and  C_5
REMARK    4  A    between atoms: C_13  and  O_14
REMARK    5  A    between atoms: O_14  and  C_15
REMARK    6  A    between atoms: C_15  and  C_16
REMARK                            x       y       z     vdW  Elec       q    Type
REMARK                         _______ _______ _______ _____ _____    ______ ____
ROOT
ATOM      1  C   UNL     1       3.012   3.305  20.237  0.00  0.00    +0.000 C 
ATOM      2  C   UNL     1       1.484   3.120  20.161  0.00  0.00    +0.000 C 
ATOM      3  C   UNL     1       0.960   4.445  20.694  0.00  0.00    +0.000 C 
ATOM      4  C   UNL     1       1.951   5.478  20.160  0.00  0.00    +0.000 C 
ATOM      5  N   UNL     1       3.116   4.696  19.754  0.00  0.00    +0.000 N 
ATOM      6  C   UNL     1       4.105   5.182  18.945  0.00  0.00    +0.000 A 
ATOM      7  C   UNL     1       3.888   6.230  18.051  0.00  0.00    +0.000 A 
ATOM      8  C   UNL     1       4.880   6.602  17.142  0.00  0.00    +0.000 A 
ATOM      9  C   UNL     1       6.103   5.959  17.170  0.00  0.00    +0.000 A 
ATOM     10  C   UNL     1       6.266   4.955  18.105  0.00  0.00    +0.000 A 
ATOM     11  N   UNL     1       5.305   4.567  18.973  0.00  0.00    +0.000 NA
ENDROOT
BRANCH   1  12
ATOM     12  C   UNL     1       3.764   2.243  19.433  0.00  0.00    +0.000 C 
BRANCH  12  14
ATOM     13  O   UNL     1       5.167   1.771  21.364  0.00  0.00    +0.000 OA
ATOM     14  C   UNL     1       4.742   1.457  20.265  0.00  0.00    +0.000 C 
BRANCH  14  15
ATOM     15  O   UNL     1       5.149   0.324  19.641  0.00  0.00    +0.000 OA
ATOM     16  H   UNL     1       4.744   0.203  18.759  0.00  0.00    +0.000 HD
ENDBRANCH  14  15
ENDBRANCH  12  14
ENDBRANCH   1  12
BRANCH   9  17
ATOM     17  O   UNL     1       7.024   6.366  16.257  0.00  0.00    +0.000 OA
BRANCH  17  18
ATOM     18  C   UNL     1       7.805   5.319  15.671  0.00  0.00    +0.000 C 
BRANCH  18  19
ATOM     19  C   UNL     1       7.038   4.675  14.543  0.00  0.00    +0.000 A 
ATOM     20  C   UNL     1       5.905   3.886  14.815  0.00  0.00    +0.000 A 
ATOM     21  C   UNL     1       5.156   3.326  13.783  0.00  0.00    +0.000 A 
ATOM     22  C   UNL     1       5.524   3.562  12.459  0.00  0.00    +0.000 A 
ATOM     23 CL   UNL     1       4.598   2.873  11.186  0.00  0.00    +0.000 Cl
ATOM     24  C   UNL     1       6.627   4.357  12.165  0.00  0.00    +0.000 A 
ATOM     25  C   UNL     1       7.375   4.917  13.199  0.00  0.00    +0.000 A 
ATOM     26 CL   UNL     1       8.709   5.929  12.767  0.00  0.00    +0.000 Cl
ENDBRANCH  18  19
ENDBRANCH  17  18
ENDBRANCH   9  17
TORSDOF 6
ENDMDL
MODEL 7
REMARK VINA RESULT:      -7.0      1.762      2.231
REMARK  Name = 
REMARK  6 active torsions:
REMARK  status: ('A' for Active; 'I' for Inactive)
REMARK    1  A    between atoms: C_2  and  O_3
REMARK    2  A    between atoms: C_2  and  C_4
REMARK    3  A    between atoms: C_4  and  C_5
REMARK    4  A    between atoms: C_13  and  O_14
REMARK    5  A    between atoms: O_14  and  C_15
REMARK    6  A    between atoms: C_15  and  C_16
REMARK                            x       y       z     vdW  Elec       q    Type
REMARK                         _______ _______ _______ _____ _____    ______ ____
ROOT
ATOM      1  C   UNL     1       6.088   4.759  17.934  0.00  0.00    +0.000 C 
ATOM      2  C   UNL     1       7.261   4.939  16.951  0.00  0.00    +0.000 C 
ATOM      3  C   UNL     1       6.614   4.656  15.603  0.00  0.00    +0.000 C 
ATOM      4  C   UNL     1       5.212   5.249  15.731  0.00  0.00    +0.000 C 
ATOM      5  N   UNL     1       5.019   5.433  17.168  0.00  0.00    +0.000 N 
ATOM      6  C   UNL     1       4.035   6.216  17.703  0.00  0.00    +0.000 A 
ATOM      7  C   UNL     1       3.457   7.271  16.997  0.00  0.00    +0.000 A 
ATOM      8  C   UNL     1       2.559   8.135  17.625  0.00  0.00    +0.000 A 
ATOM      9  C   UNL     1       2.203   7.906  18.941  0.00  0.00    +0.000 A 
ATOM     10  C   UNL     1       2.783   6.822  19.572  0.00  0.00    +0.000 A 
ATOM     11  N   UNL     1       3.673   5.993  18.983  0.00  0.00    +0.000 NA
ENDROOT
BRANCH   1  12
ATOM     12  C   UNL     1       6.400   5.329  19.319  0.00  0.00    +0.000 C 
BRANCH  12  14
ATOM     13  O   UNL     1       8.694   5.024  20.069  0.00  0.00    +0.000 OA
ATOM     14  C   UNL     1       7.850   5.692  19.494  0.00  0.00    +0.000 C 
BRANCH  14  15
ATOM     15  O   UNL     1       8.144   6.899  18.952  0.00  0.00    +0.000 OA
ATOM     16  H   UNL     1       7.354   7.449  18.784  0.00  0.00    +0.000 HD
ENDBRANCH  14  15
ENDBRANCH  12  14
ENDBRANCH   1  12
BRANCH   9  17
ATOM     17  O   UNL     1       1.328   8.786  19.495  0.00  0.00    +0.000 OA
BRANCH  17  18
ATOM     18  C   UNL     1       1.300  10.081  18.886  0.00  0.00    +0.000 C 
BRANCH  18  19
ATOM     19  C   UNL     1      -0.128  10.521  18.676  0.00  0.00    +0.000 A 
ATOM     20  C   UNL     1      -0.908   9.938  17.660  0.00  0.00    +0.000 A 
ATOM     21  C   UNL     1      -2.243  10.295  17.486  0.00  0.00    +0.000 A 
ATOM     22  C   UNL     1      -2.820  11.234  18.338  0.00  0.00    +0.000 A 
ATOM     23 CL   UNL     1      -4.468  11.673  18.124  0.00  0.00    +0.000 Cl
ATOM     24  C   UNL     1      -2.076  11.809  19.364  0.00  0.00    +0.000 A 
ATOM     25  C   UNL     1      -0.740  11.449  19.537  0.00  0.00    +0.000 A 
ATOM     26 CL   UNL     1       0.118  12.167  20.855  0.00  0.00    +0.000 Cl
ENDBRANCH  18  19
ENDBRANCH  17  18
ENDBRANCH   9  17
TORSDOF 6
ENDMDL
MODEL 8
REMARK VINA RESULT:      -7.0      1.107      1.667
REMARK  Name = 
REMARK  6 active torsions:
REMARK  status: ('A' for Active; 'I' for Inactive)
REMARK    1  A    between atoms: C_2  and  O_3
REMARK    2  A    between atoms: C_2  and  C_4
REMARK    3  A    between atoms: C_4  and  C_5
REMARK    4  A    between atoms: C_13  and  O_14
REMARK    5  A    between atoms: O_14  and  C_15
REMARK    6  A    between atoms: C_15  and  C_16
REMARK                            x       y       z     vdW  Elec       q    Type
REMARK                         _______ _______ _______ _____ _____    ______ ____
ROOT
ATOM      1  C   UNL     1       6.755   5.093  16.566  0.00  0.00    +0.000 C 
ATOM      2  C   UNL     1       6.901   5.105  15.032  0.00  0.00    +0.000 C 
ATOM      3  C   UNL     1       6.342   3.748  14.632  0.00  0.00    +0.000 C 
ATOM      4  C   UNL     1       5.187   3.520  15.605  0.00  0.00    +0.000 C 
ATOM      5  N   UNL     1       5.415   4.482  16.682  0.00  0.00    +0.000 N 
ATOM      6  C   UNL     1       4.462   4.830  17.597  0.00  0.00    +0.000 A 
ATOM      7  C   UNL     1       3.098   4.713  17.332  0.00  0.00    +0.000 A 
ATOM      8  C   UNL     1       2.157   5.211  18.234  0.00  0.00    +0.000 A 
ATOM      9  C   UNL     1       2.585   5.774  19.422  0.00  0.00    +0.000 A 
ATOM     10  C   UNL     1       3.948   5.825  19.639  0.00  0.00    +0.000 A 
ATOM     11  N   UNL     1       4.871   5.371  18.763  0.00  0.00    +0.000 NA
ENDROOT
BRANCH   1  12
ATOM     12  C   UNL     1       6.926   6.486  17.175  0.00  0.00    +0.000 C 
BRANCH  12  14
ATOM     13  O   UNL     1       8.477   7.447  18.784  0.00  0.00    +0.000 OA
ATOM     14  C   UNL     1       7.829   6.496  18.379  0.00  0.00    +0.000 C 
BRANCH  14  15
ATOM     15  O   UNL     1       7.879   5.287  18.991  0.00  0.00    +0.000 OA
ATOM     16  H   UNL     1       8.771   5.058  19.319  0.00  0.00    +0.000 HD
ENDBRANCH  14  15
ENDBRANCH  12  14
ENDBRANCH   1  12
BRANCH   9  17
ATOM     17  O   UNL     1       1.618   6.242  20.254  0.00  0.00    +0.000 OA
BRANCH  17  18
ATOM     18  C   UNL     1       1.981   7.397  21.020  0.00  0.00    +0.000 C 
BRANCH  18  19
ATOM     19  C   UNL     1       1.037   8.534  20.716  0.00  0.00    +0.000 A 
ATOM     20  C   UNL     1       0.129   8.982  21.692  0.00  0.00    +0.000 A 
ATOM     21  C   UNL     1      -0.714  10.064  21.446  0.00  0.00    +0.000 A 
ATOM     22  C   UNL     1      -0.648  10.721  20.219  0.00  0.00    +0.000 A 
ATOM     23 CL   UNL     1      -1.686  12.057  19.916  0.00  0.00    +0.000 Cl
ATOM     24  C   UNL     1       0.258  10.310  19.245  0.00  0.00    +0.000 A 
ATOM     25  C   UNL     1       1.100   9.228  19.494  0.00  0.00    +0.000 A 
ATOM     26 CL   UNL     1       2.232   8.793  18.261  0.00  0.00    +0.000 Cl
ENDBRANCH  18  19
ENDBRANCH  17  18
ENDBRANCH   9  17
TORSDOF 6
ENDMDL
MODEL 9
REMARK VINA RESULT:      -7.0      3.777      7.866
REMARK  Name = 
REMARK  6 active torsions:
REMARK  status: ('A' for Active; 'I' for Inactive)
REMARK    1  A    between atoms: C_2  and  O_3
REMARK    2  A    between atoms: C_2  and  C_4
REMARK    3  A    between atoms: C_4  and  C_5
REMARK    4  A    between atoms: C_13  and  O_14
REMARK    5  A    between atoms: O_14  and  C_15
REMARK    6  A    between atoms: C_15  and  C_16
REMARK                            x       y       z     vdW  Elec       q    Type
REMARK                         _______ _______ _______ _____ _____    ______ ____
ROOT
ATOM      1  C   UNL     1       0.460  10.583  20.702  0.00  0.00    +0.000 C 
ATOM      2  C   UNL     1      -0.426  11.544  19.886  0.00  0.00    +0.000 C 
ATOM      3  C   UNL     1       0.565  12.171  18.917  0.00  0.00    +0.000 C 
ATOM      4  C   UNL     1       1.521  11.030  18.574  0.00  0.00    +0.000 C 
ATOM      5  N   UNL     1       1.291  10.029  19.614  0.00  0.00    +0.000 N 
ATOM      6  C   UNL     1       1.709   8.732  19.518  0.00  0.00    +0.000 A 
ATOM      7  C   UNL     1       1.935   8.112  18.290  0.00  0.00    +0.000 A 
ATOM      8  C   UNL     1       2.223   6.748  18.228  0.00  0.00    +0.000 A 
ATOM      9  C   UNL     1       2.336   6.023  19.400  0.00  0.00    +0.000 A 
ATOM     10  C   UNL     1       2.136   6.706  20.585  0.00  0.00    +0.000 A 
ATOM     11  N   UNL     1       1.832   8.021  20.657  0.00  0.00    +0.000 NA
ENDROOT
BRANCH   1  12
ATOM     12  C   UNL     1      -0.365   9.580  21.511  0.00  0.00    +0.000 C 
BRANCH  12  14
ATOM     13  O   UNL     1      -1.550  10.624  23.361  0.00  0.00    +0.000 OA
ATOM     14  C   UNL     1      -0.585  10.011  22.936  0.00  0.00    +0.000 C 
BRANCH  14  15
ATOM     15  O   UNL     1       0.448   9.660  23.741  0.00  0.00    +0.000 OA
ATOM     16  H   UNL     1       0.213   9.657  24.690  0.00  0.00    +0.000 HD
ENDBRANCH  14  15
ENDBRANCH  12  14
ENDBRANCH   1  12
BRANCH   9  17
ATOM     17  O   UNL     1       2.613   4.699  19.271  0.00  0.00    +0.000 OA
BRANCH  17  18
ATOM     18  C   UNL     1       3.980   4.338  19.501  0.00  0.00    +0.000 C 
BRANCH  18  19
ATOM     19  C   UNL     1       4.776   4.500  18.229  0.00  0.00    +0.000 A 
ATOM     20  C   UNL     1       6.044   5.108  18.258  0.00  0.00    +0.000 A 
ATOM     21  C   UNL     1       6.814   5.219  17.103  0.00  0.00    +0.000 A 
ATOM     22  C   UNL     1       6.328   4.707  15.901  0.00  0.00    +0.000 A 
ATOM     23 CL   UNL     1       7.280   4.842  14.476  0.00  0.00    +0.000 Cl
ATOM     24  C   UNL     1       5.086   4.081  15.851  0.00  0.00    +0.000 A 
ATOM     25  C   UNL     1       4.318   3.971  17.009  0.00  0.00    +0.000 A 
ATOM     26 CL   UNL     1       2.803   3.145  16.890  0.00  0.00    +0.000 Cl
ENDBRANCH  18  19
ENDBRANCH  17  18
ENDBRANCH   9  17
TORSDOF 6
ENDMDL
