MODEL 1
REMARK VINA RESULT:      -7.2      0.000      0.000
REMARK  Name = 
REMARK  8 active torsions:
REMARK  status: ('A' for Active; 'I' for Inactive)
REMARK    1  A    between atoms: C_1  and  C_2
REMARK    2  A    between atoms: C_2  and  C_3
REMARK    3  A    between atoms: C_6  and  C_7
REMARK    4  A    between atoms: C_7  and  C_8
REMARK    5  A    between atoms: C_7  and  N_9
REMARK    6  A    between atoms: C_12  and  N_13
REMARK    7  A    between atoms: N_13  and  S_14
REMARK    8  A    between atoms: S_14  and  C_17
REMARK                            x       y       z     vdW  Elec       q    Type
REMARK                         _______ _______ _______ _____ _____    ______ ____
ROOT
ATOM      1  N   UNL     1       6.779   5.936  17.267  0.00  0.00    +0.000 NA
ATOM      2  C   UNL     1       7.050   4.667  16.559  0.00  0.00    +0.000 C 
ATOM      3  C   UNL     1       5.914   4.258  15.627  0.00  0.00    +0.000 C 
ATOM      4  C   UNL     1       4.608   4.098  16.386  0.00  0.00    +0.000 C 
ATOM      5  C   UNL     1       4.321   5.410  17.119  0.00  0.00    +0.000 C 
ATOM      6  C   UNL     1       5.496   5.873  17.987  0.00  0.00    +0.000 C 
ENDROOT
BRANCH   1   7
ATOM      7  C   UNL     1       7.924   6.255  18.190  0.00  0.00    +0.000 C 
ATOM      8  C   UNL     1       7.690   5.806  19.640  0.00  0.00    +0.000 C 
BRANCH   7  12
ATOM      9  C   UNL     1       8.721   9.703  18.690  0.00  0.00    +0.000 A 
ATOM     10  N   UNL     1       7.925   9.838  17.621  0.00  0.00    +0.000 NA
ATOM     11  O   UNL     1       7.604   8.515  17.299  0.00  0.00    +0.000 OA
ATOM     12  C   UNL     1       8.247   7.728  18.213  0.00  0.00    +0.000 A 
ATOM     13  N   UNL     1       8.984   8.416  19.060  0.00  0.00    +0.000 NA
BRANCH   9  15
ATOM     14  C   UNL     1      10.545  11.340  19.060  0.00  0.00    +0.000 C 
ATOM     15  C   UNL     1       9.177  10.847  19.514  0.00  0.00    +0.000 C 
ENDBRANCH   9  15
ENDBRANCH   7  12
ENDBRANCH   1   7
BRANCH   4  16
ATOM     16  N   UNL     1       4.636   2.978  17.369  0.00  0.00    +0.000 NA
ATOM     17  H   UNL     1       5.192   3.184  18.202  0.00  0.00    +0.000 HD
BRANCH  16  18
ATOM     18  S   UNL     1       3.166   2.324  17.907  0.00  0.00    +0.000 S 
ATOM     19  O   UNL     1       2.219   2.534  16.836  0.00  0.00    +0.000 OA
ATOM     20  O   UNL     1       3.430   1.004  18.435  0.00  0.00    +0.000 OA
BRANCH  18  21
ATOM     21  C   UNL     1       2.564   3.275  19.287  0.00  0.00    +0.000 A 
ATOM     22  C   UNL     1       1.815   4.435  19.357  0.00  0.00    +0.000 A 
ATOM     23  C   UNL     1       1.559   4.841  20.696  0.00  0.00    +0.000 A 
ATOM     24  C   UNL     1       2.125   3.980  21.611  0.00  0.00    +0.000 A 
ATOM     25  S   UNL     1       2.961   2.693  20.849  0.00  0.00    +0.000 S 
ENDBRANCH  18  21
ENDBRANCH  16  18
ENDBRANCH   4  16
TORSDOF 6
ENDMDL
MODEL 2
REMARK VINA RESULT:      -6.9      0.805      1.031
REMARK  Name = 
REMARK  8 active torsions:
REMARK  status: ('A' for Active; 'I' for Inactive)
REMARK    1  A    between atoms: C_1  and  C_2
REMARK    2  A    between atoms: C_2  and  C_3
REMARK    3  A    between atoms: C_6  and  C_7
REMARK    4  A    between atoms: C_7  and  C_8
REMARK    5  A    between atoms: C_7  and  N_9
REMARK    6  A    between atoms: C_12  and  N_13
REMARK    7  A    between atoms: N_13  and  S_14
REMARK    8  A    between atoms: S_14  and  C_17
REMARK                            x       y       z     vdW  Elec       q    Type
REMARK                         _______ _______ _______ _____ _____    ______ ____
ROOT
ATOM      1  N   UNL     1       6.494   6.096  17.377  0.00  0.00    +0.000 NA
ATOM      2  C   UNL     1       6.686   4.963  16.447  0.00  0.00    +0.000 C 
ATOM      3  C   UNL     1       5.403   4.576  15.718  0.00  0.00    +0.000 C 
ATOM      4  C   UNL     1       4.306   4.194  16.698  0.00  0.00    +0.000 C 
ATOM      5  C   UNL     1       4.102   5.364  17.663  0.00  0.00    +0.000 C 
ATOM      6  C   UNL     1       5.406   5.817  18.328  0.00  0.00    +0.000 C 
ENDROOT
BRANCH   1   7
ATOM      7  C   UNL     1       7.790   6.397  18.081  0.00  0.00    +0.000 C 
ATOM      8  C   UNL     1       7.815   5.941  19.547  0.00  0.00    +0.000 C 
BRANCH   7  12
ATOM      9  C   UNL     1       8.690   9.836  18.449  0.00  0.00    +0.000 A 
ATOM     10  N   UNL     1       7.747   9.979  17.508  0.00  0.00    +0.000 NA
ATOM     11  O   UNL     1       7.367   8.659  17.240  0.00  0.00    +0.000 OA
ATOM     12  C   UNL     1       8.130   7.866  18.052  0.00  0.00    +0.000 A 
ATOM     13  N   UNL     1       8.991   8.547  18.780  0.00  0.00    +0.000 NA
BRANCH   9  15
ATOM     14  C   UNL     1       9.195  10.749  20.698  0.00  0.00    +0.000 C 
ATOM     15  C   UNL     1       9.274  10.976  19.193  0.00  0.00    +0.000 C 
ENDBRANCH   9  15
ENDBRANCH   7  12
ENDBRANCH   1   7
BRANCH   4  16
ATOM     16  N   UNL     1       4.619   2.962  17.475  0.00  0.00    +0.000 NA
ATOM     17  H   UNL     1       5.236   3.132  18.274  0.00  0.00    +0.000 HD
BRANCH  16  18
ATOM     18  S   UNL     1       3.339   2.001  18.038  0.00  0.00    +0.000 S 
ATOM     19  O   UNL     1       2.322   2.049  17.012  0.00  0.00    +0.000 OA
ATOM     20  O   UNL     1       3.889   0.746  18.498  0.00  0.00    +0.000 OA
BRANCH  18  21
ATOM     21  C   UNL     1       2.618   2.759  19.479  0.00  0.00    +0.000 A 
ATOM     22  C   UNL     1       2.973   2.733  20.815  0.00  0.00    +0.000 A 
ATOM     23  C   UNL     1       2.095   3.503  21.629  0.00  0.00    +0.000 A 
ATOM     24  C   UNL     1       1.091   4.089  20.889  0.00  0.00    +0.000 A 
ATOM     25  S   UNL     1       1.214   3.706  19.224  0.00  0.00    +0.000 S 
ENDBRANCH  18  21
ENDBRANCH  16  18
ENDBRANCH   4  16
TORSDOF 6
ENDMDL
MODEL 3
REMARK VINA RESULT:      -6.9      5.002      7.144
REMARK  Name = 
REMARK  8 active torsions:
REMARK  status: ('A' for Active; 'I' for Inactive)
REMARK    1  A    between atoms: C_1  and  C_2
REMARK    2  A    between atoms: C_2  and  C_3
REMARK    3  A    between atoms: C_6  and  C_7
REMARK    4  A    between atoms: C_7  and  C_8
REMARK    5  A    between atoms: C_7  and  N_9
REMARK    6  A    between atoms: C_12  and  N_13
REMARK    7  A    between atoms: N_13  and  S_14
REMARK    8  A    between atoms: S_14  and  C_17
REMARK                            x       y       z     vdW  Elec       q    Type
REMARK                         _______ _______ _______ _____ _____    ______ ____
ROOT
ATOM      1  N   UNL     1       1.289   7.830  20.037  0.00  0.00    +0.000 NA
ATOM      2  C   UNL     1       2.254   7.937  18.922  0.00  0.00    +0.000 C 
ATOM      3  C   UNL     1       2.412   6.630  18.152  0.00  0.00    +0.000 C 
ATOM      4  C   UNL     1       2.876   5.506  19.063  0.00  0.00    +0.000 C 
ATOM      5  C   UNL     1       1.880   5.389  20.220  0.00  0.00    +0.000 C 
ATOM      6  C   UNL     1       1.649   6.723  20.938  0.00  0.00    +0.000 C 
ENDROOT
BRANCH   1   7
ATOM      7  C   UNL     1       1.214   9.145  20.767  0.00  0.00    +0.000 C 
ATOM      8  C   UNL     1       0.518   9.051  22.133  0.00  0.00    +0.000 C 
BRANCH   7  12
ATOM      9  C   UNL     1      -0.697  11.321  18.673  0.00  0.00    +0.000 A 
ATOM     10  N   UNL     1       0.437  12.033  18.714  0.00  0.00    +0.000 NA
ATOM     11  O   UNL     1       1.246  11.287  19.577  0.00  0.00    +0.000 OA
ATOM     12  C   UNL     1       0.504  10.205  19.963  0.00  0.00    +0.000 A 
ATOM     13  N   UNL     1      -0.716  10.211  19.466  0.00  0.00    +0.000 NA
BRANCH   9  15
ATOM     14  C   UNL     1      -3.158  11.499  18.432  0.00  0.00    +0.000 C 
ATOM     15  C   UNL     1      -1.807  11.614  17.737  0.00  0.00    +0.000 C 
ENDBRANCH   9  15
ENDBRANCH   7  12
ENDBRANCH   1   7
BRANCH   4  16
ATOM     16  N   UNL     1       4.245   5.725  19.610  0.00  0.00    +0.000 NA
ATOM     17  H   UNL     1       4.265   5.815  20.629  0.00  0.00    +0.000 HD
BRANCH  16  18
ATOM     18  S   UNL     1       5.478   4.639  19.188  0.00  0.00    +0.000 S 
ATOM     19  O   UNL     1       6.701   5.195  19.723  0.00  0.00    +0.000 OA
ATOM     20  O   UNL     1       5.040   3.306  19.534  0.00  0.00    +0.000 OA
BRANCH  18  21
ATOM     21  C   UNL     1       5.678   4.628  17.419  0.00  0.00    +0.000 A 
ATOM     22  C   UNL     1       4.963   4.009  16.409  0.00  0.00    +0.000 A 
ATOM     23  C   UNL     1       5.489   4.288  15.117  0.00  0.00    +0.000 A 
ATOM     24  C   UNL     1       6.595   5.108  15.178  0.00  0.00    +0.000 A 
ATOM     25  S   UNL     1       6.990   5.532  16.791  0.00  0.00    +0.000 S 
ENDBRANCH  18  21
ENDBRANCH  16  18
ENDBRANCH   4  16
TORSDOF 6
ENDMDL
MODEL 4
REMARK VINA RESULT:      -6.9      5.252      6.892
REMARK  Name = 
REMARK  8 active torsions:
REMARK  status: ('A' for Active; 'I' for Inactive)
REMARK    1  A    between atoms: C_1  and  C_2
REMARK    2  A    between atoms: C_2  and  C_3
REMARK    3  A    between atoms: C_6  and  C_7
REMARK    4  A    between atoms: C_7  and  C_8
REMARK    5  A    between atoms: C_7  and  N_9
REMARK    6  A    between atoms: C_12  and  N_13
REMARK    7  A    between atoms: N_13  and  S_14
REMARK    8  A    between atoms: S_14  and  C_17
REMARK                            x       y       z     vdW  Elec       q    Type
REMARK                         _______ _______ _______ _____ _____    ______ ____
ROOT
ATOM      1  N   UNL     1       1.360   7.864  19.914  0.00  0.00    +0.000 NA
ATOM      2  C   UNL     1       2.328   7.892  18.798  0.00  0.00    +0.000 C 
ATOM      3  C   UNL     1       2.467   6.540  18.104  0.00  0.00    +0.000 C 
ATOM      4  C   UNL     1       2.910   5.463  19.079  0.00  0.00    +0.000 C 
ATOM      5  C   UNL     1       1.911   5.428  20.237  0.00  0.00    +0.000 C 
ATOM      6  C   UNL     1       1.699   6.804  20.878  0.00  0.00    +0.000 C 
ENDROOT
BRANCH   1   7
ATOM      7  C   UNL     1       1.304   9.219  20.568  0.00  0.00    +0.000 C 
ATOM      8  C   UNL     1       0.721   9.193  21.989  0.00  0.00    +0.000 C 
BRANCH   7  12
ATOM      9  C   UNL     1      -0.310  11.879  18.809  0.00  0.00    +0.000 A 
ATOM     10  N   UNL     1      -1.388  11.122  19.054  0.00  0.00    +0.000 NA
ATOM     11  O   UNL     1      -0.848  10.002  19.695  0.00  0.00    +0.000 OA
ATOM     12  C   UNL     1       0.502  10.210  19.762  0.00  0.00    +0.000 A 
ATOM     13  N   UNL     1       0.882  11.333  19.186  0.00  0.00    +0.000 NA
BRANCH   9  15
ATOM     14  C   UNL     1       0.390  14.226  19.190  0.00  0.00    +0.000 C 
ATOM     15  C   UNL     1      -0.390  13.268  18.299  0.00  0.00    +0.000 C 
ENDBRANCH   9  15
ENDBRANCH   7  12
ENDBRANCH   1   7
BRANCH   4  16
ATOM     16  N   UNL     1       4.282   5.690  19.617  0.00  0.00    +0.000 NA
ATOM     17  H   UNL     1       4.307   5.785  20.636  0.00  0.00    +0.000 HD
BRANCH  16  18
ATOM     18  S   UNL     1       5.518   4.609  19.192  0.00  0.00    +0.000 S 
ATOM     19  O   UNL     1       6.739   5.167  19.729  0.00  0.00    +0.000 OA
ATOM     20  O   UNL     1       5.083   3.274  19.533  0.00  0.00    +0.000 OA
BRANCH  18  21
ATOM     21  C   UNL     1       5.718   4.604  17.422  0.00  0.00    +0.000 A 
ATOM     22  C   UNL     1       4.990   4.009  16.409  0.00  0.00    +0.000 A 
ATOM     23  C   UNL     1       5.523   4.284  15.119  0.00  0.00    +0.000 A 
ATOM     24  C   UNL     1       6.647   5.078  15.186  0.00  0.00    +0.000 A 
ATOM     25  S   UNL     1       7.051   5.483  16.800  0.00  0.00    +0.000 S 
ENDBRANCH  18  21
ENDBRANCH  16  18
ENDBRANCH   4  16
TORSDOF 6
ENDMDL
MODEL 5
REMARK VINA RESULT:      -6.7      4.021      5.910
REMARK  Name = 
REMARK  8 active torsions:
REMARK  status: ('A' for Active; 'I' for Inactive)
REMARK    1  A    between atoms: C_1  and  C_2
REMARK    2  A    between atoms: C_2  and  C_3
REMARK    3  A    between atoms: C_6  and  C_7
REMARK    4  A    between atoms: C_7  and  C_8
REMARK    5  A    between atoms: C_7  and  N_9
REMARK    6  A    between atoms: C_12  and  N_13
REMARK    7  A    between atoms: N_13  and  S_14
REMARK    8  A    between atoms: S_14  and  C_17
REMARK                            x       y       z     vdW  Elec       q    Type
REMARK                         _______ _______ _______ _____ _____    ______ ____
ROOT
ATOM      1  N   UNL     1       5.008   4.610  18.166  0.00  0.00    +0.000 NA
ATOM      2  C   UNL     1       4.982   5.542  19.313  0.00  0.00    +0.000 C 
ATOM      3  C   UNL     1       3.577   5.753  19.868  0.00  0.00    +0.000 C 
ATOM      4  C   UNL     1       2.639   6.297  18.804  0.00  0.00    +0.000 C 
ATOM      5  C   UNL     1       2.661   5.335  17.614  0.00  0.00    +0.000 C 
ATOM      6  C   UNL     1       4.079   5.048  17.111  0.00  0.00    +0.000 C 
ENDROOT
BRANCH   1   7
ATOM      7  C   UNL     1       6.417   4.479  17.653  0.00  0.00    +0.000 C 
ATOM      8  C   UNL     1       7.388   5.509  18.251  0.00  0.00    +0.000 C 
BRANCH   7  12
ATOM      9  C   UNL     1       6.562   4.311  14.086  0.00  0.00    +0.000 A 
ATOM     10  N   UNL     1       7.350   5.379  14.265  0.00  0.00    +0.000 NA
ATOM     11  O   UNL     1       7.308   5.573  15.649  0.00  0.00    +0.000 OA
ATOM     12  C   UNL     1       6.493   4.597  16.152  0.00  0.00    +0.000 A 
ATOM     13  N   UNL     1       5.974   3.826  15.218  0.00  0.00    +0.000 NA
BRANCH   9  15
ATOM     14  C   UNL     1       7.329   4.228  11.730  0.00  0.00    +0.000 C 
ATOM     15  C   UNL     1       6.433   3.603  12.791  0.00  0.00    +0.000 C 
ENDBRANCH   9  15
ENDBRANCH   7  12
ENDBRANCH   1   7
BRANCH   4  16
ATOM     16  N   UNL     1       3.011   7.664  18.341  0.00  0.00    +0.000 NA
ATOM     17  H   UNL     1       3.513   7.668  17.449  0.00  0.00    +0.000 HD
BRANCH  16  18
ATOM     18  S   UNL     1       1.800   8.848  18.228  0.00  0.00    +0.000 S 
ATOM     19  O   UNL     1       2.459  10.051  17.770  0.00  0.00    +0.000 OA
ATOM     20  O   UNL     1       0.681   8.279  17.513  0.00  0.00    +0.000 OA
BRANCH  18  21
ATOM     21  C   UNL     1       1.182   9.219  19.857  0.00  0.00    +0.000 A 
ATOM     22  C   UNL     1       1.167   8.489  21.031  0.00  0.00    +0.000 A 
ATOM     23  C   UNL     1       0.563   9.197  22.107  0.00  0.00    +0.000 A 
ATOM     24  C   UNL     1       0.130  10.447  21.721  0.00  0.00    +0.000 A 
ATOM     25  S   UNL     1       0.452  10.755  20.067  0.00  0.00    +0.000 S 
ENDBRANCH  18  21
ENDBRANCH  16  18
ENDBRANCH   4  16
TORSDOF 6
ENDMDL
MODEL 6
REMARK VINA RESULT:      -6.7      5.204      7.263
REMARK  Name = 
REMARK  8 active torsions:
REMARK  status: ('A' for Active; 'I' for Inactive)
REMARK    1  A    between atoms: C_1  and  C_2
REMARK    2  A    between atoms: C_2  and  C_3
REMARK    3  A    between atoms: C_6  and  C_7
REMARK    4  A    between atoms: C_7  and  C_8
REMARK    5  A    between atoms: C_7  and  N_9
REMARK    6  A    between atoms: C_12  and  N_13
REMARK    7  A    between atoms: N_13  and  S_14
REMARK    8  A    between atoms: S_14  and  C_17
REMARK                            x       y       z     vdW  Elec       q    Type
REMARK                         _______ _______ _______ _____ _____    ______ ____
ROOT
ATOM      1  N   UNL     1       1.338   7.891  19.785  0.00  0.00    +0.000 NA
ATOM      2  C   UNL     1       2.346   7.866  18.704  0.00  0.00    +0.000 C 
ATOM      3  C   UNL     1       2.486   6.491  18.060  0.00  0.00    +0.000 C 
ATOM      4  C   UNL     1       2.876   5.440  19.085  0.00  0.00    +0.000 C 
ATOM      5  C   UNL     1       1.836   5.459  20.206  0.00  0.00    +0.000 C 
ATOM      6  C   UNL     1       1.625   6.858  20.794  0.00  0.00    +0.000 C 
ENDROOT
BRANCH   1   7
ATOM      7  C   UNL     1       1.281   9.267  20.392  0.00  0.00    +0.000 C 
ATOM      8  C   UNL     1       1.022   9.262  21.906  0.00  0.00    +0.000 C 
BRANCH   7  12
ATOM      9  C   UNL     1      -1.433  11.301  19.264  0.00  0.00    +0.000 A 
ATOM     10  N   UNL     1      -1.150  10.690  18.105  0.00  0.00    +0.000 NA
ATOM     11  O   UNL     1      -0.039   9.904  18.427  0.00  0.00    +0.000 OA
ATOM     12  C   UNL     1       0.226  10.132  19.749  0.00  0.00    +0.000 A 
ATOM     13  N   UNL     1      -0.581  11.022  20.292  0.00  0.00    +0.000 NA
BRANCH   9  15
ATOM     14  C   UNL     1      -2.602  12.843  20.813  0.00  0.00    +0.000 C 
ATOM     15  C   UNL     1      -2.656  12.109  19.479  0.00  0.00    +0.000 C 
ENDBRANCH   9  15
ENDBRANCH   7  12
ENDBRANCH   1   7
BRANCH   4  16
ATOM     16  N   UNL     1       4.231   5.663  19.665  0.00  0.00    +0.000 NA
ATOM     17  H   UNL     1       4.231   5.715  20.686  0.00  0.00    +0.000 HD
BRANCH  16  18
ATOM     18  S   UNL     1       5.493   4.617  19.225  0.00  0.00    +0.000 S 
ATOM     19  O   UNL     1       6.703   5.207  19.753  0.00  0.00    +0.000 OA
ATOM     20  O   UNL     1       5.097   3.269  19.566  0.00  0.00    +0.000 OA
BRANCH  18  21
ATOM     21  C   UNL     1       5.678   4.623  17.454  0.00  0.00    +0.000 A 
ATOM     22  C   UNL     1       4.995   3.963  16.449  0.00  0.00    +0.000 A 
ATOM     23  C   UNL     1       5.491   4.278  15.153  0.00  0.00    +0.000 A 
ATOM     24  C   UNL     1       6.542   5.166  15.207  0.00  0.00    +0.000 A 
ATOM     25  S   UNL     1       6.924   5.611  16.817  0.00  0.00    +0.000 S 
ENDBRANCH  18  21
ENDBRANCH  16  18
ENDBRANCH   4  16
TORSDOF 6
ENDMDL
MODEL 7
REMARK VINA RESULT:      -6.6      3.261      5.248
REMARK  Name = 
REMARK  8 active torsions:
REMARK  status: ('A' for Active; 'I' for Inactive)
REMARK    1  A    between atoms: C_1  and  C_2
REMARK    2  A    between atoms: C_2  and  C_3
REMARK    3  A    between atoms: C_6  and  C_7
REMARK    4  A    between atoms: C_7  and  C_8
REMARK    5  A    between atoms: C_7  and  N_9
REMARK    6  A    between atoms: C_12  and  N_13
REMARK    7  A    between atoms: N_13  and  S_14
REMARK    8  A    between atoms: S_14  and  C_17
REMARK                            x       y       z     vdW  Elec       q    Type
REMARK                         _______ _______ _______ _____ _____    ______ ____
ROOT
ATOM      1  N   UNL     1       4.592   5.878  16.893  0.00  0.00    +0.000 NA
ATOM      2  C   UNL     1       3.774   4.724  17.323  0.00  0.00    +0.000 C 
ATOM      3  C   UNL     1       2.321   5.101  17.596  0.00  0.00    +0.000 C 
ATOM      4  C   UNL     1       2.222   6.169  18.672  0.00  0.00    +0.000 C 
ATOM      5  C   UNL     1       3.066   7.367  18.232  0.00  0.00    +0.000 C 
ATOM      6  C   UNL     1       4.503   6.977  17.868  0.00  0.00    +0.000 C 
ENDROOT
BRANCH   1   7
ATOM      7  C   UNL     1       6.015   5.435  16.677  0.00  0.00    +0.000 C 
ATOM      8  C   UNL     1       7.057   6.466  17.136  0.00  0.00    +0.000 C 
BRANCH   7  12
ATOM      9  C   UNL     1       6.513   4.259  13.339  0.00  0.00    +0.000 A 
ATOM     10  N   UNL     1       7.574   5.072  13.421  0.00  0.00    +0.000 NA
ATOM     11  O   UNL     1       7.435   5.643  14.691  0.00  0.00    +0.000 OA
ATOM     12  C   UNL     1       6.298   5.109  15.232  0.00  0.00    +0.000 A 
ATOM     13  N   UNL     1       5.674   4.287  14.414  0.00  0.00    +0.000 NA
BRANCH   9  15
ATOM     14  C   UNL     1       4.871   3.278  11.762  0.00  0.00    +0.000 C 
ATOM     15  C   UNL     1       6.318   3.286  12.238  0.00  0.00    +0.000 C 
ENDBRANCH   9  15
ENDBRANCH   7  12
ENDBRANCH   1   7
BRANCH   4  16
ATOM     16  N   UNL     1       2.689   5.699  20.007  0.00  0.00    +0.000 NA
ATOM     17  H   UNL     1       2.613   6.412  20.737  0.00  0.00    +0.000 HD
BRANCH  16  18
ATOM     18  S   UNL     1       2.037   4.269  20.646  0.00  0.00    +0.000 S 
ATOM     19  O   UNL     1       2.436   4.233  22.035  0.00  0.00    +0.000 OA
ATOM     20  O   UNL     1       0.647   4.196  20.257  0.00  0.00    +0.000 OA
BRANCH  18  21
ATOM     21  C   UNL     1       2.818   2.866  19.875  0.00  0.00    +0.000 A 
ATOM     22  C   UNL     1       2.375   1.964  18.925  0.00  0.00    +0.000 A 
ATOM     23  C   UNL     1       3.358   0.990  18.596  0.00  0.00    +0.000 A 
ATOM     24  C   UNL     1       4.523   1.174  19.308  0.00  0.00    +0.000 A 
ATOM     25  S   UNL     1       4.421   2.516  20.369  0.00  0.00    +0.000 S 
ENDBRANCH  18  21
ENDBRANCH  16  18
ENDBRANCH   4  16
TORSDOF 6
ENDMDL
MODEL 8
REMARK VINA RESULT:      -6.6      1.117      1.269
REMARK  Name = 
REMARK  8 active torsions:
REMARK  status: ('A' for Active; 'I' for Inactive)
REMARK    1  A    between atoms: C_1  and  C_2
REMARK    2  A    between atoms: C_2  and  C_3
REMARK    3  A    between atoms: C_6  and  C_7
REMARK    4  A    between atoms: C_7  and  C_8
REMARK    5  A    between atoms: C_7  and  N_9
REMARK    6  A    between atoms: C_12  and  N_13
REMARK    7  A    between atoms: N_13  and  S_14
REMARK    8  A    between atoms: S_14  and  C_17
REMARK                            x       y       z     vdW  Elec       q    Type
REMARK                         _______ _______ _______ _____ _____    ______ ____
ROOT
ATOM      1  N   UNL     1       6.682   6.520  17.174  0.00  0.00    +0.000 NA
ATOM      2  C   UNL     1       6.866   5.370  16.263  0.00  0.00    +0.000 C 
ATOM      3  C   UNL     1       5.605   5.036  15.473  0.00  0.00    +0.000 C 
ATOM      4  C   UNL     1       4.442   4.718  16.398  0.00  0.00    +0.000 C 
ATOM      5  C   UNL     1       4.246   5.906  17.342  0.00  0.00    +0.000 C 
ATOM      6  C   UNL     1       5.535   6.303  18.070  0.00  0.00    +0.000 C 
ENDROOT
BRANCH   1   7
ATOM      7  C   UNL     1       7.954   6.766  17.940  0.00  0.00    +0.000 C 
ATOM      8  C   UNL     1       8.023   6.011  19.276  0.00  0.00    +0.000 C 
BRANCH   7  12
ATOM      9  C   UNL     1       8.462  10.295  18.179  0.00  0.00    +0.000 A 
ATOM     10  N   UNL     1       9.183   9.920  19.244  0.00  0.00    +0.000 NA
ATOM     11  O   UNL     1       8.994   8.534  19.280  0.00  0.00    +0.000 OA
ATOM     12  C   UNL     1       8.175   8.229  18.229  0.00  0.00    +0.000 A 
ATOM     13  N   UNL     1       7.785   9.290  17.552  0.00  0.00    +0.000 NA
BRANCH   9  15
ATOM     14  C   UNL     1       9.906  12.236  17.638  0.00  0.00    +0.000 C 
ATOM     15  C   UNL     1       8.494  11.666  17.618  0.00  0.00    +0.000 C 
ENDBRANCH   9  15
ENDBRANCH   7  12
ENDBRANCH   1   7
BRANCH   4  16
ATOM     16  N   UNL     1       4.656   3.480  17.200  0.00  0.00    +0.000 NA
ATOM     17  H   UNL     1       5.219   3.633  18.041  0.00  0.00    +0.000 HD
BRANCH  16  18
ATOM     18  S   UNL     1       3.306   2.567  17.672  0.00  0.00    +0.000 S 
ATOM     19  O   UNL     1       2.272   2.850  16.702  0.00  0.00    +0.000 OA
ATOM     20  O   UNL     1       3.748   1.216  17.934  0.00  0.00    +0.000 OA
BRANCH  18  21
ATOM     21  C   UNL     1       2.695   3.175  19.231  0.00  0.00    +0.000 A 
ATOM     22  C   UNL     1       3.284   3.934  20.225  0.00  0.00    +0.000 A 
ATOM     23  C   UNL     1       2.403   4.191  21.311  0.00  0.00    +0.000 A 
ATOM     24  C   UNL     1       1.166   3.615  21.117  0.00  0.00    +0.000 A 
ATOM     25  S   UNL     1       1.079   2.769  19.630  0.00  0.00    +0.000 S 
ENDBRANCH  18  21
ENDBRANCH  16  18
ENDBRANCH   4  16
TORSDOF 6
ENDMDL
MODEL 9
REMARK VINA RESULT:      -6.6      5.240      7.379
REMARK  Name = 
REMARK  8 active torsions:
REMARK  status: ('A' for Active; 'I' for Inactive)
REMARK    1  A    between atoms: C_1  and  C_2
REMARK    2  A    between atoms: C_2  and  C_3
REMARK    3  A    between atoms: C_6  and  C_7
REMARK    4  A    between atoms: C_7  and  C_8
REMARK    5  A    between atoms: C_7  and  N_9
REMARK    6  A    between atoms: C_12  and  N_13
REMARK    7  A    between atoms: N_13  and  S_14
REMARK    8  A    between atoms: S_14  and  C_17
REMARK                            x       y       z     vdW  Elec       q    Type
REMARK                         _______ _______ _______ _____ _____    ______ ____
ROOT
ATOM      1  N   UNL     1       1.245   7.849  20.032  0.00  0.00    +0.000 NA
ATOM      2  C   UNL     1       2.210   7.795  18.913  0.00  0.00    +0.000 C 
ATOM      3  C   UNL     1       2.318   6.406  18.294  0.00  0.00    +0.000 C 
ATOM      4  C   UNL     1       2.742   5.374  19.325  0.00  0.00    +0.000 C 
ATOM      5  C   UNL     1       1.745   5.423  20.485  0.00  0.00    +0.000 C 
ATOM      6  C   UNL     1       1.565   6.835  21.051  0.00  0.00    +0.000 C 
ENDROOT
BRANCH   1   7
ATOM      7  C   UNL     1       1.219   9.237  20.611  0.00  0.00    +0.000 C 
ATOM      8  C   UNL     1       1.177   9.263  22.146  0.00  0.00    +0.000 C 
BRANCH   7  12
ATOM      9  C   UNL     1      -1.331  11.176  19.025  0.00  0.00    +0.000 A 
ATOM     10  N   UNL     1      -1.471  11.648  20.271  0.00  0.00    +0.000 NA
ATOM     11  O   UNL     1      -0.544  10.894  20.999  0.00  0.00    +0.000 OA
ATOM     12  C   UNL     1       0.050  10.046  20.107  0.00  0.00    +0.000 A 
ATOM     13  N   UNL     1      -0.437  10.154  18.887  0.00  0.00    +0.000 NA
BRANCH   9  15
ATOM     14  C   UNL     1      -3.445  11.396  17.750  0.00  0.00    +0.000 C 
ATOM     15  C   UNL     1      -1.977  11.794  17.844  0.00  0.00    +0.000 C 
ENDBRANCH   9  15
ENDBRANCH   7  12
ENDBRANCH   1   7
BRANCH   4  16
ATOM     16  N   UNL     1       4.119   5.601  19.848  0.00  0.00    +0.000 NA
ATOM     17  H   UNL     1       4.199   5.455  20.857  0.00  0.00    +0.000 HD
BRANCH  16  18
ATOM     18  S   UNL     1       5.415   4.775  19.128  0.00  0.00    +0.000 S 
ATOM     19  O   UNL     1       6.616   5.340  19.699  0.00  0.00    +0.000 OA
ATOM     20  O   UNL     1       5.139   3.358  19.198  0.00  0.00    +0.000 OA
BRANCH  18  21
ATOM     21  C   UNL     1       5.471   5.161  17.390  0.00  0.00    +0.000 A 
ATOM     22  C   UNL     1       5.433   6.362  16.705  0.00  0.00    +0.000 A 
ATOM     23  C   UNL     1       5.511   6.190  15.295  0.00  0.00    +0.000 A 
ATOM     24  C   UNL     1       5.601   4.861  14.944  0.00  0.00    +0.000 A 
ATOM     25  S   UNL     1       5.589   3.833  16.314  0.00  0.00    +0.000 S 
ENDBRANCH  18  21
ENDBRANCH  16  18
ENDBRANCH   4  16
TORSDOF 6
ENDMDL
