MODEL 1
REMARK VINA RESULT:      -8.9      0.000      0.000
REMARK  Name = 
REMARK  7 active torsions:
REMARK  status: ('A' for Active; 'I' for Inactive)
REMARK    1  A    between atoms: C_1  and  O_2
REMARK    2  A    between atoms: O_2  and  C_3
REMARK    3  A    between atoms: C_8  and  N_9
REMARK    4  A    between atoms: C_15  and  C_16
REMARK    5  A    between atoms: C_19  and  N_20
REMARK    6  A    between atoms: C_21  and  C_23
REMARK    7  A    between atoms: C_23  and  C_24
REMARK                            x       y       z     vdW  Elec       q    Type
REMARK                         _______ _______ _______ _____ _____    ______ ____
ROOT
ATOM      1  N   UNL     1      -5.186  14.003  21.363  0.00  0.00    +0.000 N 
ATOM      2  C   UNL     1      -3.965  13.423  21.444  0.00  0.00    +0.000 A 
ATOM      3  N   UNL     1      -3.511  13.013  22.671  0.00  0.00    +0.000 NA
ATOM      4  C   UNL     1      -2.465  12.269  22.373  0.00  0.00    +0.000 A 
ATOM      5  C   UNL     1      -1.607  11.442  23.150  0.00  0.00    +0.000 A 
ATOM      6  C   UNL     1      -0.711  10.644  22.531  0.00  0.00    +0.000 A 
ATOM      7  C   UNL     1      -0.561  10.626  21.074  0.00  0.00    +0.000 A 
ATOM      8  C   UNL     1      -1.330  11.465  20.356  0.00  0.00    +0.000 A 
ATOM      9  N   UNL     1      -2.268  12.268  20.996  0.00  0.00    +0.000 N 
ATOM     10  N   UNL     1      -3.159  13.095  20.430  0.00  0.00    +0.000 NA
ATOM     11  H   UNL     1      -5.704  14.062  22.235  0.00  0.00    +0.000 HD
ENDROOT
BRANCH   1  17
ATOM     12  C   UNL     1      -6.778  12.831  19.887  0.00  0.00    +0.000 A 
ATOM     13  C   UNL     1      -7.515  12.802  18.690  0.00  0.00    +0.000 A 
ATOM     14  C   UNL     1      -7.595  13.927  17.870  0.00  0.00    +0.000 A 
ATOM     15  C   UNL     1      -6.962  15.099  18.248  0.00  0.00    +0.000 A 
ATOM     16  C   UNL     1      -6.218  15.132  19.427  0.00  0.00    +0.000 A 
ATOM     17  C   UNL     1      -6.064  13.998  20.242  0.00  0.00    +0.000 A 
BRANCH  12  19
ATOM     18  C   UNL     1      -7.685  10.752  20.573  0.00  0.00    +0.000 C 
ATOM     19  O   UNL     1      -6.672  11.748  20.733  0.00  0.00    +0.000 OA
ENDBRANCH  12  19
ENDBRANCH   1  17
BRANCH   7  20
ATOM     20  C   UNL     1       0.405   9.773  20.364  0.00  0.00    +0.000 A 
ATOM     21  C   UNL     1       0.986   8.696  21.035  0.00  0.00    +0.000 A 
ATOM     22  C   UNL     1       1.866   7.838  20.368  0.00  0.00    +0.000 A 
ATOM     23  C   UNL     1       2.181   8.030  19.021  0.00  0.00    +0.000 A 
ATOM     24  C   UNL     1       1.644   9.142  18.364  0.00  0.00    +0.000 A 
ATOM     25  C   UNL     1       0.754  10.003  19.027  0.00  0.00    +0.000 A 
BRANCH  23  26
ATOM     26  N   UNL     1       3.012   7.148  18.294  0.00  0.00    +0.000 N 
ATOM     27  C   UNL     1       2.789   5.788  18.121  0.00  0.00    +0.000 C 
ATOM     28  O   UNL     1       1.802   5.162  18.511  0.00  0.00    +0.000 OA
ATOM     29  H   UNL     1       3.778   7.568  17.778  0.00  0.00    +0.000 HD
BRANCH  27  30
ATOM     30  C   UNL     1       3.889   5.064  17.357  0.00  0.00    +0.000 C 
BRANCH  30  31
ATOM     31  C   UNL     1       5.262   5.515  17.787  0.00  0.00    +0.000 A 
ATOM     32  C   UNL     1       6.057   6.292  16.929  0.00  0.00    +0.000 A 
ATOM     33  C   UNL     1       7.356   6.646  17.293  0.00  0.00    +0.000 A 
ATOM     34  C   UNL     1       7.868   6.241  18.522  0.00  0.00    +0.000 A 
ATOM     35  C   UNL     1       7.073   5.505  19.400  0.00  0.00    +0.000 A 
ATOM     36  C   UNL     1       5.774   5.148  19.037  0.00  0.00    +0.000 A 
ENDBRANCH  30  31
ENDBRANCH  27  30
ENDBRANCH  23  26
ENDBRANCH   7  20
TORSDOF 6
ENDMDL
MODEL 2
REMARK VINA RESULT:      -8.6      1.892      3.159
REMARK  Name = 
REMARK  7 active torsions:
REMARK  status: ('A' for Active; 'I' for Inactive)
REMARK    1  A    between atoms: C_1  and  O_2
REMARK    2  A    between atoms: O_2  and  C_3
REMARK    3  A    between atoms: C_8  and  N_9
REMARK    4  A    between atoms: C_15  and  C_16
REMARK    5  A    between atoms: C_19  and  N_20
REMARK    6  A    between atoms: C_21  and  C_23
REMARK    7  A    between atoms: C_23  and  C_24
REMARK                            x       y       z     vdW  Elec       q    Type
REMARK                         _______ _______ _______ _____ _____    ______ ____
ROOT
ATOM      1  N   UNL     1      -3.489  14.287  21.551  0.00  0.00    +0.000 N 
ATOM      2  C   UNL     1      -2.535  13.666  20.817  0.00  0.00    +0.000 A 
ATOM      3  N   UNL     1      -1.379  14.346  20.530  0.00  0.00    +0.000 NA
ATOM      4  C   UNL     1      -0.583  13.405  20.068  0.00  0.00    +0.000 A 
ATOM      5  C   UNL     1       0.792  13.388  19.702  0.00  0.00    +0.000 A 
ATOM      6  C   UNL     1       1.394  12.211  19.426  0.00  0.00    +0.000 A 
ATOM      7  C   UNL     1       0.666  10.939  19.452  0.00  0.00    +0.000 A 
ATOM      8  C   UNL     1      -0.650  10.978  19.730  0.00  0.00    +0.000 A 
ATOM      9  N   UNL     1      -1.260  12.190  20.037  0.00  0.00    +0.000 N 
ATOM     10  N   UNL     1      -2.532  12.394  20.410  0.00  0.00    +0.000 NA
ATOM     11  H   UNL     1      -3.258  15.223  21.872  0.00  0.00    +0.000 HD
ENDROOT
BRANCH   1  17
ATOM     12  C   UNL     1      -5.833  13.826  22.168  0.00  0.00    +0.000 A 
ATOM     13  C   UNL     1      -6.759  13.343  23.109  0.00  0.00    +0.000 A 
ATOM     14  C   UNL     1      -6.333  12.666  24.251  0.00  0.00    +0.000 A 
ATOM     15  C   UNL     1      -4.982  12.442  24.454  0.00  0.00    +0.000 A 
ATOM     16  C   UNL     1      -4.056  12.929  23.532  0.00  0.00    +0.000 A 
ATOM     17  C   UNL     1      -4.448  13.672  22.405  0.00  0.00    +0.000 A 
BRANCH  12  19
ATOM     18  C   UNL     1      -7.613  14.594  20.805  0.00  0.00    +0.000 C 
ATOM     19  O   UNL     1      -6.203  14.496  21.022  0.00  0.00    +0.000 OA
ENDBRANCH  12  19
ENDBRANCH   1  17
BRANCH   7  20
ATOM     20  C   UNL     1       1.286   9.639  19.156  0.00  0.00    +0.000 A 
ATOM     21  C   UNL     1       1.755   9.384  17.867  0.00  0.00    +0.000 A 
ATOM     22  C   UNL     1       2.396   8.177  17.572  0.00  0.00    +0.000 A 
ATOM     23  C   UNL     1       2.590   7.203  18.554  0.00  0.00    +0.000 A 
ATOM     24  C   UNL     1       2.071   7.433  19.832  0.00  0.00    +0.000 A 
ATOM     25  C   UNL     1       1.431   8.647  20.135  0.00  0.00    +0.000 A 
BRANCH  23  26
ATOM     26  N   UNL     1       3.292   6.000  18.314  0.00  0.00    +0.000 N 
ATOM     27  C   UNL     1       2.719   4.793  17.936  0.00  0.00    +0.000 C 
ATOM     28  O   UNL     1       1.528   4.605  17.683  0.00  0.00    +0.000 OA
ATOM     29  H   UNL     1       4.304   6.056  18.326  0.00  0.00    +0.000 HD
BRANCH  27  30
ATOM     30  C   UNL     1       3.705   3.638  17.824  0.00  0.00    +0.000 C 
BRANCH  30  31
ATOM     31  C   UNL     1       4.980   4.053  17.134  0.00  0.00    +0.000 A 
ATOM     32  C   UNL     1       6.149   4.282  17.878  0.00  0.00    +0.000 A 
ATOM     33  C   UNL     1       7.309   4.739  17.253  0.00  0.00    +0.000 A 
ATOM     34  C   UNL     1       7.318   4.955  15.878  0.00  0.00    +0.000 A 
ATOM     35  C   UNL     1       6.176   4.690  15.124  0.00  0.00    +0.000 A 
ATOM     36  C   UNL     1       5.014   4.235  15.747  0.00  0.00    +0.000 A 
ENDBRANCH  30  31
ENDBRANCH  27  30
ENDBRANCH  23  26
ENDBRANCH   7  20
TORSDOF 6
ENDMDL
MODEL 3
REMARK VINA RESULT:      -8.5      1.863      2.710
REMARK  Name = 
REMARK  7 active torsions:
REMARK  status: ('A' for Active; 'I' for Inactive)
REMARK    1  A    between atoms: C_1  and  O_2
REMARK    2  A    between atoms: O_2  and  C_3
REMARK    3  A    between atoms: C_8  and  N_9
REMARK    4  A    between atoms: C_15  and  C_16
REMARK    5  A    between atoms: C_19  and  N_20
REMARK    6  A    between atoms: C_21  and  C_23
REMARK    7  A    between atoms: C_23  and  C_24
REMARK                            x       y       z     vdW  Elec       q    Type
REMARK                         _______ _______ _______ _____ _____    ______ ____
ROOT
ATOM      1  N   UNL     1      -3.932  13.481  20.250  0.00  0.00    +0.000 N 
ATOM      2  C   UNL     1      -2.714  12.937  20.018  0.00  0.00    +0.000 A 
ATOM      3  N   UNL     1      -1.651  13.358  20.775  0.00  0.00    +0.000 NA
ATOM      4  C   UNL     1      -0.717  12.471  20.504  0.00  0.00    +0.000 A 
ATOM      5  C   UNL     1       0.584  12.236  21.032  0.00  0.00    +0.000 A 
ATOM      6  C   UNL     1       1.255  11.119  20.677  0.00  0.00    +0.000 A 
ATOM      7  C   UNL     1       0.704  10.148  19.727  0.00  0.00    +0.000 A 
ATOM      8  C   UNL     1      -0.496  10.419  19.182  0.00  0.00    +0.000 A 
ATOM      9  N   UNL     1      -1.195  11.558  19.569  0.00  0.00    +0.000 N 
ATOM     10  N   UNL     1      -2.424  11.933  19.187  0.00  0.00    +0.000 NA
ATOM     11  H   UNL     1      -3.978  14.153  21.010  0.00  0.00    +0.000 HD
ENDROOT
BRANCH   1  17
ATOM     12  C   UNL     1      -5.927  12.301  21.098  0.00  0.00    +0.000 A 
ATOM     13  C   UNL     1      -7.096  11.567  20.833  0.00  0.00    +0.000 A 
ATOM     14  C   UNL     1      -7.580  11.433  19.533  0.00  0.00    +0.000 A 
ATOM     15  C   UNL     1      -6.917  12.052  18.486  0.00  0.00    +0.000 A 
ATOM     16  C   UNL     1      -5.750  12.770  18.738  0.00  0.00    +0.000 A 
ATOM     17  C   UNL     1      -5.199  12.869  20.027  0.00  0.00    +0.000 A 
BRANCH  12  19
ATOM     18  C   UNL     1      -6.365  12.824  23.367  0.00  0.00    +0.000 C 
ATOM     19  O   UNL     1      -5.411  12.466  22.365  0.00  0.00    +0.000 OA
ENDBRANCH  12  19
ENDBRANCH   1  17
BRANCH   7  20
ATOM     20  C   UNL     1       1.406   8.923  19.315  0.00  0.00    +0.000 A 
ATOM     21  C   UNL     1       1.931   8.838  18.025  0.00  0.00    +0.000 A 
ATOM     22  C   UNL     1       2.649   7.707  17.626  0.00  0.00    +0.000 A 
ATOM     23  C   UNL     1       2.864   6.641  18.502  0.00  0.00    +0.000 A 
ATOM     24  C   UNL     1       2.291   6.700  19.777  0.00  0.00    +0.000 A 
ATOM     25  C   UNL     1       1.574   7.837  20.185  0.00  0.00    +0.000 A 
BRANCH  23  26
ATOM     26  N   UNL     1       3.641   5.510  18.160  0.00  0.00    +0.000 N 
ATOM     27  C   UNL     1       4.812   5.115  18.793  0.00  0.00    +0.000 C 
ATOM     28  O   UNL     1       5.310   5.643  19.788  0.00  0.00    +0.000 OA
ATOM     29  H   UNL     1       3.253   4.889  17.459  0.00  0.00    +0.000 HD
BRANCH  27  30
ATOM     30  C   UNL     1       5.485   3.902  18.165  0.00  0.00    +0.000 C 
BRANCH  30  31
ATOM     31  C   UNL     1       5.961   4.186  16.762  0.00  0.00    +0.000 A 
ATOM     32  C   UNL     1       7.148   4.903  16.546  0.00  0.00    +0.000 A 
ATOM     33  C   UNL     1       7.551   5.232  15.252  0.00  0.00    +0.000 A 
ATOM     34  C   UNL     1       6.781   4.836  14.162  0.00  0.00    +0.000 A 
ATOM     35  C   UNL     1       5.622   4.087  14.364  0.00  0.00    +0.000 A 
ATOM     36  C   UNL     1       5.217   3.758  15.657  0.00  0.00    +0.000 A 
ENDBRANCH  30  31
ENDBRANCH  27  30
ENDBRANCH  23  26
ENDBRANCH   7  20
TORSDOF 6
ENDMDL
MODEL 4
REMARK VINA RESULT:      -8.5      3.401     11.892
REMARK  Name = 
REMARK  7 active torsions:
REMARK  status: ('A' for Active; 'I' for Inactive)
REMARK    1  A    between atoms: C_1  and  O_2
REMARK    2  A    between atoms: O_2  and  C_3
REMARK    3  A    between atoms: C_8  and  N_9
REMARK    4  A    between atoms: C_15  and  C_16
REMARK    5  A    between atoms: C_19  and  N_20
REMARK    6  A    between atoms: C_21  and  C_23
REMARK    7  A    between atoms: C_23  and  C_24
REMARK                            x       y       z     vdW  Elec       q    Type
REMARK                         _______ _______ _______ _____ _____    ______ ____
ROOT
ATOM      1  N   UNL     1       4.957   3.181  16.923  0.00  0.00    +0.000 N 
ATOM      2  C   UNL     1       4.040   3.855  17.656  0.00  0.00    +0.000 A 
ATOM      3  N   UNL     1       3.719   3.382  18.903  0.00  0.00    +0.000 NA
ATOM      4  C   UNL     1       3.043   4.377  19.438  0.00  0.00    +0.000 A 
ATOM      5  C   UNL     1       2.523   4.610  20.742  0.00  0.00    +0.000 A 
ATOM      6  C   UNL     1       2.019   5.824  21.052  0.00  0.00    +0.000 A 
ATOM      7  C   UNL     1       1.953   6.912  20.073  0.00  0.00    +0.000 A 
ATOM      8  C   UNL     1       2.383   6.656  18.824  0.00  0.00    +0.000 A 
ATOM      9  N   UNL     1       2.922   5.412  18.515  0.00  0.00    +0.000 N 
ATOM     10  N   UNL     1       3.463   5.020  17.353  0.00  0.00    +0.000 NA
ATOM     11  H   UNL     1       5.377   2.374  17.374  0.00  0.00    +0.000 HD
ENDROOT
BRANCH   1  17
ATOM     12  C   UNL     1       6.942   4.505  16.290  0.00  0.00    +0.000 A 
ATOM     13  C   UNL     1       7.688   5.155  15.293  0.00  0.00    +0.000 A 
ATOM     14  C   UNL     1       7.374   4.997  13.944  0.00  0.00    +0.000 A 
ATOM     15  C   UNL     1       6.328   4.168  13.575  0.00  0.00    +0.000 A 
ATOM     16  C   UNL     1       5.573   3.530  14.558  0.00  0.00    +0.000 A 
ATOM     17  C   UNL     1       5.823   3.721  15.928  0.00  0.00    +0.000 A 
BRANCH  12  19
ATOM     18  C   UNL     1       7.154   5.957  18.150  0.00  0.00    +0.000 C 
ATOM     19  O   UNL     1       7.215   4.625  17.636  0.00  0.00    +0.000 OA
ENDBRANCH  12  19
ENDBRANCH   1  17
BRANCH   7  20
ATOM     20  C   UNL     1       1.410   8.246  20.373  0.00  0.00    +0.000 A 
ATOM     21  C   UNL     1       1.048   8.557  21.684  0.00  0.00    +0.000 A 
ATOM     22  C   UNL     1       0.580   9.834  22.005  0.00  0.00    +0.000 A 
ATOM     23  C   UNL     1       0.467  10.829  21.032  0.00  0.00    +0.000 A 
ATOM     24  C   UNL     1       0.776  10.502  19.707  0.00  0.00    +0.000 A 
ATOM     25  C   UNL     1       1.253   9.222  19.379  0.00  0.00    +0.000 A 
BRANCH  23  26
ATOM     26  N   UNL     1       0.063  12.151  21.327  0.00  0.00    +0.000 N 
ATOM     27  C   UNL     1      -1.172  12.705  21.016  0.00  0.00    +0.000 C 
ATOM     28  O   UNL     1      -2.123  12.113  20.505  0.00  0.00    +0.000 OA
ATOM     29  H   UNL     1       0.694  12.701  21.898  0.00  0.00    +0.000 HD
BRANCH  27  30
ATOM     30  C   UNL     1      -1.308  14.177  21.382  0.00  0.00    +0.000 C 
BRANCH  30  31
ATOM     31  C   UNL     1      -1.816  14.363  22.790  0.00  0.00    +0.000 A 
ATOM     32  C   UNL     1      -3.117  13.964  23.135  0.00  0.00    +0.000 A 
ATOM     33  C   UNL     1      -3.615  14.203  24.415  0.00  0.00    +0.000 A 
ATOM     34  C   UNL     1      -2.815  14.828  25.367  0.00  0.00    +0.000 A 
ATOM     35  C   UNL     1      -1.507  15.191  25.047  0.00  0.00    +0.000 A 
ATOM     36  C   UNL     1      -1.007  14.954  23.767  0.00  0.00    +0.000 A 
ENDBRANCH  30  31
ENDBRANCH  27  30
ENDBRANCH  23  26
ENDBRANCH   7  20
TORSDOF 6
ENDMDL
MODEL 5
REMARK VINA RESULT:      -8.5      1.750      2.587
REMARK  Name = 
REMARK  7 active torsions:
REMARK  status: ('A' for Active; 'I' for Inactive)
REMARK    1  A    between atoms: C_1  and  O_2
REMARK    2  A    between atoms: O_2  and  C_3
REMARK    3  A    between atoms: C_8  and  N_9
REMARK    4  A    between atoms: C_15  and  C_16
REMARK    5  A    between atoms: C_19  and  N_20
REMARK    6  A    between atoms: C_21  and  C_23
REMARK    7  A    between atoms: C_23  and  C_24
REMARK                            x       y       z     vdW  Elec       q    Type
REMARK                         _______ _______ _______ _____ _____    ______ ____
ROOT
ATOM      1  N   UNL     1      -4.494  13.950  20.708  0.00  0.00    +0.000 N 
ATOM      2  C   UNL     1      -3.304  13.440  20.312  0.00  0.00    +0.000 A 
ATOM      3  N   UNL     1      -2.157  14.113  20.645  0.00  0.00    +0.000 NA
ATOM      4  C   UNL     1      -1.206  13.245  20.369  0.00  0.00    +0.000 A 
ATOM      5  C   UNL     1       0.200  13.240  20.587  0.00  0.00    +0.000 A 
ATOM      6  C   UNL     1       0.906  12.112  20.355  0.00  0.00    +0.000 A 
ATOM      7  C   UNL     1       0.278  10.891  19.845  0.00  0.00    +0.000 A 
ATOM      8  C   UNL     1      -1.040  10.932  19.576  0.00  0.00    +0.000 A 
ATOM      9  N   UNL     1      -1.768  12.087  19.839  0.00  0.00    +0.000 N 
ATOM     10  N   UNL     1      -3.090  12.270  19.705  0.00  0.00    +0.000 NA
ATOM     11  H   UNL     1      -4.448  14.796  21.267  0.00  0.00    +0.000 HD
ENDROOT
BRANCH   1  17
ATOM     12  C   UNL     1      -6.146  13.038  22.299  0.00  0.00    +0.000 A 
ATOM     13  C   UNL     1      -7.238  12.190  22.548  0.00  0.00    +0.000 A 
ATOM     14  C   UNL     1      -7.915  11.566  21.501  0.00  0.00    +0.000 A 
ATOM     15  C   UNL     1      -7.526  11.803  20.193  0.00  0.00    +0.000 A 
ATOM     16  C   UNL     1      -6.435  12.633  19.938  0.00  0.00    +0.000 A 
ATOM     17  C   UNL     1      -5.691  13.224  20.974  0.00  0.00    +0.000 A 
BRANCH  12  19
ATOM     18  C   UNL     1      -4.709  12.823  24.171  0.00  0.00    +0.000 C 
ATOM     19  O   UNL     1      -5.448  13.681  23.299  0.00  0.00    +0.000 OA
ENDBRANCH  12  19
ENDBRANCH   1  17
BRANCH   7  20
ATOM     20  C   UNL     1       1.014   9.646  19.578  0.00  0.00    +0.000 A 
ATOM     21  C   UNL     1       1.609   9.458  18.330  0.00  0.00    +0.000 A 
ATOM     22  C   UNL     1       2.359   8.308  18.068  0.00  0.00    +0.000 A 
ATOM     23  C   UNL     1       2.538   7.325  19.043  0.00  0.00    +0.000 A 
ATOM     24  C   UNL     1       1.896   7.485  20.276  0.00  0.00    +0.000 A 
ATOM     25  C   UNL     1       1.146   8.642  20.546  0.00  0.00    +0.000 A 
BRANCH  23  26
ATOM     26  N   UNL     1       3.344   6.181  18.842  0.00  0.00    +0.000 N 
ATOM     27  C   UNL     1       2.915   4.864  18.942  0.00  0.00    +0.000 C 
ATOM     28  O   UNL     1       1.758   4.494  19.148  0.00  0.00    +0.000 OA
ATOM     29  H   UNL     1       4.285   6.344  18.503  0.00  0.00    +0.000 HD
BRANCH  27  30
ATOM     30  C   UNL     1       4.016   3.830  18.752  0.00  0.00    +0.000 C 
BRANCH  30  31
ATOM     31  C   UNL     1       4.991   4.237  17.677  0.00  0.00    +0.000 A 
ATOM     32  C   UNL     1       6.281   4.676  18.017  0.00  0.00    +0.000 A 
ATOM     33  C   UNL     1       7.159   5.125  17.031  0.00  0.00    +0.000 A 
ATOM     34  C   UNL     1       6.764   5.126  15.696  0.00  0.00    +0.000 A 
ATOM     35  C   UNL     1       5.501   4.653  15.343  0.00  0.00    +0.000 A 
ATOM     36  C   UNL     1       4.620   4.205  16.328  0.00  0.00    +0.000 A 
ENDBRANCH  30  31
ENDBRANCH  27  30
ENDBRANCH  23  26
ENDBRANCH   7  20
TORSDOF 6
ENDMDL
MODEL 6
REMARK VINA RESULT:      -8.4      2.904     12.154
REMARK  Name = 
REMARK  7 active torsions:
REMARK  status: ('A' for Active; 'I' for Inactive)
REMARK    1  A    between atoms: C_1  and  O_2
REMARK    2  A    between atoms: O_2  and  C_3
REMARK    3  A    between atoms: C_8  and  N_9
REMARK    4  A    between atoms: C_15  and  C_16
REMARK    5  A    between atoms: C_19  and  N_20
REMARK    6  A    between atoms: C_21  and  C_23
REMARK    7  A    between atoms: C_23  and  C_24
REMARK                            x       y       z     vdW  Elec       q    Type
REMARK                         _______ _______ _______ _____ _____    ______ ____
ROOT
ATOM      1  N   UNL     1       5.531   3.111  16.106  0.00  0.00    +0.000 N 
ATOM      2  C   UNL     1       4.602   3.654  16.928  0.00  0.00    +0.000 A 
ATOM      3  N   UNL     1       4.400   3.084  18.159  0.00  0.00    +0.000 NA
ATOM      4  C   UNL     1       3.669   3.980  18.790  0.00  0.00    +0.000 A 
ATOM      5  C   UNL     1       3.209   4.090  20.132  0.00  0.00    +0.000 A 
ATOM      6  C   UNL     1       2.617   5.232  20.542  0.00  0.00    +0.000 A 
ATOM      7  C   UNL     1       2.392   6.362  19.636  0.00  0.00    +0.000 A 
ATOM      8  C   UNL     1       2.768   6.217  18.352  0.00  0.00    +0.000 A 
ATOM      9  N   UNL     1       3.400   5.048  17.939  0.00  0.00    +0.000 N 
ATOM     10  N   UNL     1       3.903   4.774  16.728  0.00  0.00    +0.000 NA
ATOM     11  H   UNL     1       6.049   2.324  16.484  0.00  0.00    +0.000 HD
ENDROOT
BRANCH   1  17
ATOM     12  C   UNL     1       7.256   4.749  15.448  0.00  0.00    +0.000 A 
ATOM     13  C   UNL     1       7.872   5.511  14.441  0.00  0.00    +0.000 A 
ATOM     14  C   UNL     1       7.576   5.296  13.096  0.00  0.00    +0.000 A 
ATOM     15  C   UNL     1       6.681   4.300  12.741  0.00  0.00    +0.000 A 
ATOM     16  C   UNL     1       6.055   3.549  13.734  0.00  0.00    +0.000 A 
ATOM     17  C   UNL     1       6.283   3.785  15.101  0.00  0.00    +0.000 A 
BRANCH  12  19
ATOM     18  C   UNL     1       7.256   6.230  17.298  0.00  0.00    +0.000 C 
ATOM     19  O   UNL     1       7.519   4.920  16.790  0.00  0.00    +0.000 OA
ENDBRANCH  12  19
ENDBRANCH   1  17
BRANCH   7  20
ATOM     20  C   UNL     1       1.749   7.619  20.046  0.00  0.00    +0.000 A 
ATOM     21  C   UNL     1       1.297   7.760  21.358  0.00  0.00    +0.000 A 
ATOM     22  C   UNL     1       0.731   8.963  21.788  0.00  0.00    +0.000 A 
ATOM     23  C   UNL     1       0.607  10.052  20.923  0.00  0.00    +0.000 A 
ATOM     24  C   UNL     1       1.007   9.895  19.591  0.00  0.00    +0.000 A 
ATOM     25  C   UNL     1       1.583   8.689  19.156  0.00  0.00    +0.000 A 
BRANCH  23  26
ATOM     26  N   UNL     1       0.102  11.307  21.335  0.00  0.00    +0.000 N 
ATOM     27  C   UNL     1      -0.723  11.524  22.431  0.00  0.00    +0.000 C 
ATOM     28  O   UNL     1      -1.079  10.673  23.248  0.00  0.00    +0.000 OA
ATOM     29  H   UNL     1       0.455  12.121  20.844  0.00  0.00    +0.000 HD
BRANCH  27  30
ATOM     30  C   UNL     1      -1.180  12.967  22.595  0.00  0.00    +0.000 C 
BRANCH  30  31
ATOM     31  C   UNL     1      -2.681  13.074  22.691  0.00  0.00    +0.000 A 
ATOM     32  C   UNL     1      -3.293  13.432  23.902  0.00  0.00    +0.000 A 
ATOM     33  C   UNL     1      -4.683  13.459  24.014  0.00  0.00    +0.000 A 
ATOM     34  C   UNL     1      -5.474  13.143  22.913  0.00  0.00    +0.000 A 
ATOM     35  C   UNL     1      -4.877  12.827  21.693  0.00  0.00    +0.000 A 
ATOM     36  C   UNL     1      -3.487  12.798  21.580  0.00  0.00    +0.000 A 
ENDBRANCH  30  31
ENDBRANCH  27  30
ENDBRANCH  23  26
ENDBRANCH   7  20
TORSDOF 6
ENDMDL
MODEL 7
REMARK VINA RESULT:      -8.4      2.676     12.109
REMARK  Name = 
REMARK  7 active torsions:
REMARK  status: ('A' for Active; 'I' for Inactive)
REMARK    1  A    between atoms: C_1  and  O_2
REMARK    2  A    between atoms: O_2  and  C_3
REMARK    3  A    between atoms: C_8  and  N_9
REMARK    4  A    between atoms: C_15  and  C_16
REMARK    5  A    between atoms: C_19  and  N_20
REMARK    6  A    between atoms: C_21  and  C_23
REMARK    7  A    between atoms: C_23  and  C_24
REMARK                            x       y       z     vdW  Elec       q    Type
REMARK                         _______ _______ _______ _____ _____    ______ ____
ROOT
ATOM      1  N   UNL     1       5.462   3.152  16.291  0.00  0.00    +0.000 N 
ATOM      2  C   UNL     1       4.536   3.755  17.074  0.00  0.00    +0.000 A 
ATOM      3  N   UNL     1       4.356   3.295  18.353  0.00  0.00    +0.000 NA
ATOM      4  C   UNL     1       3.622   4.235  18.911  0.00  0.00    +0.000 A 
ATOM      5  C   UNL     1       3.176   4.458  20.244  0.00  0.00    +0.000 A 
ATOM      6  C   UNL     1       2.575   5.626  20.559  0.00  0.00    +0.000 A 
ATOM      7  C   UNL     1       2.326   6.668  19.559  0.00  0.00    +0.000 A 
ATOM      8  C   UNL     1       2.689   6.415  18.289  0.00  0.00    +0.000 A 
ATOM      9  N   UNL     1       3.329   5.221  17.973  0.00  0.00    +0.000 N 
ATOM     10  N   UNL     1       3.822   4.846  16.784  0.00  0.00    +0.000 NA
ATOM     11  H   UNL     1       5.994   2.407  16.731  0.00  0.00    +0.000 HD
ENDROOT
BRANCH   1  17
ATOM     12  C   UNL     1       7.213   4.688  15.475  0.00  0.00    +0.000 A 
ATOM     13  C   UNL     1       7.812   5.371  14.403  0.00  0.00    +0.000 A 
ATOM     14  C   UNL     1       7.453   5.093  13.085  0.00  0.00    +0.000 A 
ATOM     15  C   UNL     1       6.511   4.112  12.822  0.00  0.00    +0.000 A 
ATOM     16  C   UNL     1       5.902   3.440  13.880  0.00  0.00    +0.000 A 
ATOM     17  C   UNL     1       6.194   3.742  15.221  0.00  0.00    +0.000 A 
BRANCH  12  19
ATOM     18  C   UNL     1       7.263   6.247  17.259  0.00  0.00    +0.000 C 
ATOM     19  O   UNL     1       7.537   4.923  16.794  0.00  0.00    +0.000 OA
ENDBRANCH  12  19
ENDBRANCH   1  17
BRANCH   7  20
ATOM     20  C   UNL     1       1.673   7.950  19.864  0.00  0.00    +0.000 A 
ATOM     21  C   UNL     1       1.565   8.917  18.864  0.00  0.00    +0.000 A 
ATOM     22  C   UNL     1       0.902  10.122  19.112  0.00  0.00    +0.000 A 
ATOM     23  C   UNL     1       0.327  10.388  20.357  0.00  0.00    +0.000 A 
ATOM     24  C   UNL     1       0.483   9.444  21.377  0.00  0.00    +0.000 A 
ATOM     25  C   UNL     1       1.143   8.228  21.132  0.00  0.00    +0.000 A 
BRANCH  23  26
ATOM     26  N   UNL     1      -0.410  11.563  20.627  0.00  0.00    +0.000 N 
ATOM     27  C   UNL     1      -1.508  12.011  19.904  0.00  0.00    +0.000 C 
ATOM     28  O   UNL     1      -2.048  11.419  18.969  0.00  0.00    +0.000 OA
ATOM     29  H   UNL     1      -0.171  12.062  21.477  0.00  0.00    +0.000 HD
BRANCH  27  30
ATOM     30  C   UNL     1      -2.060  13.352  20.369  0.00  0.00    +0.000 C 
BRANCH  30  31
ATOM     31  C   UNL     1      -3.384  13.200  21.075  0.00  0.00    +0.000 A 
ATOM     32  C   UNL     1      -3.468  13.347  22.468  0.00  0.00    +0.000 A 
ATOM     33  C   UNL     1      -4.676  13.133  23.132  0.00  0.00    +0.000 A 
ATOM     34  C   UNL     1      -5.814  12.787  22.410  0.00  0.00    +0.000 A 
ATOM     35  C   UNL     1      -5.752  12.681  21.021  0.00  0.00    +0.000 A 
ATOM     36  C   UNL     1      -4.544  12.892  20.355  0.00  0.00    +0.000 A 
ENDBRANCH  30  31
ENDBRANCH  27  30
ENDBRANCH  23  26
ENDBRANCH   7  20
TORSDOF 6
ENDMDL
MODEL 8
REMARK VINA RESULT:      -8.2      1.877      2.626
REMARK  Name = 
REMARK  7 active torsions:
REMARK  status: ('A' for Active; 'I' for Inactive)
REMARK    1  A    between atoms: C_1  and  O_2
REMARK    2  A    between atoms: O_2  and  C_3
REMARK    3  A    between atoms: C_8  and  N_9
REMARK    4  A    between atoms: C_15  and  C_16
REMARK    5  A    between atoms: C_19  and  N_20
REMARK    6  A    between atoms: C_21  and  C_23
REMARK    7  A    between atoms: C_23  and  C_24
REMARK                            x       y       z     vdW  Elec       q    Type
REMARK                         _______ _______ _______ _____ _____    ______ ____
ROOT
ATOM      1  N   UNL     1      -3.958  14.150  21.064  0.00  0.00    +0.000 N 
ATOM      2  C   UNL     1      -2.792  13.615  20.630  0.00  0.00    +0.000 A 
ATOM      3  N   UNL     1      -1.614  14.148  21.085  0.00  0.00    +0.000 NA
ATOM      4  C   UNL     1      -0.716  13.260  20.712  0.00  0.00    +0.000 A 
ATOM      5  C   UNL     1       0.678  13.121  20.963  0.00  0.00    +0.000 A 
ATOM      6  C   UNL     1       1.312  11.989  20.590  0.00  0.00    +0.000 A 
ATOM      7  C   UNL     1       0.620  10.901  19.894  0.00  0.00    +0.000 A 
ATOM      8  C   UNL     1      -0.682  11.076  19.600  0.00  0.00    +0.000 A 
ATOM      9  N   UNL     1      -1.338  12.233  20.007  0.00  0.00    +0.000 N 
ATOM     10  N   UNL     1      -2.637  12.530  19.866  0.00  0.00    +0.000 NA
ATOM     11  H   UNL     1      -3.873  14.903  21.739  0.00  0.00    +0.000 HD
ENDROOT
BRANCH   1  17
ATOM     12  C   UNL     1      -5.739  13.173  22.465  0.00  0.00    +0.000 A 
ATOM     13  C   UNL     1      -6.894  12.379  22.565  0.00  0.00    +0.000 A 
ATOM     14  C   UNL     1      -7.561  11.936  21.425  0.00  0.00    +0.000 A 
ATOM     15  C   UNL     1      -7.096  12.301  20.172  0.00  0.00    +0.000 A 
ATOM     16  C   UNL     1      -5.942  13.076  20.063  0.00  0.00    +0.000 A 
ATOM     17  C   UNL     1      -5.210  13.484  21.192  0.00  0.00    +0.000 A 
BRANCH  12  19
ATOM     18  C   UNL     1      -4.184  12.686  24.186  0.00  0.00    +0.000 C 
ATOM     19  O   UNL     1      -5.047  13.639  23.563  0.00  0.00    +0.000 OA
ENDBRANCH  12  19
ENDBRANCH   1  17
BRANCH   7  20
ATOM     20  C   UNL     1       1.277   9.656  19.470  0.00  0.00    +0.000 A 
ATOM     21  C   UNL     1       1.395   8.602  20.377  0.00  0.00    +0.000 A 
ATOM     22  C   UNL     1       1.968   7.389  19.984  0.00  0.00    +0.000 A 
ATOM     23  C   UNL     1       2.430   7.197  18.681  0.00  0.00    +0.000 A 
ATOM     24  C   UNL     1       2.364   8.270  17.786  0.00  0.00    +0.000 A 
ATOM     25  C   UNL     1       1.783   9.490  18.174  0.00  0.00    +0.000 A 
BRANCH  23  26
ATOM     26  N   UNL     1       2.952   5.965  18.225  0.00  0.00    +0.000 N 
ATOM     27  C   UNL     1       4.028   5.289  18.785  0.00  0.00    +0.000 C 
ATOM     28  O   UNL     1       4.641   5.620  19.801  0.00  0.00    +0.000 OA
ATOM     29  H   UNL     1       2.434   5.497  17.490  0.00  0.00    +0.000 HD
BRANCH  27  30
ATOM     30  C   UNL     1       4.428   4.022  18.041  0.00  0.00    +0.000 C 
BRANCH  30  31
ATOM     31  C   UNL     1       5.303   4.321  16.850  0.00  0.00    +0.000 A 
ATOM     32  C   UNL     1       4.977   3.811  15.583  0.00  0.00    +0.000 A 
ATOM     33  C   UNL     1       5.823   4.022  14.495  0.00  0.00    +0.000 A 
ATOM     34  C   UNL     1       6.994   4.757  14.657  0.00  0.00    +0.000 A 
ATOM     35  C   UNL     1       7.306   5.305  15.901  0.00  0.00    +0.000 A 
ATOM     36  C   UNL     1       6.461   5.093  16.991  0.00  0.00    +0.000 A 
ENDBRANCH  30  31
ENDBRANCH  27  30
ENDBRANCH  23  26
ENDBRANCH   7  20
TORSDOF 6
ENDMDL
MODEL 9
REMARK VINA RESULT:      -8.2      3.409     11.824
REMARK  Name = 
REMARK  7 active torsions:
REMARK  status: ('A' for Active; 'I' for Inactive)
REMARK    1  A    between atoms: C_1  and  O_2
REMARK    2  A    between atoms: O_2  and  C_3
REMARK    3  A    between atoms: C_8  and  N_9
REMARK    4  A    between atoms: C_15  and  C_16
REMARK    5  A    between atoms: C_19  and  N_20
REMARK    6  A    between atoms: C_21  and  C_23
REMARK    7  A    between atoms: C_23  and  C_24
REMARK                            x       y       z     vdW  Elec       q    Type
REMARK                         _______ _______ _______ _____ _____    ______ ____
ROOT
ATOM      1  N   UNL     1       5.058   3.312  16.827  0.00  0.00    +0.000 N 
ATOM      2  C   UNL     1       4.133   4.018  17.520  0.00  0.00    +0.000 A 
ATOM      3  N   UNL     1       3.837   3.632  18.802  0.00  0.00    +0.000 NA
ATOM      4  C   UNL     1       3.143   4.649  19.270  0.00  0.00    +0.000 A 
ATOM      5  C   UNL     1       2.632   4.966  20.560  0.00  0.00    +0.000 A 
ATOM      6  C   UNL     1       2.102   6.188  20.785  0.00  0.00    +0.000 A 
ATOM      7  C   UNL     1       1.998   7.198  19.728  0.00  0.00    +0.000 A 
ATOM      8  C   UNL     1       2.420   6.859  18.496  0.00  0.00    +0.000 A 
ATOM      9  N   UNL     1       2.986   5.608  18.274  0.00  0.00    +0.000 N 
ATOM     10  N   UNL     1       3.523   5.143  17.138  0.00  0.00    +0.000 NA
ATOM     11  H   UNL     1       5.502   2.551  17.332  0.00  0.00    +0.000 HD
ENDROOT
BRANCH   1  17
ATOM     12  C   UNL     1       7.037   4.581  16.076  0.00  0.00    +0.000 A 
ATOM     13  C   UNL     1       7.760   5.177  15.029  0.00  0.00    +0.000 A 
ATOM     14  C   UNL     1       7.403   4.963  13.699  0.00  0.00    +0.000 A 
ATOM     15  C   UNL     1       6.336   4.133  13.398  0.00  0.00    +0.000 A 
ATOM     16  C   UNL     1       5.605   3.549  14.432  0.00  0.00    +0.000 A 
ATOM     17  C   UNL     1       5.898   3.796  15.784  0.00  0.00    +0.000 A 
BRANCH  12  19
ATOM     18  C   UNL     1       7.263   6.104  17.878  0.00  0.00    +0.000 C 
ATOM     19  O   UNL     1       7.353   4.758  17.406  0.00  0.00    +0.000 OA
ENDBRANCH  12  19
ENDBRANCH   1  17
BRANCH   7  20
ATOM     20  C   UNL     1       1.425   8.537  19.934  0.00  0.00    +0.000 A 
ATOM     21  C   UNL     1       1.015   8.914  21.213  0.00  0.00    +0.000 A 
ATOM     22  C   UNL     1       0.517  10.200  21.447  0.00  0.00    +0.000 A 
ATOM     23  C   UNL     1       0.423  11.136  20.415  0.00  0.00    +0.000 A 
ATOM     24  C   UNL     1       0.782  10.742  19.122  0.00  0.00    +0.000 A 
ATOM     25  C   UNL     1       1.288   9.453  18.883  0.00  0.00    +0.000 A 
BRANCH  23  26
ATOM     26  N   UNL     1      -0.010  12.466  20.623  0.00  0.00    +0.000 N 
ATOM     27  C   UNL     1       0.760  13.491  21.158  0.00  0.00    +0.000 C 
ATOM     28  O   UNL     1       1.951  13.417  21.463  0.00  0.00    +0.000 OA
ATOM     29  H   UNL     1      -0.925  12.707  20.259  0.00  0.00    +0.000 HD
BRANCH  27  30
ATOM     30  C   UNL     1       0.013  14.805  21.343  0.00  0.00    +0.000 C 
BRANCH  30  31
ATOM     31  C   UNL     1      -1.257  14.624  22.135  0.00  0.00    +0.000 A 
ATOM     32  C   UNL     1      -2.506  14.870  21.543  0.00  0.00    +0.000 A 
ATOM     33  C   UNL     1      -3.677  14.777  22.295  0.00  0.00    +0.000 A 
ATOM     34  C   UNL     1      -3.614  14.422  23.639  0.00  0.00    +0.000 A 
ATOM     35  C   UNL     1      -2.383  14.133  24.226  0.00  0.00    +0.000 A 
ATOM     36  C   UNL     1      -1.210  14.228  23.477  0.00  0.00    +0.000 A 
ENDBRANCH  30  31
ENDBRANCH  27  30
ENDBRANCH  23  26
ENDBRANCH   7  20
TORSDOF 6
ENDMDL
