MODEL 1
REMARK VINA RESULT:      -8.1      0.000      0.000
REMARK  Name = 
REMARK  4 active torsions:
REMARK  status: ('A' for Active; 'I' for Inactive)
REMARK    1  A    between atoms: C_1  and  N_2
REMARK    2  A    between atoms: C_5  and  C_6
REMARK    3  A    between atoms: C_6  and  C_7
REMARK    4  A    between atoms: C_7  and  N_8
REMARK                            x       y       z     vdW  Elec       q    Type
REMARK                         _______ _______ _______ _____ _____    ______ ____
ROOT
ATOM      1  C   UNL     1      -5.955  12.713  17.560  0.00  0.00    +0.000 C 
ATOM      2  N   UNL     1      -4.689  12.067  17.810  0.00  0.00    +0.000 N 
ATOM      3  C   UNL     1      -3.943  12.123  18.969  0.00  0.00    +0.000 A 
ATOM      4  N   UNL     1      -4.442  12.654  20.150  0.00  0.00    +0.000 N 
ATOM      5  C   UNL     1      -3.759  13.637  20.848  0.00  0.00    +0.000 A 
ATOM      6  N   UNL     1      -4.206  14.111  21.984  0.00  0.00    +0.000 NA
ATOM      7  C   UNL     1      -5.418  13.627  22.484  0.00  0.00    +0.000 A 
ATOM      8  C   UNL     1      -5.931  14.161  23.669  0.00  0.00    +0.000 A 
ATOM      9  C   UNL     1      -7.175  13.742  24.171  0.00  0.00    +0.000 A 
ATOM     10  C   UNL     1      -7.916  12.775  23.499  0.00  0.00    +0.000 A 
ATOM     11  C   UNL     1      -7.403  12.212  22.330  0.00  0.00    +0.000 A 
ATOM     12  C   UNL     1      -6.168  12.643  21.844  0.00  0.00    +0.000 A 
ATOM     13  C   UNL     1      -5.620  12.070  20.615  0.00  0.00    +0.000 A 
ATOM     14  O   UNL     1      -6.231  11.145  20.081  0.00  0.00    +0.000 OA
ATOM     15  N   UNL     1      -2.771  11.531  18.791  0.00  0.00    +0.000 NA
ATOM     16  C   UNL     1      -2.853  10.923  17.555  0.00  0.00    +0.000 A 
ATOM     17  C   UNL     1      -1.978  10.017  16.931  0.00  0.00    +0.000 A 
ATOM     18  C   UNL     1      -2.304   9.527  15.658  0.00  0.00    +0.000 A 
ATOM     19  C   UNL     1      -3.462   9.951  15.006  0.00  0.00    +0.000 A 
ATOM     20  C   UNL     1      -4.351  10.842  15.615  0.00  0.00    +0.000 A 
ATOM     21  C   UNL     1      -4.024  11.281  16.902  0.00  0.00    +0.000 A 
ENDROOT
BRANCH   5  22
ATOM     22  C   UNL     1      -2.449  14.190  20.271  0.00  0.00    +0.000 C 
BRANCH  22  23
ATOM     23  C   UNL     1      -1.224  14.072  21.180  0.00  0.00    +0.000 C 
BRANCH  23  24
ATOM     24  N   UNL     1      -0.621  12.754  21.354  0.00  0.00    +0.000 N 
ATOM     25  C   UNL     1       0.445  12.388  20.577  0.00  0.00    +0.000 C 
ATOM     26  O   UNL     1       1.175  13.067  19.878  0.00  0.00    +0.000 OA
ATOM     27  C   UNL     1       0.636  10.970  20.812  0.00  0.00    +0.000 A 
ATOM     28  C   UNL     1       1.026   9.984  19.937  0.00  0.00    +0.000 A 
ATOM     29  C   UNL     1       0.925   8.665  20.383  0.00  0.00    +0.000 A 
ATOM     30  C   UNL     1       0.558   8.381  21.715  0.00  0.00    +0.000 A 
ATOM     31  C   UNL     1       0.101   9.399  22.559  0.00  0.00    +0.000 A 
ATOM     32  C   UNL     1       0.038  10.669  22.015  0.00  0.00    +0.000 A 
ATOM     33  C   UNL     1      -0.884  11.783  22.285  0.00  0.00    +0.000 C 
ATOM     34  O   UNL     1      -1.797  11.712  23.083  0.00  0.00    +0.000 OA
ENDBRANCH  23  24
ENDBRANCH  22  23
ENDBRANCH   5  22
TORSDOF 3
ENDMDL
MODEL 2
REMARK VINA RESULT:      -8.1      3.591      6.695
REMARK  Name = 
REMARK  4 active torsions:
REMARK  status: ('A' for Active; 'I' for Inactive)
REMARK    1  A    between atoms: C_1  and  N_2
REMARK    2  A    between atoms: C_5  and  C_6
REMARK    3  A    between atoms: C_6  and  C_7
REMARK    4  A    between atoms: C_7  and  N_8
REMARK                            x       y       z     vdW  Elec       q    Type
REMARK                         _______ _______ _______ _____ _____    ______ ____
ROOT
ATOM      1  C   UNL     1       0.707  12.624  21.386  0.00  0.00    +0.000 C 
ATOM      2  N   UNL     1       1.484  12.871  20.197  0.00  0.00    +0.000 N 
ATOM      3  C   UNL     1       1.274  12.338  18.941  0.00  0.00    +0.000 A 
ATOM      4  N   UNL     1       0.120  11.641  18.613  0.00  0.00    +0.000 N 
ATOM      5  C   UNL     1       0.172  10.378  18.046  0.00  0.00    +0.000 A 
ATOM      6  N   UNL     1      -0.914   9.735  17.698  0.00  0.00    +0.000 NA
ATOM      7  C   UNL     1      -2.156  10.334  17.932  0.00  0.00    +0.000 A 
ATOM      8  C   UNL     1      -3.323   9.636  17.611  0.00  0.00    +0.000 A 
ATOM      9  C   UNL     1      -4.588  10.181  17.886  0.00  0.00    +0.000 A 
ATOM     10  C   UNL     1      -4.702  11.436  18.477  0.00  0.00    +0.000 A 
ATOM     11  C   UNL     1      -3.545  12.156  18.777  0.00  0.00    +0.000 A 
ATOM     12  C   UNL     1      -2.296  11.598  18.499  0.00  0.00    +0.000 A 
ATOM     13  C   UNL     1      -1.073  12.335  18.816  0.00  0.00    +0.000 A 
ATOM     14  O   UNL     1      -1.181  13.483  19.244  0.00  0.00    +0.000 OA
ATOM     15  N   UNL     1       2.265  12.669  18.128  0.00  0.00    +0.000 NA
ATOM     16  C   UNL     1       3.022  13.587  18.828  0.00  0.00    +0.000 A 
ATOM     17  C   UNL     1       4.085  14.400  18.402  0.00  0.00    +0.000 A 
ATOM     18  C   UNL     1       4.684  15.272  19.322  0.00  0.00    +0.000 A 
ATOM     19  C   UNL     1       4.253  15.316  20.647  0.00  0.00    +0.000 A 
ATOM     20  C   UNL     1       3.188  14.525  21.089  0.00  0.00    +0.000 A 
ATOM     21  C   UNL     1       2.581  13.695  20.140  0.00  0.00    +0.000 A 
ENDROOT
BRANCH   5  22
ATOM     22  C   UNL     1       1.537   9.713  17.829  0.00  0.00    +0.000 C 
BRANCH  22  23
ATOM     23  C   UNL     1       2.196   9.131  19.081  0.00  0.00    +0.000 C 
BRANCH  23  24
ATOM     24  N   UNL     1       2.140   7.686  19.279  0.00  0.00    +0.000 N 
ATOM     25  C   UNL     1       2.730   6.853  18.367  0.00  0.00    +0.000 C 
ATOM     26  O   UNL     1       3.530   7.099  17.484  0.00  0.00    +0.000 OA
ATOM     27  C   UNL     1       2.285   5.516  18.708  0.00  0.00    +0.000 A 
ATOM     28  C   UNL     1       1.984   4.457  17.883  0.00  0.00    +0.000 A 
ATOM     29  C   UNL     1       1.376   3.348  18.473  0.00  0.00    +0.000 A 
ATOM     30  C   UNL     1       1.201   3.279  19.871  0.00  0.00    +0.000 A 
ATOM     31  C   UNL     1       1.452   4.397  20.674  0.00  0.00    +0.000 A 
ATOM     32  C   UNL     1       1.876   5.542  20.022  0.00  0.00    +0.000 A 
ATOM     33  C   UNL     1       1.654   6.961  20.337  0.00  0.00    +0.000 C 
ATOM     34  O   UNL     1       0.997   7.337  21.287  0.00  0.00    +0.000 OA
ENDBRANCH  23  24
ENDBRANCH  22  23
ENDBRANCH   5  22
TORSDOF 3
ENDMDL
MODEL 3
REMARK VINA RESULT:      -7.5      2.418      6.658
REMARK  Name = 
REMARK  4 active torsions:
REMARK  status: ('A' for Active; 'I' for Inactive)
REMARK    1  A    between atoms: C_1  and  N_2
REMARK    2  A    between atoms: C_5  and  C_6
REMARK    3  A    between atoms: C_6  and  C_7
REMARK    4  A    between atoms: C_7  and  N_8
REMARK                            x       y       z     vdW  Elec       q    Type
REMARK                         _______ _______ _______ _____ _____    ______ ____
ROOT
ATOM      1  C   UNL     1       0.904  10.472  18.639  0.00  0.00    +0.000 C 
ATOM      2  N   UNL     1      -0.355  11.165  18.757  0.00  0.00    +0.000 N 
ATOM      3  C   UNL     1      -0.624  12.272  19.537  0.00  0.00    +0.000 A 
ATOM      4  N   UNL     1       0.377  13.004  20.158  0.00  0.00    +0.000 N 
ATOM      5  C   UNL     1       0.337  13.282  21.515  0.00  0.00    +0.000 A 
ATOM      6  N   UNL     1       1.258  14.007  22.097  0.00  0.00    +0.000 NA
ATOM      7  C   UNL     1       2.321  14.489  21.327  0.00  0.00    +0.000 A 
ATOM      8  C   UNL     1       3.336  15.222  21.946  0.00  0.00    +0.000 A 
ATOM      9  C   UNL     1       4.449  15.672  21.216  0.00  0.00    +0.000 A 
ATOM     10  C   UNL     1       4.555  15.403  19.855  0.00  0.00    +0.000 A 
ATOM     11  C   UNL     1       3.535  14.697  19.218  0.00  0.00    +0.000 A 
ATOM     12  C   UNL     1       2.438  14.255  19.959  0.00  0.00    +0.000 A 
ATOM     13  C   UNL     1       1.363  13.505  19.309  0.00  0.00    +0.000 A 
ATOM     14  O   UNL     1       1.413  13.358  18.088  0.00  0.00    +0.000 OA
ATOM     15  N   UNL     1      -1.919  12.549  19.512  0.00  0.00    +0.000 NA
ATOM     16  C   UNL     1      -2.452  11.718  18.547  0.00  0.00    +0.000 A 
ATOM     17  C   UNL     1      -3.736  11.698  17.976  0.00  0.00    +0.000 A 
ATOM     18  C   UNL     1      -4.025  10.745  16.988  0.00  0.00    +0.000 A 
ATOM     19  C   UNL     1      -3.065   9.812  16.596  0.00  0.00    +0.000 A 
ATOM     20  C   UNL     1      -1.778   9.823  17.143  0.00  0.00    +0.000 A 
ATOM     21  C   UNL     1      -1.504  10.811  18.094  0.00  0.00    +0.000 A 
ENDROOT
BRANCH   5  22
ATOM     22  C   UNL     1      -0.813  12.715  22.359  0.00  0.00    +0.000 C 
BRANCH  22  23
ATOM     23  C   UNL     1      -1.796  13.747  22.915  0.00  0.00    +0.000 C 
BRANCH  23  24
ATOM     24  N   UNL     1      -3.107  13.859  22.282  0.00  0.00    +0.000 N 
ATOM     25  C   UNL     1      -4.077  12.935  22.564  0.00  0.00    +0.000 C 
ATOM     26  O   UNL     1      -4.141  12.115  23.461  0.00  0.00    +0.000 OA
ATOM     27  C   UNL     1      -5.139  13.174  21.606  0.00  0.00    +0.000 A 
ATOM     28  C   UNL     1      -5.967  12.274  20.977  0.00  0.00    +0.000 A 
ATOM     29  C   UNL     1      -6.763  12.764  19.940  0.00  0.00    +0.000 A 
ATOM     30  C   UNL     1      -6.798  14.143  19.648  0.00  0.00    +0.000 A 
ATOM     31  C   UNL     1      -5.895  15.021  20.257  0.00  0.00    +0.000 A 
ATOM     32  C   UNL     1      -4.993  14.462  21.143  0.00  0.00    +0.000 A 
ATOM     33  C   UNL     1      -3.611  14.844  21.473  0.00  0.00    +0.000 C 
ATOM     34  O   UNL     1      -3.035  15.775  20.947  0.00  0.00    +0.000 OA
ENDBRANCH  23  24
ENDBRANCH  22  23
ENDBRANCH   5  22
TORSDOF 3
ENDMDL
MODEL 4
REMARK VINA RESULT:      -7.5      2.435      6.743
REMARK  Name = 
REMARK  4 active torsions:
REMARK  status: ('A' for Active; 'I' for Inactive)
REMARK    1  A    between atoms: C_1  and  N_2
REMARK    2  A    between atoms: C_5  and  C_6
REMARK    3  A    between atoms: C_6  and  C_7
REMARK    4  A    between atoms: C_7  and  N_8
REMARK                            x       y       z     vdW  Elec       q    Type
REMARK                         _______ _______ _______ _____ _____    ______ ____
ROOT
ATOM      1  C   UNL     1       0.954  10.863  18.950  0.00  0.00    +0.000 C 
ATOM      2  N   UNL     1      -0.366  11.435  19.045  0.00  0.00    +0.000 N 
ATOM      3  C   UNL     1      -0.751  12.512  19.818  0.00  0.00    +0.000 A 
ATOM      4  N   UNL     1       0.167  13.335  20.455  0.00  0.00    +0.000 N 
ATOM      5  C   UNL     1       0.078  13.608  21.811  0.00  0.00    +0.000 A 
ATOM      6  N   UNL     1       0.918  14.416  22.406  0.00  0.00    +0.000 NA
ATOM      7  C   UNL     1       1.944  14.995  21.653  0.00  0.00    +0.000 A 
ATOM      8  C   UNL     1       2.876  15.820  22.288  0.00  0.00    +0.000 A 
ATOM      9  C   UNL     1       3.954  16.372  21.577  0.00  0.00    +0.000 A 
ATOM     10  C   UNL     1       4.108  16.114  20.218  0.00  0.00    +0.000 A 
ATOM     11  C   UNL     1       3.169  15.315  19.565  0.00  0.00    +0.000 A 
ATOM     12  C   UNL     1       2.105  14.773  20.288  0.00  0.00    +0.000 A 
ATOM     13  C   UNL     1       1.117  13.926  19.622  0.00  0.00    +0.000 A 
ATOM     14  O   UNL     1       1.201  13.783  18.402  0.00  0.00    +0.000 OA
ATOM     15  N   UNL     1      -2.065  12.667  19.771  0.00  0.00    +0.000 NA
ATOM     16  C   UNL     1      -2.502  11.790  18.799  0.00  0.00    +0.000 A 
ATOM     17  C   UNL     1      -3.768  11.650  18.206  0.00  0.00    +0.000 A 
ATOM     18  C   UNL     1      -3.950  10.674  17.216  0.00  0.00    +0.000 A 
ATOM     19  C   UNL     1      -2.901   9.835  16.841  0.00  0.00    +0.000 A 
ATOM     20  C   UNL     1      -1.630   9.966  17.410  0.00  0.00    +0.000 A 
ATOM     21  C   UNL     1      -1.465  10.975  18.364  0.00  0.00    +0.000 A 
ENDROOT
BRANCH   5  22
ATOM     22  C   UNL     1      -1.027  12.937  22.636  0.00  0.00    +0.000 C 
BRANCH  22  23
ATOM     23  C   UNL     1      -1.841  13.870  23.534  0.00  0.00    +0.000 C 
BRANCH  23  24
ATOM     24  N   UNL     1      -3.297  13.805  23.454  0.00  0.00    +0.000 N 
ATOM     25  C   UNL     1      -3.990  14.830  22.868  0.00  0.00    +0.000 C 
ATOM     26  O   UNL     1      -3.596  15.738  22.160  0.00  0.00    +0.000 OA
ATOM     27  C   UNL     1      -5.387  14.586  23.173  0.00  0.00    +0.000 A 
ATOM     28  C   UNL     1      -6.391  15.484  23.446  0.00  0.00    +0.000 A 
ATOM     29  C   UNL     1      -7.599  14.961  23.912  0.00  0.00    +0.000 A 
ATOM     30  C   UNL     1      -7.805  13.568  23.973  0.00  0.00    +0.000 A 
ATOM     31  C   UNL     1      -6.743  12.682  23.756  0.00  0.00    +0.000 A 
ATOM     32  C   UNL     1      -5.513  13.251  23.480  0.00  0.00    +0.000 A 
ATOM     33  C   UNL     1      -4.152  12.789  23.796  0.00  0.00    +0.000 C 
ATOM     34  O   UNL     1      -3.922  11.766  24.408  0.00  0.00    +0.000 OA
ENDBRANCH  23  24
ENDBRANCH  22  23
ENDBRANCH   5  22
TORSDOF 3
ENDMDL
MODEL 5
REMARK VINA RESULT:      -7.5      2.340      6.852
REMARK  Name = 
REMARK  4 active torsions:
REMARK  status: ('A' for Active; 'I' for Inactive)
REMARK    1  A    between atoms: C_1  and  N_2
REMARK    2  A    between atoms: C_5  and  C_6
REMARK    3  A    between atoms: C_6  and  C_7
REMARK    4  A    between atoms: C_7  and  N_8
REMARK                            x       y       z     vdW  Elec       q    Type
REMARK                         _______ _______ _______ _____ _____    ______ ____
ROOT
ATOM      1  C   UNL     1       0.237  10.188  21.852  0.00  0.00    +0.000 C 
ATOM      2  N   UNL     1       0.706  10.062  20.494  0.00  0.00    +0.000 N 
ATOM      3  C   UNL     1       0.641  11.018  19.500  0.00  0.00    +0.000 A 
ATOM      4  N   UNL     1       0.295  12.337  19.759  0.00  0.00    +0.000 N 
ATOM      5  C   UNL     1      -0.713  12.974  19.056  0.00  0.00    +0.000 A 
ATOM      6  N   UNL     1      -1.014  14.230  19.269  0.00  0.00    +0.000 NA
ATOM      7  C   UNL     1      -0.311  14.933  20.253  0.00  0.00    +0.000 A 
ATOM      8  C   UNL     1      -0.657  16.259  20.525  0.00  0.00    +0.000 A 
ATOM      9  C   UNL     1      -0.014  16.977  21.547  0.00  0.00    +0.000 A 
ATOM     10  C   UNL     1       0.990  16.381  22.302  0.00  0.00    +0.000 A 
ATOM     11  C   UNL     1       1.365  15.067  22.023  0.00  0.00    +0.000 A 
ATOM     12  C   UNL     1       0.714  14.367  21.007  0.00  0.00    +0.000 A 
ATOM     13  C   UNL     1       1.088  12.985  20.707  0.00  0.00    +0.000 A 
ATOM     14  O   UNL     1       2.044  12.497  21.309  0.00  0.00    +0.000 OA
ATOM     15  N   UNL     1       1.032  10.507  18.343  0.00  0.00    +0.000 NA
ATOM     16  C   UNL     1       1.536   9.259  18.646  0.00  0.00    +0.000 A 
ATOM     17  C   UNL     1       2.242   8.346  17.844  0.00  0.00    +0.000 A 
ATOM     18  C   UNL     1       2.662   7.132  18.405  0.00  0.00    +0.000 A 
ATOM     19  C   UNL     1       2.361   6.818  19.730  0.00  0.00    +0.000 A 
ATOM     20  C   UNL     1       1.670   7.717  20.549  0.00  0.00    +0.000 A 
ATOM     21  C   UNL     1       1.301   8.938  19.976  0.00  0.00    +0.000 A 
ENDROOT
BRANCH   5  22
ATOM     22  C   UNL     1      -1.505  12.184  18.005  0.00  0.00    +0.000 C 
BRANCH  22  23
ATOM     23  C   UNL     1      -2.606  11.274  18.552  0.00  0.00    +0.000 C 
BRANCH  23  24
ATOM     24  N   UNL     1      -3.969  11.794  18.595  0.00  0.00    +0.000 N 
ATOM     25  C   UNL     1      -4.766  11.701  17.486  0.00  0.00    +0.000 C 
ATOM     26  O   UNL     1      -4.630  11.033  16.478  0.00  0.00    +0.000 OA
ATOM     27  C   UNL     1      -5.931  12.517  17.768  0.00  0.00    +0.000 A 
ATOM     28  C   UNL     1      -6.671  13.307  16.919  0.00  0.00    +0.000 A 
ATOM     29  C   UNL     1      -7.618  14.149  17.504  0.00  0.00    +0.000 A 
ATOM     30  C   UNL     1      -7.880  14.089  18.888  0.00  0.00    +0.000 A 
ATOM     31  C   UNL     1      -7.065  13.329  19.733  0.00  0.00    +0.000 A 
ATOM     32  C   UNL     1      -6.016  12.654  19.135  0.00  0.00    +0.000 A 
ATOM     33  C   UNL     1      -4.681  12.309  19.648  0.00  0.00    +0.000 C 
ATOM     34  O   UNL     1      -4.295  12.617  20.758  0.00  0.00    +0.000 OA
ENDBRANCH  23  24
ENDBRANCH  22  23
ENDBRANCH   5  22
TORSDOF 3
ENDMDL
MODEL 6
REMARK VINA RESULT:      -7.4      2.803      4.912
REMARK  Name = 
REMARK  4 active torsions:
REMARK  status: ('A' for Active; 'I' for Inactive)
REMARK    1  A    between atoms: C_1  and  N_2
REMARK    2  A    between atoms: C_5  and  C_6
REMARK    3  A    between atoms: C_6  and  C_7
REMARK    4  A    between atoms: C_7  and  N_8
REMARK                            x       y       z     vdW  Elec       q    Type
REMARK                         _______ _______ _______ _____ _____    ______ ____
ROOT
ATOM      1  C   UNL     1      -2.150  12.948  20.136  0.00  0.00    +0.000 C 
ATOM      2  N   UNL     1      -1.731  12.230  21.315  0.00  0.00    +0.000 N 
ATOM      3  C   UNL     1      -2.089  12.499  22.621  0.00  0.00    +0.000 A 
ATOM      4  N   UNL     1      -3.099  13.392  22.947  0.00  0.00    +0.000 N 
ATOM      5  C   UNL     1      -2.891  14.427  23.844  0.00  0.00    +0.000 A 
ATOM      6  N   UNL     1      -3.853  15.246  24.185  0.00  0.00    +0.000 NA
ATOM      7  C   UNL     1      -5.114  15.083  23.604  0.00  0.00    +0.000 A 
ATOM      8  C   UNL     1      -6.135  15.982  23.922  0.00  0.00    +0.000 A 
ATOM      9  C   UNL     1      -7.398  15.885  23.313  0.00  0.00    +0.000 A 
ATOM     10  C   UNL     1      -7.657  14.880  22.386  0.00  0.00    +0.000 A 
ATOM     11  C   UNL     1      -6.656  13.958  22.081  0.00  0.00    +0.000 A 
ATOM     12  C   UNL     1      -5.407  14.071  22.693  0.00  0.00    +0.000 A 
ATOM     13  C   UNL     1      -4.342  13.119  22.377  0.00  0.00    +0.000 A 
ATOM     14  O   UNL     1      -4.608  12.174  21.635  0.00  0.00    +0.000 OA
ATOM     15  N   UNL     1      -1.402  11.730  23.454  0.00  0.00    +0.000 NA
ATOM     16  C   UNL     1      -0.737  10.826  22.652  0.00  0.00    +0.000 A 
ATOM     17  C   UNL     1      -0.005   9.676  22.995  0.00  0.00    +0.000 A 
ATOM     18  C   UNL     1       0.570   8.908  21.972  0.00  0.00    +0.000 A 
ATOM     19  C   UNL     1       0.444   9.289  20.637  0.00  0.00    +0.000 A 
ATOM     20  C   UNL     1      -0.290  10.423  20.273  0.00  0.00    +0.000 A 
ATOM     21  C   UNL     1      -0.889  11.147  21.309  0.00  0.00    +0.000 A 
ENDROOT
BRANCH   5  22
ATOM     22  C   UNL     1      -1.493  14.623  24.447  0.00  0.00    +0.000 C 
BRANCH  22  23
ATOM     23  C   UNL     1      -0.700  15.814  23.906  0.00  0.00    +0.000 C 
BRANCH  23  24
ATOM     24  N   UNL     1      -0.555  15.944  22.459  0.00  0.00    +0.000 N 
ATOM     25  C   UNL     1       0.394  15.207  21.804  0.00  0.00    +0.000 C 
ATOM     26  O   UNL     1       1.034  14.242  22.179  0.00  0.00    +0.000 OA
ATOM     27  C   UNL     1       0.451  15.744  20.458  0.00  0.00    +0.000 A 
ATOM     28  C   UNL     1       1.533  15.903  19.625  0.00  0.00    +0.000 A 
ATOM     29  C   UNL     1       1.331  16.642  18.459  0.00  0.00    +0.000 A 
ATOM     30  C   UNL     1       0.042  17.091  18.104  0.00  0.00    +0.000 A 
ATOM     31  C   UNL     1      -1.024  16.975  19.003  0.00  0.00    +0.000 A 
ATOM     32  C   UNL     1      -0.736  16.402  20.229  0.00  0.00    +0.000 A 
ATOM     33  C   UNL     1      -1.314  16.647  21.559  0.00  0.00    +0.000 C 
ATOM     34  O   UNL     1      -2.185  17.468  21.766  0.00  0.00    +0.000 OA
ENDBRANCH  23  24
ENDBRANCH  22  23
ENDBRANCH   5  22
TORSDOF 3
ENDMDL
MODEL 7
REMARK VINA RESULT:      -7.4      2.353      5.903
REMARK  Name = 
REMARK  4 active torsions:
REMARK  status: ('A' for Active; 'I' for Inactive)
REMARK    1  A    between atoms: C_1  and  N_2
REMARK    2  A    between atoms: C_5  and  C_6
REMARK    3  A    between atoms: C_6  and  C_7
REMARK    4  A    between atoms: C_7  and  N_8
REMARK                            x       y       z     vdW  Elec       q    Type
REMARK                         _______ _______ _______ _____ _____    ______ ____
ROOT
ATOM      1  C   UNL     1      -3.005  12.308  23.389  0.00  0.00    +0.000 C 
ATOM      2  N   UNL     1      -2.527  13.619  23.024  0.00  0.00    +0.000 N 
ATOM      3  C   UNL     1      -2.165  14.050  21.763  0.00  0.00    +0.000 A 
ATOM      4  N   UNL     1      -2.430  13.309  20.620  0.00  0.00    +0.000 N 
ATOM      5  C   UNL     1      -1.432  12.999  19.710  0.00  0.00    +0.000 A 
ATOM      6  N   UNL     1      -1.686  12.336  18.610  0.00  0.00    +0.000 NA
ATOM      7  C   UNL     1      -2.996  11.910  18.368  0.00  0.00    +0.000 A 
ATOM      8  C   UNL     1      -3.270  11.158  17.223  0.00  0.00    +0.000 A 
ATOM      9  C   UNL     1      -4.562  10.663  16.976  0.00  0.00    +0.000 A 
ATOM     10  C   UNL     1      -5.598  10.923  17.868  0.00  0.00    +0.000 A 
ATOM     11  C   UNL     1      -5.345  11.696  19.001  0.00  0.00    +0.000 A 
ATOM     12  C   UNL     1      -4.055  12.177  19.232  0.00  0.00    +0.000 A 
ATOM     13  C   UNL     1      -3.771  12.982  20.419  0.00  0.00    +0.000 A 
ATOM     14  O   UNL     1      -4.710  13.293  21.150  0.00  0.00    +0.000 OA
ATOM     15  N   UNL     1      -1.636  15.263  21.825  0.00  0.00    +0.000 NA
ATOM     16  C   UNL     1      -1.842  15.685  23.122  0.00  0.00    +0.000 A 
ATOM     17  C   UNL     1      -1.647  16.948  23.706  0.00  0.00    +0.000 A 
ATOM     18  C   UNL     1      -1.950  17.122  25.064  0.00  0.00    +0.000 A 
ATOM     19  C   UNL     1      -2.412  16.055  25.834  0.00  0.00    +0.000 A 
ATOM     20  C   UNL     1      -2.624  14.793  25.270  0.00  0.00    +0.000 A 
ATOM     21  C   UNL     1      -2.355  14.658  23.904  0.00  0.00    +0.000 A 
ENDROOT
BRANCH   5  22
ATOM     22  C   UNL     1       0.009  13.436  20.003  0.00  0.00    +0.000 C 
BRANCH  22  23
ATOM     23  C   UNL     1       0.873  12.414  20.743  0.00  0.00    +0.000 C 
BRANCH  23  24
ATOM     24  N   UNL     1       1.087  11.112  20.117  0.00  0.00    +0.000 N 
ATOM     25  C   UNL     1       0.641   9.978  20.741  0.00  0.00    +0.000 C 
ATOM     26  O   UNL     1      -0.141   9.848  21.664  0.00  0.00    +0.000 OA
ATOM     27  C   UNL     1       1.222   8.871  20.007  0.00  0.00    +0.000 A 
ATOM     28  C   UNL     1       1.681   7.660  20.471  0.00  0.00    +0.000 A 
ATOM     29  C   UNL     1       2.385   6.862  19.568  0.00  0.00    +0.000 A 
ATOM     30  C   UNL     1       2.501   7.237  18.213  0.00  0.00    +0.000 A 
ATOM     31  C   UNL     1       2.085   8.503  17.788  0.00  0.00    +0.000 A 
ATOM     32  C   UNL     1       1.562   9.338  18.759  0.00  0.00    +0.000 A 
ATOM     33  C   UNL     1       1.604  10.804  18.885  0.00  0.00    +0.000 C 
ATOM     34  O   UNL     1       2.168  11.525  18.087  0.00  0.00    +0.000 OA
ENDBRANCH  23  24
ENDBRANCH  22  23
ENDBRANCH   5  22
TORSDOF 3
ENDMDL
MODEL 8
REMARK VINA RESULT:      -7.3      3.474      6.737
REMARK  Name = 
REMARK  4 active torsions:
REMARK  status: ('A' for Active; 'I' for Inactive)
REMARK    1  A    between atoms: C_1  and  N_2
REMARK    2  A    between atoms: C_5  and  C_6
REMARK    3  A    between atoms: C_6  and  C_7
REMARK    4  A    between atoms: C_7  and  N_8
REMARK                            x       y       z     vdW  Elec       q    Type
REMARK                         _______ _______ _______ _____ _____    ______ ____
ROOT
ATOM      1  C   UNL     1      -0.042  13.283  22.078  0.00  0.00    +0.000 C 
ATOM      2  N   UNL     1       0.908  13.642  21.053  0.00  0.00    +0.000 N 
ATOM      3  C   UNL     1       1.024  13.083  19.796  0.00  0.00    +0.000 A 
ATOM      4  N   UNL     1       0.069  12.223  19.274  0.00  0.00    +0.000 N 
ATOM      5  C   UNL     1       0.412  10.982  18.764  0.00  0.00    +0.000 A 
ATOM      6  N   UNL     1      -0.481  10.186  18.232  0.00  0.00    +0.000 NA
ATOM      7  C   UNL     1      -1.818  10.596  18.206  0.00  0.00    +0.000 A 
ATOM      8  C   UNL     1      -2.787   9.733  17.687  0.00  0.00    +0.000 A 
ATOM      9  C   UNL     1      -4.147  10.086  17.698  0.00  0.00    +0.000 A 
ATOM     10  C   UNL     1      -4.553  11.311  18.219  0.00  0.00    +0.000 A 
ATOM     11  C   UNL     1      -3.593  12.193  18.715  0.00  0.00    +0.000 A 
ATOM     12  C   UNL     1      -2.247  11.825  18.699  0.00  0.00    +0.000 A 
ATOM     13  C   UNL     1      -1.228  12.734  19.223  0.00  0.00    +0.000 A 
ATOM     14  O   UNL     1      -1.581  13.855  19.589  0.00  0.00    +0.000 OA
ATOM     15  N   UNL     1       2.097  13.556  19.180  0.00  0.00    +0.000 NA
ATOM     16  C   UNL     1       2.562  14.575  19.985  0.00  0.00    +0.000 A 
ATOM     17  C   UNL     1       3.560  15.536  19.748  0.00  0.00    +0.000 A 
ATOM     18  C   UNL     1       3.836  16.487  20.740  0.00  0.00    +0.000 A 
ATOM     19  C   UNL     1       3.154  16.467  21.956  0.00  0.00    +0.000 A 
ATOM     20  C   UNL     1       2.149  15.528  22.208  0.00  0.00    +0.000 A 
ATOM     21  C   UNL     1       1.864  14.618  21.185  0.00  0.00    +0.000 A 
ENDROOT
BRANCH   5  22
ATOM     22  C   UNL     1       1.875  10.524  18.833  0.00  0.00    +0.000 C 
BRANCH  22  23
ATOM     23  C   UNL     1       2.234   9.323  17.957  0.00  0.00    +0.000 C 
BRANCH  23  24
ATOM     24  N   UNL     1       2.310   8.009  18.588  0.00  0.00    +0.000 N 
ATOM     25  C   UNL     1       2.995   6.998  17.971  0.00  0.00    +0.000 C 
ATOM     26  O   UNL     1       3.789   7.039  17.049  0.00  0.00    +0.000 OA
ATOM     27  C   UNL     1       2.670   5.793  18.708  0.00  0.00    +0.000 A 
ATOM     28  C   UNL     1       2.489   4.509  18.249  0.00  0.00    +0.000 A 
ATOM     29  C   UNL     1       1.975   3.580  19.155  0.00  0.00    +0.000 A 
ATOM     30  C   UNL     1       1.775   3.926  20.508  0.00  0.00    +0.000 A 
ATOM     31  C   UNL     1       1.902   5.254  20.928  0.00  0.00    +0.000 A 
ATOM     32  C   UNL     1       2.231   6.180  19.954  0.00  0.00    +0.000 A 
ATOM     33  C   UNL     1       1.869   7.599  19.821  0.00  0.00    +0.000 C 
ATOM     34  O   UNL     1       1.159   8.183  20.614  0.00  0.00    +0.000 OA
ENDBRANCH  23  24
ENDBRANCH  22  23
ENDBRANCH   5  22
TORSDOF 3
ENDMDL
MODEL 9
REMARK VINA RESULT:      -7.2      7.867     11.053
REMARK  Name = 
REMARK  4 active torsions:
REMARK  status: ('A' for Active; 'I' for Inactive)
REMARK    1  A    between atoms: C_1  and  N_2
REMARK    2  A    between atoms: C_5  and  C_6
REMARK    3  A    between atoms: C_6  and  C_7
REMARK    4  A    between atoms: C_7  and  N_8
REMARK                            x       y       z     vdW  Elec       q    Type
REMARK                         _______ _______ _______ _____ _____    ______ ____
ROOT
ATOM      1  C   UNL     1       3.575  16.676  22.648  0.00  0.00    +0.000 C 
ATOM      2  N   UNL     1       3.659  16.530  21.215  0.00  0.00    +0.000 N 
ATOM      3  C   UNL     1       4.693  15.965  20.497  0.00  0.00    +0.000 A 
ATOM      4  N   UNL     1       5.716  15.251  21.103  0.00  0.00    +0.000 N 
ATOM      5  C   UNL     1       7.048  15.553  20.869  0.00  0.00    +0.000 A 
ATOM      6  N   UNL     1       8.017  14.856  21.407  0.00  0.00    +0.000 NA
ATOM      7  C   UNL     1       7.690  13.797  22.260  0.00  0.00    +0.000 A 
ATOM      8  C   UNL     1       8.715  13.078  22.880  0.00  0.00    +0.000 A 
ATOM      9  C   UNL     1       8.425  12.047  23.789  0.00  0.00    +0.000 A 
ATOM     10  C   UNL     1       7.106  11.716  24.082  0.00  0.00    +0.000 A 
ATOM     11  C   UNL     1       6.073  12.406  23.449  0.00  0.00    +0.000 A 
ATOM     12  C   UNL     1       6.379  13.430  22.551  0.00  0.00    +0.000 A 
ATOM     13  C   UNL     1       5.308  14.171  21.885  0.00  0.00    +0.000 A 
ATOM     14  O   UNL     1       4.147  13.807  22.070  0.00  0.00    +0.000 OA
ATOM     15  N   UNL     1       4.497  16.133  19.197  0.00  0.00    +0.000 NA
ATOM     16  C   UNL     1       3.221  16.648  19.084  0.00  0.00    +0.000 A 
ATOM     17  C   UNL     1       2.426  16.857  17.945  0.00  0.00    +0.000 A 
ATOM     18  C   UNL     1       1.138  17.388  18.104  0.00  0.00    +0.000 A 
ATOM     19  C   UNL     1       0.660  17.730  19.369  0.00  0.00    +0.000 A 
ATOM     20  C   UNL     1       1.430  17.519  20.516  0.00  0.00    +0.000 A 
ATOM     21  C   UNL     1       2.694  16.948  20.333  0.00  0.00    +0.000 A 
ENDROOT
BRANCH   5  22
ATOM     22  C   UNL     1       7.396  16.740  19.962  0.00  0.00    +0.000 C 
BRANCH  22  23
ATOM     23  C   UNL     1       7.633  16.401  18.489  0.00  0.00    +0.000 C 
BRANCH  23  24
ATOM     24  N   UNL     1       8.468  15.246  18.175  0.00  0.00    +0.000 N 
ATOM     25  C   UNL     1       7.881  14.059  17.828  0.00  0.00    +0.000 C 
ATOM     26  O   UNL     1       6.735  13.819  17.496  0.00  0.00    +0.000 OA
ATOM     27  C   UNL     1       8.947  13.076  17.831  0.00  0.00    +0.000 A 
ATOM     28  C   UNL     1       8.917  11.754  18.208  0.00  0.00    +0.000 A 
ATOM     29  C   UNL     1      10.143  11.096  18.308  0.00  0.00    +0.000 A 
ATOM     30  C   UNL     1      11.338  11.733  17.914  0.00  0.00    +0.000 A 
ATOM     31  C   UNL     1      11.346  13.097  17.602  0.00  0.00    +0.000 A 
ATOM     32  C   UNL     1      10.135  13.759  17.699  0.00  0.00    +0.000 A 
ATOM     33  C   UNL     1       9.831  15.152  18.061  0.00  0.00    +0.000 C 
ATOM     34  O   UNL     1      10.684  15.962  18.362  0.00  0.00    +0.000 OA
ENDBRANCH  23  24
ENDBRANCH  22  23
ENDBRANCH   5  22
TORSDOF 3
ENDMDL
