MODEL 1
REMARK VINA RESULT:      -9.1      0.000      0.000
REMARK  Name = 
REMARK  5 active torsions:
REMARK  status: ('A' for Active; 'I' for Inactive)
REMARK    1  A    between atoms: C_1  and  C_2
REMARK    2  A    between atoms: C_7  and  C_8
REMARK    3  A    between atoms: C_21  and  C_23
REMARK    4  A    between atoms: C_26  and  O_27
REMARK    5  A    between atoms: C_29  and  O_30
REMARK                            x       y       z     vdW  Elec       q    Type
REMARK                         _______ _______ _______ _____ _____    ______ ____
ROOT
ATOM      1  C   UNL     1      -2.631  13.413  20.308  0.00  0.00    +0.000 C 
ATOM      2  C   UNL     1      -2.000  12.032  20.068  0.00  0.00    +0.000 C 
ATOM      3  C   UNL     1      -1.257  12.218  18.737  0.00  0.00    +0.000 C 
ATOM      4  C   UNL     1      -0.843  10.898  18.167  0.00  0.00    +0.000 C 
ATOM      5  C   UNL     1      -0.061  10.130  19.180  0.00  0.00    +0.000 A 
ATOM      6  C   UNL     1       0.849   9.181  18.650  0.00  0.00    +0.000 A 
ATOM      7  C   UNL     1       1.643   8.368  19.457  0.00  0.00    +0.000 A 
ATOM      8  C   UNL     1       1.439   8.494  20.830  0.00  0.00    +0.000 A 
ATOM      9  C   UNL     1       0.534   9.431  21.363  0.00  0.00    +0.000 A 
ATOM     10  C   UNL     1      -0.223  10.309  20.571  0.00  0.00    +0.000 A 
ATOM     11  N   UNL     1      -1.117  11.368  21.125  0.00  0.00    +0.000 N 
ATOM     12  C   UNL     1      -1.174  11.539  22.555  0.00  0.00    +0.000 C 
ATOM     13  O   UNL     1      -0.551  10.858  23.377  0.00  0.00    +0.000 OA
ENDROOT
BRANCH   7  14
ATOM     14  C   UNL     1       2.636   7.438  18.883  0.00  0.00    +0.000 A 
ATOM     15  C   UNL     1       3.262   7.697  17.666  0.00  0.00    +0.000 A 
ATOM     16  C   UNL     1       4.152   6.722  17.252  0.00  0.00    +0.000 A 
ATOM     17  O   UNL     1       4.883   6.756  16.104  0.00  0.00    +0.000 OA
ATOM     18  C   UNL     1       5.625   5.620  16.077  0.00  0.00    +0.000 A 
ATOM     19  C   UNL     1       5.379   4.852  17.192  0.00  0.00    +0.000 A 
ATOM     20  C   UNL     1       4.418   5.561  17.962  0.00  0.00    +0.000 A 
ATOM     21  C   UNL     1       3.745   5.369  19.164  0.00  0.00    +0.000 A 
ATOM     22  N   UNL     1       2.865   6.303  19.606  0.00  0.00    +0.000 NA
ENDBRANCH   7  14
BRANCH  12  23
ATOM     23  C   UNL     1      -1.998  12.563  23.242  0.00  0.00    +0.000 A 
ATOM     24  C   UNL     1      -3.247  12.228  23.759  0.00  0.00    +0.000 A 
ATOM     25  C   UNL     1      -4.097  13.224  24.252  0.00  0.00    +0.000 A 
ATOM     26  C   UNL     1      -3.617  14.519  24.408  0.00  0.00    +0.000 A 
ATOM     27  C   UNL     1      -2.294  14.821  24.125  0.00  0.00    +0.000 A 
ATOM     28  C   UNL     1      -1.490  13.850  23.527  0.00  0.00    +0.000 A 
BRANCH  26  29
ATOM     29  O   UNL     1      -4.421  15.529  24.841  0.00  0.00    +0.000 OA
ATOM     30  H   UNL     1      -5.266  15.150  25.135  0.00  0.00    +0.000 HD
ENDBRANCH  26  29
BRANCH  28  31
ATOM     31  O   UNL     1      -0.201  14.208  23.228  0.00  0.00    +0.000 OA
ATOM     32  H   UNL     1      -0.040  15.103  23.576  0.00  0.00    +0.000 HD
ENDBRANCH  28  31
ENDBRANCH  12  23
TORSDOF 4
ENDMDL
MODEL 2
REMARK VINA RESULT:      -8.9      1.978      2.955
REMARK  Name = 
REMARK  5 active torsions:
REMARK  status: ('A' for Active; 'I' for Inactive)
REMARK    1  A    between atoms: C_1  and  C_2
REMARK    2  A    between atoms: C_7  and  C_8
REMARK    3  A    between atoms: C_21  and  C_23
REMARK    4  A    between atoms: C_26  and  O_27
REMARK    5  A    between atoms: C_29  and  O_30
REMARK                            x       y       z     vdW  Elec       q    Type
REMARK                         _______ _______ _______ _____ _____    ______ ____
ROOT
ATOM      1  C   UNL     1      -1.716  11.479  23.036  0.00  0.00    +0.000 C 
ATOM      2  C   UNL     1      -0.540  10.949  22.199  0.00  0.00    +0.000 C 
ATOM      3  C   UNL     1      -0.383   9.505  22.698  0.00  0.00    +0.000 C 
ATOM      4  C   UNL     1       0.915   8.919  22.237  0.00  0.00    +0.000 C 
ATOM      5  C   UNL     1       1.033   9.051  20.755  0.00  0.00    +0.000 A 
ATOM      6  C   UNL     1       1.864   8.089  20.126  0.00  0.00    +0.000 A 
ATOM      7  C   UNL     1       2.098   8.081  18.752  0.00  0.00    +0.000 A 
ATOM      8  C   UNL     1       1.517   9.123  18.032  0.00  0.00    +0.000 A 
ATOM      9  C   UNL     1       0.694  10.083  18.651  0.00  0.00    +0.000 A 
ATOM     10  C   UNL     1       0.388  10.069  20.021  0.00  0.00    +0.000 A 
ATOM     11  N   UNL     1      -0.555  11.026  20.672  0.00  0.00    +0.000 N 
ATOM     12  C   UNL     1      -1.233  11.992  19.845  0.00  0.00    +0.000 C 
ATOM     13  O   UNL     1      -1.082  12.111  18.623  0.00  0.00    +0.000 OA
ENDROOT
BRANCH   7  14
ATOM     14  C   UNL     1       2.909   7.027  18.110  0.00  0.00    +0.000 A 
ATOM     15  C   UNL     1       4.026   7.332  17.338  0.00  0.00    +0.000 A 
ATOM     16  C   UNL     1       4.669   6.238  16.787  0.00  0.00    +0.000 A 
ATOM     17  O   UNL     1       5.781   6.287  16.003  0.00  0.00    +0.000 OA
ATOM     18  C   UNL     1       6.089   5.005  15.678  0.00  0.00    +0.000 A 
ATOM     19  C   UNL     1       5.187   4.132  16.240  0.00  0.00    +0.000 A 
ATOM     20  C   UNL     1       4.257   4.926  16.962  0.00  0.00    +0.000 A 
ATOM     21  C   UNL     1       3.125   4.701  17.739  0.00  0.00    +0.000 A 
ATOM     22  N   UNL     1       2.467   5.749  18.298  0.00  0.00    +0.000 NA
ENDBRANCH   7  14
BRANCH  12  23
ATOM     23  C   UNL     1      -2.212  12.985  20.350  0.00  0.00    +0.000 A 
ATOM     24  C   UNL     1      -1.770  14.165  20.945  0.00  0.00    +0.000 A 
ATOM     25  C   UNL     1      -2.681  15.020  21.576  0.00  0.00    +0.000 A 
ATOM     26  C   UNL     1      -4.044  14.793  21.435  0.00  0.00    +0.000 A 
ATOM     27  C   UNL     1      -4.511  13.757  20.640  0.00  0.00    +0.000 A 
ATOM     28  C   UNL     1      -3.597  12.844  20.112  0.00  0.00    +0.000 A 
BRANCH  26  29
ATOM     29  O   UNL     1      -4.964  15.573  22.068  0.00  0.00    +0.000 OA
ATOM     30  H   UNL     1      -5.685  15.769  21.447  0.00  0.00    +0.000 HD
ENDBRANCH  26  29
BRANCH  28  31
ATOM     31  O   UNL     1      -4.108  11.814  19.367  0.00  0.00    +0.000 OA
ATOM     32  H   UNL     1      -4.959  12.098  18.988  0.00  0.00    +0.000 HD
ENDBRANCH  28  31
ENDBRANCH  12  23
TORSDOF 4
ENDMDL
MODEL 3
REMARK VINA RESULT:      -8.8      0.993      1.313
REMARK  Name = 
REMARK  5 active torsions:
REMARK  status: ('A' for Active; 'I' for Inactive)
REMARK    1  A    between atoms: C_1  and  C_2
REMARK    2  A    between atoms: C_7  and  C_8
REMARK    3  A    between atoms: C_21  and  C_23
REMARK    4  A    between atoms: C_26  and  O_27
REMARK    5  A    between atoms: C_29  and  O_30
REMARK                            x       y       z     vdW  Elec       q    Type
REMARK                         _______ _______ _______ _____ _____    ______ ____
ROOT
ATOM      1  C   UNL     1      -2.461  13.676  20.360  0.00  0.00    +0.000 C 
ATOM      2  C   UNL     1      -1.901  12.270  20.087  0.00  0.00    +0.000 C 
ATOM      3  C   UNL     1      -1.041  12.479  18.831  0.00  0.00    +0.000 C 
ATOM      4  C   UNL     1      -0.666  11.166  18.216  0.00  0.00    +0.000 C 
ATOM      5  C   UNL     1      -0.020  10.293  19.240  0.00  0.00    +0.000 A 
ATOM      6  C   UNL     1       0.868   9.315  18.726  0.00  0.00    +0.000 A 
ATOM      7  C   UNL     1       1.540   8.407  19.542  0.00  0.00    +0.000 A 
ATOM      8  C   UNL     1       1.233   8.470  20.900  0.00  0.00    +0.000 A 
ATOM      9  C   UNL     1       0.349   9.436  21.416  0.00  0.00    +0.000 A 
ATOM     10  C   UNL     1      -0.284  10.406  20.622  0.00  0.00    +0.000 A 
ATOM     11  N   UNL     1      -1.151  11.491  21.167  0.00  0.00    +0.000 N 
ATOM     12  C   UNL     1      -1.314  11.587  22.596  0.00  0.00    +0.000 C 
ATOM     13  O   UNL     1      -0.804  10.820  23.422  0.00  0.00    +0.000 OA
ENDROOT
BRANCH   7  14
ATOM     14  C   UNL     1       2.516   7.444  18.992  0.00  0.00    +0.000 A 
ATOM     15  C   UNL     1       2.788   6.235  19.626  0.00  0.00    +0.000 A 
ATOM     16  C   UNL     1       3.740   5.451  18.999  0.00  0.00    +0.000 A 
ATOM     17  O   UNL     1       4.165   4.231  19.428  0.00  0.00    +0.000 OA
ATOM     18  C   UNL     1       5.094   3.803  18.535  0.00  0.00    +0.000 A 
ATOM     19  C   UNL     1       5.275   4.735  17.539  0.00  0.00    +0.000 A 
ATOM     20  C   UNL     1       4.399   5.813  17.834  0.00  0.00    +0.000 A 
ATOM     21  C   UNL     1       4.081   7.042  17.266  0.00  0.00    +0.000 A 
ATOM     22  N   UNL     1       3.151   7.839  17.850  0.00  0.00    +0.000 NA
ENDBRANCH   7  14
BRANCH  12  23
ATOM     23  C   UNL     1      -2.124  12.625  23.277  0.00  0.00    +0.000 A 
ATOM     24  C   UNL     1      -3.384  12.312  23.784  0.00  0.00    +0.000 A 
ATOM     25  C   UNL     1      -4.219  13.324  24.271  0.00  0.00    +0.000 A 
ATOM     26  C   UNL     1      -3.718  14.609  24.432  0.00  0.00    +0.000 A 
ATOM     27  C   UNL     1      -2.387  14.888  24.160  0.00  0.00    +0.000 A 
ATOM     28  C   UNL     1      -1.596  13.903  23.568  0.00  0.00    +0.000 A 
BRANCH  26  29
ATOM     29  O   UNL     1      -4.507  15.633  24.859  0.00  0.00    +0.000 OA
ATOM     30  H   UNL     1      -4.469  15.671  25.829  0.00  0.00    +0.000 HD
ENDBRANCH  26  29
BRANCH  28  31
ATOM     31  O   UNL     1      -0.298  14.237  23.279  0.00  0.00    +0.000 OA
ATOM     32  H   UNL     1      -0.283  15.148  22.934  0.00  0.00    +0.000 HD
ENDBRANCH  28  31
ENDBRANCH  12  23
TORSDOF 4
ENDMDL
MODEL 4
REMARK VINA RESULT:      -8.8      1.966      2.877
REMARK  Name = 
REMARK  5 active torsions:
REMARK  status: ('A' for Active; 'I' for Inactive)
REMARK    1  A    between atoms: C_1  and  C_2
REMARK    2  A    between atoms: C_7  and  C_8
REMARK    3  A    between atoms: C_21  and  C_23
REMARK    4  A    between atoms: C_26  and  O_27
REMARK    5  A    between atoms: C_29  and  O_30
REMARK                            x       y       z     vdW  Elec       q    Type
REMARK                         _______ _______ _______ _____ _____    ______ ____
ROOT
ATOM      1  C   UNL     1      -1.420  11.157  22.759  0.00  0.00    +0.000 C 
ATOM      2  C   UNL     1      -0.236  10.625  21.934  0.00  0.00    +0.000 C 
ATOM      3  C   UNL     1      -0.110   9.170  22.409  0.00  0.00    +0.000 C 
ATOM      4  C   UNL     1       1.187   8.572  21.963  0.00  0.00    +0.000 C 
ATOM      5  C   UNL     1       1.337   8.729  20.487  0.00  0.00    +0.000 A 
ATOM      6  C   UNL     1       2.167   7.767  19.857  0.00  0.00    +0.000 A 
ATOM      7  C   UNL     1       2.428   7.780  18.488  0.00  0.00    +0.000 A 
ATOM      8  C   UNL     1       1.877   8.845  17.776  0.00  0.00    +0.000 A 
ATOM      9  C   UNL     1       1.056   9.805  18.396  0.00  0.00    +0.000 A 
ATOM     10  C   UNL     1       0.722   9.771  19.759  0.00  0.00    +0.000 A 
ATOM     11  N   UNL     1      -0.219  10.730  20.409  0.00  0.00    +0.000 N 
ATOM     12  C   UNL     1      -0.866  11.721  19.587  0.00  0.00    +0.000 C 
ATOM     13  O   UNL     1      -0.688  11.861  18.371  0.00  0.00    +0.000 OA
ENDROOT
BRANCH   7  14
ATOM     14  C   UNL     1       3.236   6.726  17.843  0.00  0.00    +0.000 A 
ATOM     15  C   UNL     1       4.388   7.026  17.122  0.00  0.00    +0.000 A 
ATOM     16  C   UNL     1       5.024   5.933  16.561  0.00  0.00    +0.000 A 
ATOM     17  O   UNL     1       6.165   5.978  15.820  0.00  0.00    +0.000 OA
ATOM     18  C   UNL     1       6.453   4.699  15.465  0.00  0.00    +0.000 A 
ATOM     19  C   UNL     1       5.509   3.832  15.965  0.00  0.00    +0.000 A 
ATOM     20  C   UNL     1       4.573   4.627  16.677  0.00  0.00    +0.000 A 
ATOM     21  C   UNL     1       3.406   4.409  17.404  0.00  0.00    +0.000 A 
ATOM     22  N   UNL     1       2.755   5.455  17.972  0.00  0.00    +0.000 NA
ENDBRANCH   7  14
BRANCH  12  23
ATOM     23  C   UNL     1      -1.839  12.720  20.092  0.00  0.00    +0.000 A 
ATOM     24  C   UNL     1      -3.199  12.418  20.129  0.00  0.00    +0.000 A 
ATOM     25  C   UNL     1      -4.134  13.411  20.440  0.00  0.00    +0.000 A 
ATOM     26  C   UNL     1      -3.694  14.645  20.905  0.00  0.00    +0.000 A 
ATOM     27  C   UNL     1      -2.344  14.884  21.107  0.00  0.00    +0.000 A 
ATOM     28  C   UNL     1      -1.416  13.930  20.686  0.00  0.00    +0.000 A 
BRANCH  26  29
ATOM     29  O   UNL     1      -4.566  15.655  21.176  0.00  0.00    +0.000 OA
ATOM     30  H   UNL     1      -4.202  16.194  21.897  0.00  0.00    +0.000 HD
ENDBRANCH  26  29
BRANCH  28  31
ATOM     31  O   UNL     1      -0.091  14.227  20.868  0.00  0.00    +0.000 OA
ATOM     32  H   UNL     1      -0.001  14.747  21.688  0.00  0.00    +0.000 HD
ENDBRANCH  28  31
ENDBRANCH  12  23
TORSDOF 4
ENDMDL
MODEL 5
REMARK VINA RESULT:      -8.6      2.077      3.164
REMARK  Name = 
REMARK  5 active torsions:
REMARK  status: ('A' for Active; 'I' for Inactive)
REMARK    1  A    between atoms: C_1  and  C_2
REMARK    2  A    between atoms: C_7  and  C_8
REMARK    3  A    between atoms: C_21  and  C_23
REMARK    4  A    between atoms: C_26  and  O_27
REMARK    5  A    between atoms: C_29  and  O_30
REMARK                            x       y       z     vdW  Elec       q    Type
REMARK                         _______ _______ _______ _____ _____    ______ ____
ROOT
ATOM      1  C   UNL     1      -1.970  11.859  23.139  0.00  0.00    +0.000 C 
ATOM      2  C   UNL     1      -0.802  11.293  22.314  0.00  0.00    +0.000 C 
ATOM      3  C   UNL     1      -0.631   9.876  22.882  0.00  0.00    +0.000 C 
ATOM      4  C   UNL     1       0.664   9.274  22.434  0.00  0.00    +0.000 C 
ATOM      5  C   UNL     1       0.762   9.332  20.946  0.00  0.00    +0.000 A 
ATOM      6  C   UNL     1       1.590   8.345  20.355  0.00  0.00    +0.000 A 
ATOM      7  C   UNL     1       1.806   8.269  18.980  0.00  0.00    +0.000 A 
ATOM      8  C   UNL     1       1.211   9.271  18.217  0.00  0.00    +0.000 A 
ATOM      9  C   UNL     1       0.391  10.257  18.798  0.00  0.00    +0.000 A 
ATOM     10  C   UNL     1       0.102  10.310  20.171  0.00  0.00    +0.000 A 
ATOM     11  N   UNL     1      -0.837  11.294  20.785  0.00  0.00    +0.000 N 
ATOM     12  C   UNL     1      -1.531  12.214  19.920  0.00  0.00    +0.000 C 
ATOM     13  O   UNL     1      -1.396  12.273  18.692  0.00  0.00    +0.000 OA
ENDROOT
BRANCH   7  14
ATOM     14  C   UNL     1       2.615   7.188  18.381  0.00  0.00    +0.000 A 
ATOM     15  C   UNL     1       2.333   5.846  18.620  0.00  0.00    +0.000 A 
ATOM     16  C   UNL     1       3.193   4.953  18.005  0.00  0.00    +0.000 A 
ATOM     17  O   UNL     1       3.114   3.596  18.088  0.00  0.00    +0.000 OA
ATOM     18  C   UNL     1       4.134   3.098  17.343  0.00  0.00    +0.000 A 
ATOM     19  C   UNL     1       4.871   4.117  16.784  0.00  0.00    +0.000 A 
ATOM     20  C   UNL     1       4.266   5.329  17.213  0.00  0.00    +0.000 A 
ATOM     21  C   UNL     1       4.490   6.690  17.030  0.00  0.00    +0.000 A 
ATOM     22  N   UNL     1       3.668   7.597  17.615  0.00  0.00    +0.000 NA
ENDBRANCH   7  14
BRANCH  12  23
ATOM     23  C   UNL     1      -2.508  13.226  20.388  0.00  0.00    +0.000 A 
ATOM     24  C   UNL     1      -2.068  14.461  20.861  0.00  0.00    +0.000 A 
ATOM     25  C   UNL     1      -2.968  15.348  21.462  0.00  0.00    +0.000 A 
ATOM     26  C   UNL     1      -4.331  15.083  21.407  0.00  0.00    +0.000 A 
ATOM     27  C   UNL     1      -4.809  13.975  20.724  0.00  0.00    +0.000 A 
ATOM     28  C   UNL     1      -3.900  13.039  20.230  0.00  0.00    +0.000 A 
BRANCH  26  29
ATOM     29  O   UNL     1      -5.239  15.894  22.016  0.00  0.00    +0.000 OA
ATOM     30  H   UNL     1      -5.153  16.789  21.648  0.00  0.00    +0.000 HD
ENDBRANCH  26  29
BRANCH  28  31
ATOM     31  O   UNL     1      -4.420  11.940  19.599  0.00  0.00    +0.000 OA
ATOM     32  H   UNL     1      -5.385  11.937  19.727  0.00  0.00    +0.000 HD
ENDBRANCH  28  31
ENDBRANCH  12  23
TORSDOF 4
ENDMDL
MODEL 6
REMARK VINA RESULT:      -8.5      2.641      9.885
REMARK  Name = 
REMARK  5 active torsions:
REMARK  status: ('A' for Active; 'I' for Inactive)
REMARK    1  A    between atoms: C_1  and  C_2
REMARK    2  A    between atoms: C_7  and  C_8
REMARK    3  A    between atoms: C_21  and  C_23
REMARK    4  A    between atoms: C_26  and  O_27
REMARK    5  A    between atoms: C_29  and  O_30
REMARK                            x       y       z     vdW  Elec       q    Type
REMARK                         _______ _______ _______ _____ _____    ______ ____
ROOT
ATOM      1  C   UNL     1       3.118   5.921  17.327  0.00  0.00    +0.000 C 
ATOM      2  C   UNL     1       2.869   7.024  18.369  0.00  0.00    +0.000 C 
ATOM      3  C   UNL     1       2.138   8.105  17.559  0.00  0.00    +0.000 C 
ATOM      4  C   UNL     1       2.092   9.397  18.313  0.00  0.00    +0.000 C 
ATOM      5  C   UNL     1       1.508   9.174  19.668  0.00  0.00    +0.000 A 
ATOM      6  C   UNL     1       0.887  10.306  20.253  0.00  0.00    +0.000 A 
ATOM      7  C   UNL     1       0.308  10.276  21.520  0.00  0.00    +0.000 A 
ATOM      8  C   UNL     1       0.438   9.075  22.216  0.00  0.00    +0.000 A 
ATOM      9  C   UNL     1       1.057   7.949  21.643  0.00  0.00    +0.000 A 
ATOM     10  C   UNL     1       1.583   7.936  20.341  0.00  0.00    +0.000 A 
ATOM     11  N   UNL     1       2.160   6.724  19.690  0.00  0.00    +0.000 N 
ATOM     12  C   UNL     1       2.134   5.477  20.412  0.00  0.00    +0.000 C 
ATOM     13  O   UNL     1       1.686   5.329  21.555  0.00  0.00    +0.000 OA
ENDROOT
BRANCH   7  14
ATOM     14  C   UNL     1      -0.397  11.446  22.079  0.00  0.00    +0.000 A 
ATOM     15  C   UNL     1      -1.602  11.316  22.765  0.00  0.00    +0.000 A 
ATOM     16  C   UNL     1      -2.149  12.506  23.211  0.00  0.00    +0.000 A 
ATOM     17  O   UNL     1      -3.313  12.628  23.906  0.00  0.00    +0.000 OA
ATOM     18  C   UNL     1      -3.487  13.953  24.150  0.00  0.00    +0.000 A 
ATOM     19  C   UNL     1      -2.451  14.685  23.617  0.00  0.00    +0.000 A 
ATOM     20  C   UNL     1      -1.576  13.751  23.001  0.00  0.00    +0.000 A 
ATOM     21  C   UNL     1      -0.378  13.801  22.296  0.00  0.00    +0.000 A 
ATOM     22  N   UNL     1       0.193  12.655  21.845  0.00  0.00    +0.000 NA
ENDBRANCH   7  14
BRANCH  12  23
ATOM     23  C   UNL     1       2.649   4.192  19.881  0.00  0.00    +0.000 A 
ATOM     24  C   UNL     1       4.021   3.965  19.800  0.00  0.00    +0.000 A 
ATOM     25  C   UNL     1       4.511   2.831  19.143  0.00  0.00    +0.000 A 
ATOM     26  C   UNL     1       3.628   1.834  18.747  0.00  0.00    +0.000 A 
ATOM     27  C   UNL     1       2.276   1.930  19.038  0.00  0.00    +0.000 A 
ATOM     28  C   UNL     1       1.784   3.114  19.589  0.00  0.00    +0.000 A 
BRANCH  26  29
ATOM     29  O   UNL     1       4.055   0.735  18.065  0.00  0.00    +0.000 OA
ATOM     30  H   UNL     1       5.013   0.641  18.194  0.00  0.00    +0.000 HD
ENDBRANCH  26  29
BRANCH  28  31
ATOM     31  O   UNL     1       0.435   3.179  19.821  0.00  0.00    +0.000 OA
ATOM     32  H   UNL     1       0.201   2.495  20.475  0.00  0.00    +0.000 HD
ENDBRANCH  28  31
ENDBRANCH  12  23
TORSDOF 4
ENDMDL
MODEL 7
REMARK VINA RESULT:      -8.4      1.965      2.923
REMARK  Name = 
REMARK  5 active torsions:
REMARK  status: ('A' for Active; 'I' for Inactive)
REMARK    1  A    between atoms: C_1  and  C_2
REMARK    2  A    between atoms: C_7  and  C_8
REMARK    3  A    between atoms: C_21  and  C_23
REMARK    4  A    between atoms: C_26  and  O_27
REMARK    5  A    between atoms: C_29  and  O_30
REMARK                            x       y       z     vdW  Elec       q    Type
REMARK                         _______ _______ _______ _____ _____    ______ ____
ROOT
ATOM      1  C   UNL     1      -1.932  11.843  23.100  0.00  0.00    +0.000 C 
ATOM      2  C   UNL     1      -0.768  11.277  22.269  0.00  0.00    +0.000 C 
ATOM      3  C   UNL     1      -0.582   9.867  22.851  0.00  0.00    +0.000 C 
ATOM      4  C   UNL     1       0.712   9.269  22.397  0.00  0.00    +0.000 C 
ATOM      5  C   UNL     1       0.796   9.312  20.907  0.00  0.00    +0.000 A 
ATOM      6  C   UNL     1       1.626   8.324  20.319  0.00  0.00    +0.000 A 
ATOM      7  C   UNL     1       1.829   8.234  18.943  0.00  0.00    +0.000 A 
ATOM      8  C   UNL     1       1.220   9.225  18.175  0.00  0.00    +0.000 A 
ATOM      9  C   UNL     1       0.399  10.211  18.754  0.00  0.00    +0.000 A 
ATOM     10  C   UNL     1       0.123  10.277  20.128  0.00  0.00    +0.000 A 
ATOM     11  N   UNL     1      -0.817  11.261  20.742  0.00  0.00    +0.000 N 
ATOM     12  C   UNL     1      -1.526  12.167  19.873  0.00  0.00    +0.000 C 
ATOM     13  O   UNL     1      -1.402  12.214  18.644  0.00  0.00    +0.000 OA
ENDROOT
BRANCH   7  14
ATOM     14  C   UNL     1       2.639   7.153  18.348  0.00  0.00    +0.000 A 
ATOM     15  C   UNL     1       2.362   5.811  18.595  0.00  0.00    +0.000 A 
ATOM     16  C   UNL     1       3.222   4.917  17.982  0.00  0.00    +0.000 A 
ATOM     17  O   UNL     1       3.148   3.561  18.072  0.00  0.00    +0.000 OA
ATOM     18  C   UNL     1       4.167   3.061  17.328  0.00  0.00    +0.000 A 
ATOM     19  C   UNL     1       4.900   4.080  16.762  0.00  0.00    +0.000 A 
ATOM     20  C   UNL     1       4.293   5.292  17.185  0.00  0.00    +0.000 A 
ATOM     21  C   UNL     1       4.513   6.653  16.994  0.00  0.00    +0.000 A 
ATOM     22  N   UNL     1       3.689   7.561  17.577  0.00  0.00    +0.000 NA
ENDBRANCH   7  14
BRANCH  12  23
ATOM     23  C   UNL     1      -2.505  13.178  20.340  0.00  0.00    +0.000 A 
ATOM     24  C   UNL     1      -3.852  12.844  20.468  0.00  0.00    +0.000 A 
ATOM     25  C   UNL     1      -4.801  13.835  20.740  0.00  0.00    +0.000 A 
ATOM     26  C   UNL     1      -4.379  15.114  21.080  0.00  0.00    +0.000 A 
ATOM     27  C   UNL     1      -3.028  15.405  21.196  0.00  0.00    +0.000 A 
ATOM     28  C   UNL     1      -2.092  14.444  20.811  0.00  0.00    +0.000 A 
BRANCH  26  29
ATOM     29  O   UNL     1      -5.267  16.120  21.308  0.00  0.00    +0.000 OA
ATOM     30  H   UNL     1      -6.072  15.948  20.793  0.00  0.00    +0.000 HD
ENDBRANCH  26  29
BRANCH  28  31
ATOM     31  O   UNL     1      -0.770  14.791  20.905  0.00  0.00    +0.000 OA
ATOM     32  H   UNL     1      -0.518  14.799  21.846  0.00  0.00    +0.000 HD
ENDBRANCH  28  31
ENDBRANCH  12  23
TORSDOF 4
ENDMDL
MODEL 8
REMARK VINA RESULT:      -8.4      2.247      9.772
REMARK  Name = 
REMARK  5 active torsions:
REMARK  status: ('A' for Active; 'I' for Inactive)
REMARK    1  A    between atoms: C_1  and  C_2
REMARK    2  A    between atoms: C_7  and  C_8
REMARK    3  A    between atoms: C_21  and  C_23
REMARK    4  A    between atoms: C_26  and  O_27
REMARK    5  A    between atoms: C_29  and  O_30
REMARK                            x       y       z     vdW  Elec       q    Type
REMARK                         _______ _______ _______ _____ _____    ______ ____
ROOT
ATOM      1  C   UNL     1       3.022   6.865  17.101  0.00  0.00    +0.000 C 
ATOM      2  C   UNL     1       2.730   7.847  18.247  0.00  0.00    +0.000 C 
ATOM      3  C   UNL     1       1.974   8.985  17.543  0.00  0.00    +0.000 C 
ATOM      4  C   UNL     1       1.882  10.190  18.425  0.00  0.00    +0.000 C 
ATOM      5  C   UNL     1       1.292   9.812  19.742  0.00  0.00    +0.000 A 
ATOM      6  C   UNL     1       0.631  10.859  20.433  0.00  0.00    +0.000 A 
ATOM      7  C   UNL     1       0.041  10.681  21.683  0.00  0.00    +0.000 A 
ATOM      8  C   UNL     1       0.199   9.419  22.253  0.00  0.00    +0.000 A 
ATOM      9  C   UNL     1       0.858   8.377  21.575  0.00  0.00    +0.000 A 
ATOM     10  C   UNL     1       1.397   8.513  20.286  0.00  0.00    +0.000 A 
ATOM     11  N   UNL     1       2.017   7.392  19.520  0.00  0.00    +0.000 N 
ATOM     12  C   UNL     1       2.021   6.077  20.111  0.00  0.00    +0.000 C 
ATOM     13  O   UNL     1       1.566   5.799  21.226  0.00  0.00    +0.000 OA
ENDROOT
BRANCH   7  14
ATOM     14  C   UNL     1      -0.705  11.767  22.350  0.00  0.00    +0.000 A 
ATOM     15  C   UNL     1      -1.924  11.536  22.982  0.00  0.00    +0.000 A 
ATOM     16  C   UNL     1      -2.509  12.658  23.543  0.00  0.00    +0.000 A 
ATOM     17  O   UNL     1      -3.693  12.678  24.214  0.00  0.00    +0.000 OA
ATOM     18  C   UNL     1      -3.904  13.962  24.601  0.00  0.00    +0.000 A 
ATOM     19  C   UNL     1      -2.870  14.770  24.184  0.00  0.00    +0.000 A 
ATOM     20  C   UNL     1      -1.959  13.929  23.491  0.00  0.00    +0.000 A 
ATOM     21  C   UNL     1      -0.743  14.082  22.832  0.00  0.00    +0.000 A 
ATOM     22  N   UNL     1      -0.136  13.005  22.270  0.00  0.00    +0.000 NA
ENDBRANCH   7  14
BRANCH  12  23
ATOM     23  C   UNL     1       2.579   4.869  19.457  0.00  0.00    +0.000 A 
ATOM     24  C   UNL     1       1.748   4.014  18.736  0.00  0.00    +0.000 A 
ATOM     25  C   UNL     1       2.235   2.789  18.265  0.00  0.00    +0.000 A 
ATOM     26  C   UNL     1       3.595   2.516  18.343  0.00  0.00    +0.000 A 
ATOM     27  C   UNL     1       4.478   3.462  18.839  0.00  0.00    +0.000 A 
ATOM     28  C   UNL     1       3.971   4.630  19.411  0.00  0.00    +0.000 A 
BRANCH  26  29
ATOM     29  O   UNL     1       4.105   1.321  17.939  0.00  0.00    +0.000 OA
ATOM     30  H   UNL     1       4.873   1.487  17.368  0.00  0.00    +0.000 HD
ENDBRANCH  26  29
BRANCH  28  31
ATOM     31  O   UNL     1       4.880   5.517  19.925  0.00  0.00    +0.000 OA
ATOM     32  H   UNL     1       4.456   6.008  20.652  0.00  0.00    +0.000 HD
ENDBRANCH  28  31
ENDBRANCH  12  23
TORSDOF 4
ENDMDL
MODEL 9
REMARK VINA RESULT:      -8.4      1.428      1.944
REMARK  Name = 
REMARK  5 active torsions:
REMARK  status: ('A' for Active; 'I' for Inactive)
REMARK    1  A    between atoms: C_1  and  C_2
REMARK    2  A    between atoms: C_7  and  C_8
REMARK    3  A    between atoms: C_21  and  C_23
REMARK    4  A    between atoms: C_26  and  O_27
REMARK    5  A    between atoms: C_29  and  O_30
REMARK                            x       y       z     vdW  Elec       q    Type
REMARK                         _______ _______ _______ _____ _____    ______ ____
ROOT
ATOM      1  C   UNL     1      -1.740  14.234  20.423  0.00  0.00    +0.000 C 
ATOM      2  C   UNL     1      -1.369  12.772  20.123  0.00  0.00    +0.000 C 
ATOM      3  C   UNL     1      -0.331  12.903  18.998  0.00  0.00    +0.000 C 
ATOM      4  C   UNL     1      -0.083  11.580  18.344  0.00  0.00    +0.000 C 
ATOM      5  C   UNL     1       0.284  10.565  19.375  0.00  0.00    +0.000 A 
ATOM      6  C   UNL     1       1.073   9.485  18.906  0.00  0.00    +0.000 A 
ATOM      7  C   UNL     1       1.488   8.442  19.732  0.00  0.00    +0.000 A 
ATOM      8  C   UNL     1       1.019   8.486  21.044  0.00  0.00    +0.000 A 
ATOM      9  C   UNL     1       0.232   9.554  21.515  0.00  0.00    +0.000 A 
ATOM     10  C   UNL     1      -0.137  10.650  20.719  0.00  0.00    +0.000 A 
ATOM     11  N   UNL     1      -0.894  11.830  21.230  0.00  0.00    +0.000 N 
ATOM     12  C   UNL     1      -1.225  11.880  22.632  0.00  0.00    +0.000 C 
ATOM     13  O   UNL     1      -0.949  11.002  23.457  0.00  0.00    +0.000 OA
ENDROOT
BRANCH   7  14
ATOM     14  C   UNL     1       2.369   7.365  19.238  0.00  0.00    +0.000 A 
ATOM     15  C   UNL     1       2.494   6.154  19.915  0.00  0.00    +0.000 A 
ATOM     16  C   UNL     1       3.373   5.254  19.338  0.00  0.00    +0.000 A 
ATOM     17  O   UNL     1       3.655   4.011  19.814  0.00  0.00    +0.000 OA
ATOM     18  C   UNL     1       4.556   3.459  18.962  0.00  0.00    +0.000 A 
ATOM     19  C   UNL     1       4.861   4.334  17.944  0.00  0.00    +0.000 A 
ATOM     20  C   UNL     1       4.097   5.507  18.183  0.00  0.00    +0.000 A 
ATOM     21  C   UNL     1       3.927   6.745  17.571  0.00  0.00    +0.000 A 
ATOM     22  N   UNL     1       3.072   7.654  18.104  0.00  0.00    +0.000 NA
ENDBRANCH   7  14
BRANCH  12  23
ATOM     23  C   UNL     1      -1.950  12.999  23.280  0.00  0.00    +0.000 A 
ATOM     24  C   UNL     1      -1.245  14.073  23.821  0.00  0.00    +0.000 A 
ATOM     25  C   UNL     1      -1.910  15.041  24.582  0.00  0.00    +0.000 A 
ATOM     26  C   UNL     1      -3.298  15.041  24.630  0.00  0.00    +0.000 A 
ATOM     27  C   UNL     1      -4.031  14.120  23.896  0.00  0.00    +0.000 A 
ATOM     28  C   UNL     1      -3.359  13.091  23.236  0.00  0.00    +0.000 A 
BRANCH  26  29
ATOM     29  O   UNL     1      -3.984  15.936  25.393  0.00  0.00    +0.000 OA
ATOM     30  H   UNL     1      -4.885  15.601  25.531  0.00  0.00    +0.000 HD
ENDBRANCH  26  29
BRANCH  28  31
ATOM     31  O   UNL     1      -4.127  12.182  22.557  0.00  0.00    +0.000 OA
ATOM     32  H   UNL     1      -5.049  12.268  22.860  0.00  0.00    +0.000 HD
ENDBRANCH  28  31
ENDBRANCH  12  23
TORSDOF 4
ENDMDL
