MODEL 1
REMARK VINA RESULT:      -8.2      0.000      0.000
REMARK  Name = 
REMARK  6 active torsions:
REMARK  status: ('A' for Active; 'I' for Inactive)
REMARK    1  A    between atoms: C_4  and  C_5
REMARK    2  A    between atoms: C_5  and  C_6
REMARK    3  A    between atoms: C_6  and  N_7
REMARK    4  A    between atoms: N_7  and  C_8
REMARK    5  A    between atoms: N_16  and  C_17
REMARK    6  A    between atoms: C_17  and  C_18
REMARK                            x       y       z     vdW  Elec       q    Type
REMARK                         _______ _______ _______ _____ _____    ______ ____
ROOT
ATOM      1  C   UNL     1       2.015   5.868  20.118  0.00  0.00    +0.000 A 
ATOM      2  N   UNL     1       1.343   5.016  20.914  0.00  0.00    +0.000 NA
ATOM      3  C   UNL     1       1.090   3.793  20.437  0.00  0.00    +0.000 A 
ATOM      4  N   UNL     1       1.448   3.328  19.240  0.00  0.00    +0.000 NA
ATOM      5  C   UNL     1       2.100   4.197  18.442  0.00  0.00    +0.000 A 
ATOM      6  C   UNL     1       2.386   5.507  18.823  0.00  0.00    +0.000 A 
ATOM      7  C   UNL     1       3.155   6.392  17.882  0.00  0.00    +0.000 C 
ATOM      8  C   UNL     1       4.608   5.910  17.715  0.00  0.00    +0.000 C 
ATOM      9  N   UNL     1       4.796   4.850  16.699  0.00  0.00    +0.000 NA
ATOM     10  C   UNL     1       4.119   3.583  17.066  0.00  0.00    +0.000 C 
ATOM     11  C   UNL     1       2.585   3.652  17.125  0.00  0.00    +0.000 C 
ENDROOT
BRANCH   1  12
ATOM     12  N   UNL     1       2.275   7.165  20.615  0.00  0.00    +0.000 N 
ATOM     13  H   UNL     1       2.907   7.107  21.408  0.00  0.00    +0.000 HD
BRANCH  12  14
ATOM     14  C   UNL     1       1.051   7.877  21.018  0.00  0.00    +0.000 C 
BRANCH  14  15
ATOM     15  C   UNL     1       1.385   9.001  22.009  0.00  0.00    +0.000 C 
BRANCH  15  19
ATOM     16  C   UNL     1      -1.623  12.105  22.163  0.00  0.00    +0.000 A 
ATOM     17  C   UNL     1      -1.544  11.152  23.175  0.00  0.00    +0.000 A 
ATOM     18  C   UNL     1      -0.571  10.150  23.121  0.00  0.00    +0.000 A 
ATOM     19  C   UNL     1       0.334  10.088  22.052  0.00  0.00    +0.000 A 
ATOM     20  C   UNL     1       0.253  11.063  21.046  0.00  0.00    +0.000 A 
ATOM     21  C   UNL     1      -0.721  12.061  21.100  0.00  0.00    +0.000 A 
ENDBRANCH  15  19
ENDBRANCH  14  15
ENDBRANCH  12  14
ENDBRANCH   1  12
BRANCH   9  22
ATOM     22  C   UNL     1       6.246   4.554  16.526  0.00  0.00    +0.000 C 
BRANCH  22  23
ATOM     23  C   UNL     1       6.652   4.529  15.082  0.00  0.00    +0.000 A 
ATOM     24  C   UNL     1       6.152   3.776  14.038  0.00  0.00    +0.000 A 
ATOM     25  N   UNL     1       6.844   4.179  12.933  0.00  0.00    +0.000 N 
ATOM     26  C   UNL     1       7.735   5.135  13.330  0.00  0.00    +0.000 A 
ATOM     27  N   UNL     1       7.645   5.371  14.618  0.00  0.00    +0.000 NA
ATOM     28  H   UNL     1       6.721   3.844  11.988  0.00  0.00    +0.000 HD
ENDBRANCH  22  23
ENDBRANCH   9  22
TORSDOF 6
ENDMDL
MODEL 2
REMARK VINA RESULT:      -8.1      0.521      1.045
REMARK  Name = 
REMARK  6 active torsions:
REMARK  status: ('A' for Active; 'I' for Inactive)
REMARK    1  A    between atoms: C_4  and  C_5
REMARK    2  A    between atoms: C_5  and  C_6
REMARK    3  A    between atoms: C_6  and  N_7
REMARK    4  A    between atoms: N_7  and  C_8
REMARK    5  A    between atoms: N_16  and  C_17
REMARK    6  A    between atoms: C_17  and  C_18
REMARK                            x       y       z     vdW  Elec       q    Type
REMARK                         _______ _______ _______ _____ _____    ______ ____
ROOT
ATOM      1  C   UNL     1       2.184   6.060  20.014  0.00  0.00    +0.000 A 
ATOM      2  N   UNL     1       1.540   5.267  20.890  0.00  0.00    +0.000 NA
ATOM      3  C   UNL     1       1.267   4.016  20.508  0.00  0.00    +0.000 A 
ATOM      4  N   UNL     1       1.581   3.468  19.334  0.00  0.00    +0.000 NA
ATOM      5  C   UNL     1       2.204   4.278  18.455  0.00  0.00    +0.000 A 
ATOM      6  C   UNL     1       2.506   5.609  18.735  0.00  0.00    +0.000 A 
ATOM      7  C   UNL     1       3.242   6.424  17.708  0.00  0.00    +0.000 C 
ATOM      8  C   UNL     1       4.687   5.926  17.521  0.00  0.00    +0.000 C 
ATOM      9  N   UNL     1       4.836   4.797  16.574  0.00  0.00    +0.000 NA
ATOM     10  C   UNL     1       4.170   3.561  17.052  0.00  0.00    +0.000 C 
ATOM     11  C   UNL     1       2.640   3.641  17.161  0.00  0.00    +0.000 C 
ENDROOT
BRANCH   1  12
ATOM     12  N   UNL     1       2.465   7.386  20.412  0.00  0.00    +0.000 N 
ATOM     13  H   UNL     1       3.261   7.393  21.043  0.00  0.00    +0.000 HD
BRANCH  12  14
ATOM     14  C   UNL     1       1.319   8.040  21.064  0.00  0.00    +0.000 C 
BRANCH  14  15
ATOM     15  C   UNL     1       0.904   9.298  20.288  0.00  0.00    +0.000 C 
BRANCH  15  19
ATOM     16  C   UNL     1      -1.785  11.877  22.484  0.00  0.00    +0.000 A 
ATOM     17  C   UNL     1      -1.537  12.107  21.134  0.00  0.00    +0.000 A 
ATOM     18  C   UNL     1      -0.667  11.272  20.428  0.00  0.00    +0.000 A 
ATOM     19  C   UNL     1      -0.032  10.196  21.066  0.00  0.00    +0.000 A 
ATOM     20  C   UNL     1      -0.301   9.967  22.423  0.00  0.00    +0.000 A 
ATOM     21  C   UNL     1      -1.167  10.804  23.128  0.00  0.00    +0.000 A 
ENDBRANCH  15  19
ENDBRANCH  14  15
ENDBRANCH  12  14
ENDBRANCH   1  12
BRANCH   9  22
ATOM     22  C   UNL     1       6.278   4.484  16.368  0.00  0.00    +0.000 C 
BRANCH  22  23
ATOM     23  C   UNL     1       6.663   4.506  14.919  0.00  0.00    +0.000 A 
ATOM     24  C   UNL     1       6.078   3.872  13.841  0.00  0.00    +0.000 A 
ATOM     25  N   UNL     1       6.795   4.270  12.750  0.00  0.00    +0.000 N 
ATOM     26  C   UNL     1       7.782   5.106  13.188  0.00  0.00    +0.000 A 
ATOM     27  N   UNL     1       7.731   5.271  14.489  0.00  0.00    +0.000 NA
ATOM     28  H   UNL     1       6.627   4.007  11.789  0.00  0.00    +0.000 HD
ENDBRANCH  22  23
ENDBRANCH   9  22
TORSDOF 6
ENDMDL
MODEL 3
REMARK VINA RESULT:      -8.1      1.563      2.479
REMARK  Name = 
REMARK  6 active torsions:
REMARK  status: ('A' for Active; 'I' for Inactive)
REMARK    1  A    between atoms: C_4  and  C_5
REMARK    2  A    between atoms: C_5  and  C_6
REMARK    3  A    between atoms: C_6  and  N_7
REMARK    4  A    between atoms: N_7  and  C_8
REMARK    5  A    between atoms: N_16  and  C_17
REMARK    6  A    between atoms: C_17  and  C_18
REMARK                            x       y       z     vdW  Elec       q    Type
REMARK                         _______ _______ _______ _____ _____    ______ ____
ROOT
ATOM      1  C   UNL     1       2.085   5.125  20.365  0.00  0.00    +0.000 A 
ATOM      2  N   UNL     1       1.619   4.097  21.098  0.00  0.00    +0.000 NA
ATOM      3  C   UNL     1       1.518   2.906  20.498  0.00  0.00    +0.000 A 
ATOM      4  N   UNL     1       1.844   2.634  19.234  0.00  0.00    +0.000 NA
ATOM      5  C   UNL     1       2.287   3.677  18.503  0.00  0.00    +0.000 A 
ATOM      6  C   UNL     1       2.398   4.968  19.017  0.00  0.00    +0.000 A 
ATOM      7  C   UNL     1       2.943   6.060  18.138  0.00  0.00    +0.000 C 
ATOM      8  C   UNL     1       4.434   5.840  17.822  0.00  0.00    +0.000 C 
ATOM      9  N   UNL     1       4.699   4.937  16.679  0.00  0.00    +0.000 NA
ATOM     10  C   UNL     1       4.256   3.546  16.937  0.00  0.00    +0.000 C 
ATOM     11  C   UNL     1       2.740   3.359  17.103  0.00  0.00    +0.000 C 
ENDROOT
BRANCH   1  12
ATOM     12  N   UNL     1       2.183   6.387  20.994  0.00  0.00    +0.000 N 
ATOM     13  H   UNL     1       2.445   6.265  21.968  0.00  0.00    +0.000 HD
BRANCH  12  14
ATOM     14  C   UNL     1       0.932   7.160  20.919  0.00  0.00    +0.000 C 
BRANCH  14  15
ATOM     15  C   UNL     1       1.224   8.620  20.548  0.00  0.00    +0.000 C 
BRANCH  15  19
ATOM     16  C   UNL     1      -1.332  11.456  22.580  0.00  0.00    +0.000 A 
ATOM     17  C   UNL     1      -0.953  11.673  21.257  0.00  0.00    +0.000 A 
ATOM     18  C   UNL     1      -0.126  10.755  20.605  0.00  0.00    +0.000 A 
ATOM     19  C   UNL     1       0.334   9.608  21.268  0.00  0.00    +0.000 A 
ATOM     20  C   UNL     1      -0.067   9.394  22.596  0.00  0.00    +0.000 A 
ATOM     21  C   UNL     1      -0.889  10.314  23.248  0.00  0.00    +0.000 A 
ENDBRANCH  15  19
ENDBRANCH  14  15
ENDBRANCH  12  14
ENDBRANCH   1  12
BRANCH   9  22
ATOM     22  C   UNL     1       6.157   4.900  16.379  0.00  0.00    +0.000 C 
BRANCH  22  23
ATOM     23  C   UNL     1       6.977   5.526  17.467  0.00  0.00    +0.000 A 
ATOM     24  C   UNL     1       7.488   6.805  17.561  0.00  0.00    +0.000 A 
ATOM     25  N   UNL     1       8.112   6.860  18.775  0.00  0.00    +0.000 N 
ATOM     26  C   UNL     1       7.975   5.637  19.365  0.00  0.00    +0.000 A 
ATOM     27  N   UNL     1       7.297   4.809  18.605  0.00  0.00    +0.000 NA
ATOM     28  H   UNL     1       8.582   7.660  19.175  0.00  0.00    +0.000 HD
ENDBRANCH  22  23
ENDBRANCH   9  22
TORSDOF 6
ENDMDL
MODEL 4
REMARK VINA RESULT:      -8.1      1.569      2.377
REMARK  Name = 
REMARK  6 active torsions:
REMARK  status: ('A' for Active; 'I' for Inactive)
REMARK    1  A    between atoms: C_4  and  C_5
REMARK    2  A    between atoms: C_5  and  C_6
REMARK    3  A    between atoms: C_6  and  N_7
REMARK    4  A    between atoms: N_7  and  C_8
REMARK    5  A    between atoms: N_16  and  C_17
REMARK    6  A    between atoms: C_17  and  C_18
REMARK                            x       y       z     vdW  Elec       q    Type
REMARK                         _______ _______ _______ _____ _____    ______ ____
ROOT
ATOM      1  C   UNL     1       2.090   6.048  20.172  0.00  0.00    +0.000 A 
ATOM      2  N   UNL     1       1.565   5.139  21.014  0.00  0.00    +0.000 NA
ATOM      3  C   UNL     1       1.472   3.877  20.582  0.00  0.00    +0.000 A 
ATOM      4  N   UNL     1       1.860   3.425  19.390  0.00  0.00    +0.000 NA
ATOM      5  C   UNL     1       2.363   4.349  18.546  0.00  0.00    +0.000 A 
ATOM      6  C   UNL     1       2.473   5.698  18.879  0.00  0.00    +0.000 A 
ATOM      7  C   UNL     1       3.086   6.648  17.888  0.00  0.00    +0.000 C 
ATOM      8  C   UNL     1       4.587   6.367  17.691  0.00  0.00    +0.000 C 
ATOM      9  N   UNL     1       4.895   5.309  16.702  0.00  0.00    +0.000 NA
ATOM     10  C   UNL     1       4.411   3.974  17.128  0.00  0.00    +0.000 C 
ATOM     11  C   UNL     1       2.885   3.832  17.231  0.00  0.00    +0.000 C 
ENDROOT
BRANCH   1  12
ATOM     12  N   UNL     1       2.179   7.384  20.622  0.00  0.00    +0.000 N 
ATOM     13  H   UNL     1       2.816   7.438  21.413  0.00  0.00    +0.000 HD
BRANCH  12  14
ATOM     14  C   UNL     1       0.874   7.944  21.009  0.00  0.00    +0.000 C 
BRANCH  14  15
ATOM     15  C   UNL     1       1.047   9.008  22.102  0.00  0.00    +0.000 C 
BRANCH  15  19
ATOM     16  C   UNL     1      -1.894  12.168  21.854  0.00  0.00    +0.000 A 
ATOM     17  C   UNL     1      -1.131  11.829  20.740  0.00  0.00    +0.000 A 
ATOM     18  C   UNL     1      -0.182  10.808  20.824  0.00  0.00    +0.000 A 
ATOM     19  C   UNL     1       0.019  10.114  22.026  0.00  0.00    +0.000 A 
ATOM     20  C   UNL     1      -0.766  10.456  23.138  0.00  0.00    +0.000 A 
ATOM     21  C   UNL     1      -1.712  11.479  23.053  0.00  0.00    +0.000 A 
ENDBRANCH  15  19
ENDBRANCH  14  15
ENDBRANCH  12  14
ENDBRANCH   1  12
BRANCH   9  22
ATOM     22  C   UNL     1       6.367   5.212  16.493  0.00  0.00    +0.000 C 
BRANCH  22  23
ATOM     23  C   UNL     1       7.126   6.195  17.333  0.00  0.00    +0.000 A 
ATOM     24  C   UNL     1       7.744   6.019  18.555  0.00  0.00    +0.000 A 
ATOM     25  N   UNL     1       8.326   7.220  18.846  0.00  0.00    +0.000 N 
ATOM     26  C   UNL     1       8.040   8.075  17.821  0.00  0.00    +0.000 A 
ATOM     27  N   UNL     1       7.320   7.491  16.893  0.00  0.00    +0.000 NA
ATOM     28  H   UNL     1       8.877   7.440  19.663  0.00  0.00    +0.000 HD
ENDBRANCH  22  23
ENDBRANCH   9  22
TORSDOF 6
ENDMDL
MODEL 5
REMARK VINA RESULT:      -8.0      1.445      2.238
REMARK  Name = 
REMARK  6 active torsions:
REMARK  status: ('A' for Active; 'I' for Inactive)
REMARK    1  A    between atoms: C_4  and  C_5
REMARK    2  A    between atoms: C_5  and  C_6
REMARK    3  A    between atoms: C_6  and  N_7
REMARK    4  A    between atoms: N_7  and  C_8
REMARK    5  A    between atoms: N_16  and  C_17
REMARK    6  A    between atoms: C_17  and  C_18
REMARK                            x       y       z     vdW  Elec       q    Type
REMARK                         _______ _______ _______ _____ _____    ______ ____
ROOT
ATOM      1  C   UNL     1       1.969   5.886  20.042  0.00  0.00    +0.000 A 
ATOM      2  N   UNL     1       1.390   5.000  20.872  0.00  0.00    +0.000 NA
ATOM      3  C   UNL     1       1.245   3.745  20.435  0.00  0.00    +0.000 A 
ATOM      4  N   UNL     1       1.630   3.279  19.247  0.00  0.00    +0.000 NA
ATOM      5  C   UNL     1       2.187   4.181  18.413  0.00  0.00    +0.000 A 
ATOM      6  C   UNL     1       2.354   5.522  18.753  0.00  0.00    +0.000 A 
ATOM      7  C   UNL     1       3.025   6.446  17.775  0.00  0.00    +0.000 C 
ATOM      8  C   UNL     1       4.514   6.097  17.598  0.00  0.00    +0.000 C 
ATOM      9  N   UNL     1       4.788   5.029  16.610  0.00  0.00    +0.000 NA
ATOM     10  C   UNL     1       4.236   3.716  17.024  0.00  0.00    +0.000 C 
ATOM     11  C   UNL     1       2.704   3.644  17.105  0.00  0.00    +0.000 C 
ENDROOT
BRANCH   1  12
ATOM     12  N   UNL     1       2.112   7.216  20.498  0.00  0.00    +0.000 N 
ATOM     13  H   UNL     1       2.907   7.277  21.129  0.00  0.00    +0.000 HD
BRANCH  12  14
ATOM     14  C   UNL     1       0.909   7.719  21.179  0.00  0.00    +0.000 C 
BRANCH  14  15
ATOM     15  C   UNL     1       1.253   8.931  22.055  0.00  0.00    +0.000 C 
BRANCH  15  19
ATOM     16  C   UNL     1      -1.746  12.045  21.941  0.00  0.00    +0.000 A 
ATOM     17  C   UNL     1      -1.580  11.270  23.086  0.00  0.00    +0.000 A 
ATOM     18  C   UNL     1      -0.610  10.265  23.119  0.00  0.00    +0.000 A 
ATOM     19  C   UNL     1       0.205  10.020  22.004  0.00  0.00    +0.000 A 
ATOM     20  C   UNL     1       0.037  10.817  20.862  0.00  0.00    +0.000 A 
ATOM     21  C   UNL     1      -0.935  11.818  20.829  0.00  0.00    +0.000 A 
ENDBRANCH  15  19
ENDBRANCH  14  15
ENDBRANCH  12  14
ENDBRANCH   1  12
BRANCH   9  22
ATOM     22  C   UNL     1       6.256   4.864  16.422  0.00  0.00    +0.000 C 
BRANCH  22  23
ATOM     23  C   UNL     1       7.046   5.517  17.518  0.00  0.00    +0.000 A 
ATOM     24  C   UNL     1       7.608   6.776  17.569  0.00  0.00    +0.000 A 
ATOM     25  N   UNL     1       8.169   6.874  18.810  0.00  0.00    +0.000 N 
ATOM     26  C   UNL     1       7.947   5.693  19.458  0.00  0.00    +0.000 A 
ATOM     27  N   UNL     1       7.272   4.853  18.709  0.00  0.00    +0.000 NA
ATOM     28  H   UNL     1       8.654   7.675  19.192  0.00  0.00    +0.000 HD
ENDBRANCH  22  23
ENDBRANCH   9  22
TORSDOF 6
ENDMDL
MODEL 6
REMARK VINA RESULT:      -8.0      1.004      1.518
REMARK  Name = 
REMARK  6 active torsions:
REMARK  status: ('A' for Active; 'I' for Inactive)
REMARK    1  A    between atoms: C_4  and  C_5
REMARK    2  A    between atoms: C_5  and  C_6
REMARK    3  A    between atoms: C_6  and  N_7
REMARK    4  A    between atoms: N_7  and  C_8
REMARK    5  A    between atoms: N_16  and  C_17
REMARK    6  A    between atoms: C_17  and  C_18
REMARK                            x       y       z     vdW  Elec       q    Type
REMARK                         _______ _______ _______ _____ _____    ______ ____
ROOT
ATOM      1  C   UNL     1       2.054   6.073  20.087  0.00  0.00    +0.000 A 
ATOM      2  N   UNL     1       1.473   5.224  20.954  0.00  0.00    +0.000 NA
ATOM      3  C   UNL     1       1.309   3.956  20.563  0.00  0.00    +0.000 A 
ATOM      4  N   UNL     1       1.675   3.444  19.388  0.00  0.00    +0.000 NA
ATOM      5  C   UNL     1       2.234   4.309  18.517  0.00  0.00    +0.000 A 
ATOM      6  C   UNL     1       2.422   5.659  18.808  0.00  0.00    +0.000 A 
ATOM      7  C   UNL     1       3.094   6.540  17.791  0.00  0.00    +0.000 C 
ATOM      8  C   UNL     1       4.576   6.166  17.611  0.00  0.00    +0.000 C 
ATOM      9  N   UNL     1       4.826   5.060  16.659  0.00  0.00    +0.000 NA
ATOM     10  C   UNL     1       4.263   3.769  17.125  0.00  0.00    +0.000 C 
ATOM     11  C   UNL     1       2.731   3.720  17.224  0.00  0.00    +0.000 C 
ENDROOT
BRANCH   1  12
ATOM     12  N   UNL     1       2.219   7.416  20.494  0.00  0.00    +0.000 N 
ATOM     13  H   UNL     1       2.996   7.483  21.146  0.00  0.00    +0.000 HD
BRANCH  12  14
ATOM     14  C   UNL     1       1.009   7.976  21.118  0.00  0.00    +0.000 C 
BRANCH  14  15
ATOM     15  C   UNL     1       1.129   9.500  21.251  0.00  0.00    +0.000 C 
BRANCH  15  19
ATOM     16  C   UNL     1      -1.765  11.629  18.842  0.00  0.00    +0.000 A 
ATOM     17  C   UNL     1      -0.968  10.640  18.273  0.00  0.00    +0.000 A 
ATOM     18  C   UNL     1      -0.033   9.955  19.054  0.00  0.00    +0.000 A 
ATOM     19  C   UNL     1       0.117  10.253  20.416  0.00  0.00    +0.000 A 
ATOM     20  C   UNL     1      -0.702  11.242  20.981  0.00  0.00    +0.000 A 
ATOM     21  C   UNL     1      -1.632  11.928  20.199  0.00  0.00    +0.000 A 
ENDBRANCH  15  19
ENDBRANCH  14  15
ENDBRANCH  12  14
ENDBRANCH   1  12
BRANCH   9  22
ATOM     22  C   UNL     1       6.291   4.870  16.462  0.00  0.00    +0.000 C 
BRANCH  22  23
ATOM     23  C   UNL     1       6.651   4.691  15.017  0.00  0.00    +0.000 A 
ATOM     24  C   UNL     1       6.091   3.864  14.064  0.00  0.00    +0.000 A 
ATOM     25  N   UNL     1       6.764   4.132  12.907  0.00  0.00    +0.000 N 
ATOM     26  C   UNL     1       7.702   5.084  13.187  0.00  0.00    +0.000 A 
ATOM     27  N   UNL     1       7.662   5.444  14.449  0.00  0.00    +0.000 NA
ATOM     28  H   UNL     1       6.599   3.714  12.003  0.00  0.00    +0.000 HD
ENDBRANCH  22  23
ENDBRANCH   9  22
TORSDOF 6
ENDMDL
MODEL 7
REMARK VINA RESULT:      -7.9      2.061      2.965
REMARK  Name = 
REMARK  6 active torsions:
REMARK  status: ('A' for Active; 'I' for Inactive)
REMARK    1  A    between atoms: C_4  and  C_5
REMARK    2  A    between atoms: C_5  and  C_6
REMARK    3  A    between atoms: C_6  and  N_7
REMARK    4  A    between atoms: N_7  and  C_8
REMARK    5  A    between atoms: N_16  and  C_17
REMARK    6  A    between atoms: C_17  and  C_18
REMARK                            x       y       z     vdW  Elec       q    Type
REMARK                         _______ _______ _______ _____ _____    ______ ____
ROOT
ATOM      1  C   UNL     1       2.009   6.121  20.144  0.00  0.00    +0.000 A 
ATOM      2  N   UNL     1       1.410   5.241  20.967  0.00  0.00    +0.000 NA
ATOM      3  C   UNL     1       1.211   4.001  20.508  0.00  0.00    +0.000 A 
ATOM      4  N   UNL     1       1.560   3.544  19.305  0.00  0.00    +0.000 NA
ATOM      5  C   UNL     1       2.138   4.441  18.480  0.00  0.00    +0.000 A 
ATOM      6  C   UNL     1       2.361   5.768  18.843  0.00  0.00    +0.000 A 
ATOM      7  C   UNL     1       3.052   6.685  17.872  0.00  0.00    +0.000 C 
ATOM      8  C   UNL     1       4.524   6.283  17.665  0.00  0.00    +0.000 C 
ATOM      9  N   UNL     1       4.742   5.225  16.653  0.00  0.00    +0.000 NA
ATOM     10  C   UNL     1       4.147   3.926  17.050  0.00  0.00    +0.000 C 
ATOM     11  C   UNL     1       2.615   3.910  17.154  0.00  0.00    +0.000 C 
ENDROOT
BRANCH   1  12
ATOM     12  N   UNL     1       2.211   7.434  20.623  0.00  0.00    +0.000 N 
ATOM     13  H   UNL     1       2.512   7.403  21.593  0.00  0.00    +0.000 HD
BRANCH  12  14
ATOM     14  C   UNL     1       1.006   8.273  20.514  0.00  0.00    +0.000 C 
BRANCH  14  15
ATOM     15  C   UNL     1       1.222   9.394  19.488  0.00  0.00    +0.000 C 
BRANCH  15  19
ATOM     16  C   UNL     1      -2.434  11.433  18.401  0.00  0.00    +0.000 A 
ATOM     17  C   UNL     1      -1.863  10.504  17.535  0.00  0.00    +0.000 A 
ATOM     18  C   UNL     1      -0.681   9.848  17.890  0.00  0.00    +0.000 A 
ATOM     19  C   UNL     1      -0.055  10.115  19.116  0.00  0.00    +0.000 A 
ATOM     20  C   UNL     1      -0.647  11.042  19.986  0.00  0.00    +0.000 A 
ATOM     21  C   UNL     1      -1.826  11.700  19.628  0.00  0.00    +0.000 A 
ENDBRANCH  15  19
ENDBRANCH  14  15
ENDBRANCH  12  14
ENDBRANCH   1  12
BRANCH   9  22
ATOM     22  C   UNL     1       6.200   5.009  16.439  0.00  0.00    +0.000 C 
BRANCH  22  23
ATOM     23  C   UNL     1       7.029   5.591  17.545  0.00  0.00    +0.000 A 
ATOM     24  C   UNL     1       7.594   6.845  17.657  0.00  0.00    +0.000 A 
ATOM     25  N   UNL     1       8.200   6.865  18.881  0.00  0.00    +0.000 N 
ATOM     26  C   UNL     1       8.000   5.644  19.459  0.00  0.00    +0.000 A 
ATOM     27  N   UNL     1       7.298   4.852  18.682  0.00  0.00    +0.000 NA
ATOM     28  H   UNL     1       8.698   7.640  19.295  0.00  0.00    +0.000 HD
ENDBRANCH  22  23
ENDBRANCH   9  22
TORSDOF 6
ENDMDL
MODEL 8
REMARK VINA RESULT:      -7.9      2.130      7.888
REMARK  Name = 
REMARK  6 active torsions:
REMARK  status: ('A' for Active; 'I' for Inactive)
REMARK    1  A    between atoms: C_4  and  C_5
REMARK    2  A    between atoms: C_5  and  C_6
REMARK    3  A    between atoms: C_6  and  N_7
REMARK    4  A    between atoms: N_7  and  C_8
REMARK    5  A    between atoms: N_16  and  C_17
REMARK    6  A    between atoms: C_17  and  C_18
REMARK                            x       y       z     vdW  Elec       q    Type
REMARK                         _______ _______ _______ _____ _____    ______ ____
ROOT
ATOM      1  C   UNL     1       3.813   2.977  18.180  0.00  0.00    +0.000 A 
ATOM      2  N   UNL     1       3.074   1.875  17.957  0.00  0.00    +0.000 NA
ATOM      3  C   UNL     1       1.987   1.695  18.714  0.00  0.00    +0.000 A 
ATOM      4  N   UNL     1       1.554   2.515  19.672  0.00  0.00    +0.000 NA
ATOM      5  C   UNL     1       2.315   3.603  19.904  0.00  0.00    +0.000 A 
ATOM      6  C   UNL     1       3.487   3.871  19.199  0.00  0.00    +0.000 A 
ATOM      7  C   UNL     1       4.248   5.133  19.497  0.00  0.00    +0.000 C 
ATOM      8  C   UNL     1       3.461   6.383  19.060  0.00  0.00    +0.000 C 
ATOM      9  N   UNL     1       2.475   6.872  20.051  0.00  0.00    +0.000 NA
ATOM     10  C   UNL     1       1.372   5.909  20.279  0.00  0.00    +0.000 C 
ATOM     11  C   UNL     1       1.786   4.577  20.923  0.00  0.00    +0.000 C 
ENDROOT
BRANCH   1  12
ATOM     12  N   UNL     1       4.968   3.164  17.389  0.00  0.00    +0.000 N 
ATOM     13  H   UNL     1       5.701   3.593  17.948  0.00  0.00    +0.000 HD
BRANCH  12  14
ATOM     14  C   UNL     1       4.717   3.991  16.198  0.00  0.00    +0.000 C 
BRANCH  14  15
ATOM     15  C   UNL     1       6.022   4.624  15.697  0.00  0.00    +0.000 C 
BRANCH  15  19
ATOM     16  C   UNL     1       8.107   6.872  18.748  0.00  0.00    +0.000 A 
ATOM     17  C   UNL     1       8.136   5.480  18.757  0.00  0.00    +0.000 A 
ATOM     18  C   UNL     1       7.461   4.757  17.770  0.00  0.00    +0.000 A 
ATOM     19  C   UNL     1       6.745   5.419  16.762  0.00  0.00    +0.000 A 
ATOM     20  C   UNL     1       6.736   6.822  16.755  0.00  0.00    +0.000 A 
ATOM     21  C   UNL     1       7.408   7.542  17.744  0.00  0.00    +0.000 A 
ENDBRANCH  15  19
ENDBRANCH  14  15
ENDBRANCH  12  14
ENDBRANCH   1  12
BRANCH   9  22
ATOM     22  C   UNL     1       1.871   8.152  19.587  0.00  0.00    +0.000 C 
BRANCH  22  23
ATOM     23  C   UNL     1       1.082   8.832  20.666  0.00  0.00    +0.000 A 
ATOM     24  C   UNL     1      -0.120   9.506  20.589  0.00  0.00    +0.000 A 
ATOM     25  N   UNL     1      -0.410   9.884  21.868  0.00  0.00    +0.000 N 
ATOM     26  C   UNL     1       0.607   9.448  22.667  0.00  0.00    +0.000 A 
ATOM     27  N   UNL     1       1.523   8.810  21.976  0.00  0.00    +0.000 NA
ATOM     28  H   UNL     1      -1.231  10.384  22.178  0.00  0.00    +0.000 HD
ENDBRANCH  22  23
ENDBRANCH   9  22
TORSDOF 6
ENDMDL
MODEL 9
REMARK VINA RESULT:      -7.8      1.743      2.437
REMARK  Name = 
REMARK  6 active torsions:
REMARK  status: ('A' for Active; 'I' for Inactive)
REMARK    1  A    between atoms: C_4  and  C_5
REMARK    2  A    between atoms: C_5  and  C_6
REMARK    3  A    between atoms: C_6  and  N_7
REMARK    4  A    between atoms: N_7  and  C_8
REMARK    5  A    between atoms: N_16  and  C_17
REMARK    6  A    between atoms: C_17  and  C_18
REMARK                            x       y       z     vdW  Elec       q    Type
REMARK                         _______ _______ _______ _____ _____    ______ ____
ROOT
ATOM      1  C   UNL     1       2.211   5.395  20.310  0.00  0.00    +0.000 A 
ATOM      2  N   UNL     1       1.795   4.369  21.074  0.00  0.00    +0.000 NA
ATOM      3  C   UNL     1       1.744   3.158  20.510  0.00  0.00    +0.000 A 
ATOM      4  N   UNL     1       2.075   2.863  19.253  0.00  0.00    +0.000 NA
ATOM      5  C   UNL     1       2.467   3.903  18.489  0.00  0.00    +0.000 A 
ATOM      6  C   UNL     1       2.524   5.212  18.964  0.00  0.00    +0.000 A 
ATOM      7  C   UNL     1       3.015   6.301  18.051  0.00  0.00    +0.000 C 
ATOM      8  C   UNL     1       4.513   6.138  17.731  0.00  0.00    +0.000 C 
ATOM      9  N   UNL     1       4.811   5.214  16.613  0.00  0.00    +0.000 NA
ATOM     10  C   UNL     1       4.432   3.813  16.915  0.00  0.00    +0.000 C 
ATOM     11  C   UNL     1       2.927   3.565  17.095  0.00  0.00    +0.000 C 
ENDROOT
BRANCH   1  12
ATOM     12  N   UNL     1       2.256   6.677  20.901  0.00  0.00    +0.000 N 
ATOM     13  H   UNL     1       2.683   6.616  21.820  0.00  0.00    +0.000 HD
BRANCH  12  14
ATOM     14  C   UNL     1       0.926   7.297  21.021  0.00  0.00    +0.000 C 
BRANCH  14  15
ATOM     15  C   UNL     1       1.043   8.713  21.601  0.00  0.00    +0.000 C 
BRANCH  15  19
ATOM     16  C   UNL     1      -1.014  11.715  19.264  0.00  0.00    +0.000 A 
ATOM     17  C   UNL     1      -1.178  11.665  20.646  0.00  0.00    +0.000 A 
ATOM     18  C   UNL     1      -0.512  10.694  21.397  0.00  0.00    +0.000 A 
ATOM     19  C   UNL     1       0.325   9.757  20.775  0.00  0.00    +0.000 A 
ATOM     20  C   UNL     1       0.493   9.826  19.384  0.00  0.00    +0.000 A 
ATOM     21  C   UNL     1      -0.176  10.795  18.634  0.00  0.00    +0.000 A 
ENDBRANCH  15  19
ENDBRANCH  14  15
ENDBRANCH  12  14
ENDBRANCH   1  12
BRANCH   9  22
ATOM     22  C   UNL     1       6.268   5.233  16.304  0.00  0.00    +0.000 C 
BRANCH  22  23
ATOM     23  C   UNL     1       7.036   6.118  17.241  0.00  0.00    +0.000 A 
ATOM     24  C   UNL     1       7.608   5.824  18.462  0.00  0.00    +0.000 A 
ATOM     25  N   UNL     1       8.224   6.975  18.863  0.00  0.00    +0.000 N 
ATOM     26  C   UNL     1       8.002   7.918  17.901  0.00  0.00    +0.000 A 
ATOM     27  N   UNL     1       7.290   7.436  16.909  0.00  0.00    +0.000 NA
ATOM     28  H   UNL     1       8.757   7.111  19.710  0.00  0.00    +0.000 HD
ENDBRANCH  22  23
ENDBRANCH   9  22
TORSDOF 6
ENDMDL
