MODEL 1
REMARK VINA RESULT:      -7.8      0.000      0.000
REMARK  Name = 
REMARK  7 active torsions:
REMARK  status: ('A' for Active; 'I' for Inactive)
REMARK    1  A    between atoms: C_1  and  C_2
REMARK    2  A    between atoms: C_6  and  O_7
REMARK    3  A    between atoms: O_7  and  C_8
REMARK    4  A    between atoms: N_10  and  C_11
REMARK    5  A    between atoms: C_14  and  C_15
REMARK    6  A    between atoms: C_15  and  O_17
REMARK    7  A    between atoms: C_18  and  O_19
REMARK                            x       y       z     vdW  Elec       q    Type
REMARK                         _______ _______ _______ _____ _____    ______ ____
ROOT
ATOM      1  C   UNL     1       6.137   5.157  16.608  0.00  0.00    +0.000 C 
ATOM      2  O   UNL     1       5.356   6.061  16.336  0.00  0.00    +0.000 OA
ATOM      3  N   UNL     1       6.015   4.276  17.655  0.00  0.00    +0.000 N 
ATOM      4  H   UNL     1       6.858   3.801  17.948  0.00  0.00    +0.000 HD
ENDROOT
BRANCH   3   5
ATOM      5  C   UNL     1       4.801   3.984  18.304  0.00  0.00    +0.000 A 
ATOM      6  C   UNL     1       4.364   4.732  19.401  0.00  0.00    +0.000 A 
ATOM      7  C   UNL     1       3.171   4.427  20.060  0.00  0.00    +0.000 A 
ATOM      8  C   UNL     1       2.394   3.347  19.641  0.00  0.00    +0.000 A 
ATOM      9  C   UNL     1       2.811   2.632  18.497  0.00  0.00    +0.000 A 
ATOM     10  C   UNL     1       3.989   2.963  17.818  0.00  0.00    +0.000 A 
BRANCH   8  11
ATOM     11  C   UNL     1       1.154   2.926  20.342  0.00  0.00    +0.000 C 
ATOM     12  O   UNL     1       1.144   2.761  21.554  0.00  0.00    +0.000 OA
BRANCH  11  13
ATOM     13  O   UNL     1       0.046   2.749  19.597  0.00  0.00    +0.000 OA
ATOM     14  H   UNL     1      -0.814   2.711  20.044  0.00  0.00    +0.000 HD
ENDBRANCH  11  13
ENDBRANCH   8  11
BRANCH   9  15
ATOM     15  O   UNL     1       2.113   1.569  17.977  0.00  0.00    +0.000 OA
ATOM     16  H   UNL     1       2.655   0.754  18.083  0.00  0.00    +0.000 HD
ENDBRANCH   9  15
ENDBRANCH   3   5
BRANCH   1  17
ATOM     17  O   UNL     1       7.267   4.850  15.865  0.00  0.00    +0.000 OA
BRANCH  17  23
ATOM     18  C   UNL     1       5.333   2.576  11.888  0.00  0.00    +0.000 C 
ATOM     19  C   UNL     1       6.234   3.611  12.489  0.00  0.00    +0.000 A 
ATOM     20  C   UNL     1       7.078   4.398  11.701  0.00  0.00    +0.000 A 
ATOM     21  C   UNL     1       7.913   5.352  12.291  0.00  0.00    +0.000 A 
ATOM     22  C   UNL     1       7.920   5.524  13.676  0.00  0.00    +0.000 A 
ATOM     23  C   UNL     1       7.090   4.736  14.468  0.00  0.00    +0.000 A 
ATOM     24  C   UNL     1       6.251   3.782  13.878  0.00  0.00    +0.000 A 
ENDBRANCH  17  23
ENDBRANCH   1  17
TORSDOF 6
ENDMDL
MODEL 2
REMARK VINA RESULT:      -7.6      0.875      1.125
REMARK  Name = 
REMARK  7 active torsions:
REMARK  status: ('A' for Active; 'I' for Inactive)
REMARK    1  A    between atoms: C_1  and  C_2
REMARK    2  A    between atoms: C_6  and  O_7
REMARK    3  A    between atoms: O_7  and  C_8
REMARK    4  A    between atoms: N_10  and  C_11
REMARK    5  A    between atoms: C_14  and  C_15
REMARK    6  A    between atoms: C_15  and  O_17
REMARK    7  A    between atoms: C_18  and  O_19
REMARK                            x       y       z     vdW  Elec       q    Type
REMARK                         _______ _______ _______ _____ _____    ______ ____
ROOT
ATOM      1  C   UNL     1       6.229   5.180  16.582  0.00  0.00    +0.000 C 
ATOM      2  O   UNL     1       5.521   6.171  16.449  0.00  0.00    +0.000 OA
ATOM      3  N   UNL     1       6.020   4.155  17.473  0.00  0.00    +0.000 N 
ATOM      4  H   UNL     1       6.820   3.578  17.695  0.00  0.00    +0.000 HD
ENDROOT
BRANCH   3   5
ATOM      5  C   UNL     1       4.773   3.855  18.052  0.00  0.00    +0.000 A 
ATOM      6  C   UNL     1       4.679   3.336  19.347  0.00  0.00    +0.000 A 
ATOM      7  C   UNL     1       3.444   3.015  19.914  0.00  0.00    +0.000 A 
ATOM      8  C   UNL     1       2.269   3.193  19.182  0.00  0.00    +0.000 A 
ATOM      9  C   UNL     1       2.366   3.771  17.898  0.00  0.00    +0.000 A 
ATOM     10  C   UNL     1       3.604   4.125  17.348  0.00  0.00    +0.000 A 
BRANCH   8  11
ATOM     11  C   UNL     1       0.931   2.805  19.699  0.00  0.00    +0.000 C 
ATOM     12  O   UNL     1       0.112   2.261  18.972  0.00  0.00    +0.000 OA
BRANCH  11  13
ATOM     13  O   UNL     1       0.665   3.060  20.994  0.00  0.00    +0.000 OA
ATOM     14  H   UNL     1      -0.165   3.508  21.219  0.00  0.00    +0.000 HD
ENDBRANCH  11  13
ENDBRANCH   8  11
BRANCH   9  15
ATOM     15  O   UNL     1       1.277   4.019  17.099  0.00  0.00    +0.000 OA
ATOM     16  H   UNL     1       1.363   4.924  16.721  0.00  0.00    +0.000 HD
ENDBRANCH   9  15
ENDBRANCH   3   5
BRANCH   1  17
ATOM     17  O   UNL     1       7.350   4.912  15.812  0.00  0.00    +0.000 OA
BRANCH  17  23
ATOM     18  C   UNL     1       5.322   2.599  11.905  0.00  0.00    +0.000 C 
ATOM     19  C   UNL     1       6.241   3.637  12.474  0.00  0.00    +0.000 A 
ATOM     20  C   UNL     1       7.071   4.411  11.658  0.00  0.00    +0.000 A 
ATOM     21  C   UNL     1       7.922   5.368  12.219  0.00  0.00    +0.000 A 
ATOM     22  C   UNL     1       7.960   5.557  13.601  0.00  0.00    +0.000 A 
ATOM     23  C   UNL     1       7.143   4.782  14.421  0.00  0.00    +0.000 A 
ATOM     24  C   UNL     1       6.288   3.825  13.860  0.00  0.00    +0.000 A 
ENDBRANCH  17  23
ENDBRANCH   1  17
TORSDOF 6
ENDMDL
MODEL 3
REMARK VINA RESULT:      -7.5      0.652      1.612
REMARK  Name = 
REMARK  7 active torsions:
REMARK  status: ('A' for Active; 'I' for Inactive)
REMARK    1  A    between atoms: C_1  and  C_2
REMARK    2  A    between atoms: C_6  and  O_7
REMARK    3  A    between atoms: O_7  and  C_8
REMARK    4  A    between atoms: N_10  and  C_11
REMARK    5  A    between atoms: C_14  and  C_15
REMARK    6  A    between atoms: C_15  and  O_17
REMARK    7  A    between atoms: C_18  and  O_19
REMARK                            x       y       z     vdW  Elec       q    Type
REMARK                         _______ _______ _______ _____ _____    ______ ____
ROOT
ATOM      1  C   UNL     1       6.118   5.180  16.585  0.00  0.00    +0.000 C 
ATOM      2  O   UNL     1       5.322   6.087  16.373  0.00  0.00    +0.000 OA
ATOM      3  N   UNL     1       5.992   4.207  17.547  0.00  0.00    +0.000 N 
ATOM      4  H   UNL     1       6.839   3.727  17.818  0.00  0.00    +0.000 HD
ENDROOT
BRANCH   3   5
ATOM      5  C   UNL     1       4.771   3.832  18.136  0.00  0.00    +0.000 A 
ATOM      6  C   UNL     1       4.024   2.758  17.642  0.00  0.00    +0.000 A 
ATOM      7  C   UNL     1       2.800   2.401  18.212  0.00  0.00    +0.000 A 
ATOM      8  C   UNL     1       2.288   3.129  19.286  0.00  0.00    +0.000 A 
ATOM      9  C   UNL     1       3.073   4.175  19.817  0.00  0.00    +0.000 A 
ATOM     10  C   UNL     1       4.316   4.507  19.265  0.00  0.00    +0.000 A 
BRANCH   8  11
ATOM     11  C   UNL     1       0.959   2.847  19.890  0.00  0.00    +0.000 C 
ATOM     12  O   UNL     1      -0.007   2.584  19.187  0.00  0.00    +0.000 OA
BRANCH  11  13
ATOM     13  O   UNL     1       0.867   2.877  21.233  0.00  0.00    +0.000 OA
ATOM     14  H   UNL     1       1.172   3.669  21.703  0.00  0.00    +0.000 HD
ENDBRANCH  11  13
ENDBRANCH   8  11
BRANCH   9  15
ATOM     15  O   UNL     1       2.684   4.941  20.888  0.00  0.00    +0.000 OA
ATOM     16  H   UNL     1       3.461   5.452  21.209  0.00  0.00    +0.000 HD
ENDBRANCH   9  15
ENDBRANCH   3   5
BRANCH   1  17
ATOM     17  O   UNL     1       7.272   4.966  15.847  0.00  0.00    +0.000 OA
BRANCH  17  23
ATOM     18  C   UNL     1       5.387   2.561  11.923  0.00  0.00    +0.000 C 
ATOM     19  C   UNL     1       6.277   3.619  12.501  0.00  0.00    +0.000 A 
ATOM     20  C   UNL     1       7.122   4.388  11.696  0.00  0.00    +0.000 A 
ATOM     21  C   UNL     1       7.946   5.364  12.265  0.00  0.00    +0.000 A 
ATOM     22  C   UNL     1       7.940   5.578  13.644  0.00  0.00    +0.000 A 
ATOM     23  C   UNL     1       7.108   4.808  14.453  0.00  0.00    +0.000 A 
ATOM     24  C   UNL     1       6.281   3.832  13.884  0.00  0.00    +0.000 A 
ENDBRANCH  17  23
ENDBRANCH   1  17
TORSDOF 6
ENDMDL
MODEL 4
REMARK VINA RESULT:      -7.3      0.851      1.240
REMARK  Name = 
REMARK  7 active torsions:
REMARK  status: ('A' for Active; 'I' for Inactive)
REMARK    1  A    between atoms: C_1  and  C_2
REMARK    2  A    between atoms: C_6  and  O_7
REMARK    3  A    between atoms: O_7  and  C_8
REMARK    4  A    between atoms: N_10  and  C_11
REMARK    5  A    between atoms: C_14  and  C_15
REMARK    6  A    between atoms: C_15  and  O_17
REMARK    7  A    between atoms: C_18  and  O_19
REMARK                            x       y       z     vdW  Elec       q    Type
REMARK                         _______ _______ _______ _____ _____    ______ ____
ROOT
ATOM      1  C   UNL     1       6.243   5.098  16.649  0.00  0.00    +0.000 C 
ATOM      2  O   UNL     1       5.536   6.095  16.556  0.00  0.00    +0.000 OA
ATOM      3  N   UNL     1       6.037   4.041  17.502  0.00  0.00    +0.000 N 
ATOM      4  H   UNL     1       6.837   3.456  17.699  0.00  0.00    +0.000 HD
ENDROOT
BRANCH   3   5
ATOM      5  C   UNL     1       4.793   3.722  18.077  0.00  0.00    +0.000 A 
ATOM      6  C   UNL     1       3.603   3.854  17.356  0.00  0.00    +0.000 A 
ATOM      7  C   UNL     1       2.366   3.559  17.934  0.00  0.00    +0.000 A 
ATOM      8  C   UNL     1       2.295   3.139  19.262  0.00  0.00    +0.000 A 
ATOM      9  C   UNL     1       3.504   2.952  19.967  0.00  0.00    +0.000 A 
ATOM     10  C   UNL     1       4.744   3.214  19.372  0.00  0.00    +0.000 A 
BRANCH   8  11
ATOM     11  C   UNL     1       1.008   2.880  19.958  0.00  0.00    +0.000 C 
ATOM     12  O   UNL     1       0.906   3.036  21.167  0.00  0.00    +0.000 OA
BRANCH  11  13
ATOM     13  O   UNL     1      -0.038   2.485  19.207  0.00  0.00    +0.000 OA
ATOM     14  H   UNL     1      -0.476   1.647  19.424  0.00  0.00    +0.000 HD
ENDBRANCH  11  13
ENDBRANCH   8  11
BRANCH   9  15
ATOM     15  O   UNL     1       3.558   2.517  21.268  0.00  0.00    +0.000 OA
ATOM     16  H   UNL     1       4.483   2.607  21.592  0.00  0.00    +0.000 HD
ENDBRANCH   9  15
ENDBRANCH   3   5
BRANCH   1  17
ATOM     17  O   UNL     1       7.361   4.858  15.864  0.00  0.00    +0.000 OA
BRANCH  17  23
ATOM     18  C   UNL     1       5.264   2.637  11.939  0.00  0.00    +0.000 C 
ATOM     19  C   UNL     1       6.206   3.650  12.517  0.00  0.00    +0.000 A 
ATOM     20  C   UNL     1       7.044   4.419  11.706  0.00  0.00    +0.000 A 
ATOM     21  C   UNL     1       7.917   5.352  12.274  0.00  0.00    +0.000 A 
ATOM     22  C   UNL     1       7.967   5.521  13.658  0.00  0.00    +0.000 A 
ATOM     23  C   UNL     1       7.142   4.750  14.473  0.00  0.00    +0.000 A 
ATOM     24  C   UNL     1       6.266   3.817  13.905  0.00  0.00    +0.000 A 
ENDBRANCH  17  23
ENDBRANCH   1  17
TORSDOF 6
ENDMDL
MODEL 5
REMARK VINA RESULT:      -7.2      2.372      7.485
REMARK  Name = 
REMARK  7 active torsions:
REMARK  status: ('A' for Active; 'I' for Inactive)
REMARK    1  A    between atoms: C_1  and  C_2
REMARK    2  A    between atoms: C_6  and  O_7
REMARK    3  A    between atoms: O_7  and  C_8
REMARK    4  A    between atoms: N_10  and  C_11
REMARK    5  A    between atoms: C_14  and  C_15
REMARK    6  A    between atoms: C_15  and  O_17
REMARK    7  A    between atoms: C_18  and  O_19
REMARK                            x       y       z     vdW  Elec       q    Type
REMARK                         _______ _______ _______ _____ _____    ______ ____
ROOT
ATOM      1  C   UNL     1       5.346   4.998  18.676  0.00  0.00    +0.000 C 
ATOM      2  O   UNL     1       6.112   4.057  18.848  0.00  0.00    +0.000 OA
ATOM      3  N   UNL     1       5.207   5.722  17.517  0.00  0.00    +0.000 N 
ATOM      4  H   UNL     1       4.789   6.638  17.603  0.00  0.00    +0.000 HD
ENDROOT
BRANCH   3   5
ATOM      5  C   UNL     1       5.579   5.253  16.244  0.00  0.00    +0.000 A 
ATOM      6  C   UNL     1       4.776   4.351  15.538  0.00  0.00    +0.000 A 
ATOM      7  C   UNL     1       5.157   3.867  14.284  0.00  0.00    +0.000 A 
ATOM      8  C   UNL     1       6.366   4.266  13.716  0.00  0.00    +0.000 A 
ATOM      9  C   UNL     1       7.144   5.220  14.407  0.00  0.00    +0.000 A 
ATOM     10  C   UNL     1       6.741   5.730  15.647  0.00  0.00    +0.000 A 
BRANCH   8  11
ATOM     11  C   UNL     1       6.863   3.733  12.421  0.00  0.00    +0.000 C 
ATOM     12  O   UNL     1       7.464   4.452  11.635  0.00  0.00    +0.000 OA
BRANCH  11  13
ATOM     13  O   UNL     1       6.639   2.431  12.155  0.00  0.00    +0.000 OA
ATOM     14  H   UNL     1       6.221   1.883  12.837  0.00  0.00    +0.000 HD
ENDBRANCH  11  13
ENDBRANCH   8  11
BRANCH   9  15
ATOM     15  O   UNL     1       8.338   5.706  13.932  0.00  0.00    +0.000 OA
ATOM     16  H   UNL     1       8.624   5.151  13.171  0.00  0.00    +0.000 HD
ENDBRANCH   9  15
ENDBRANCH   3   5
BRANCH   1  17
ATOM     17  O   UNL     1       4.453   5.462  19.630  0.00  0.00    +0.000 OA
BRANCH  17  23
ATOM     18  C   UNL     1       1.274   2.483  22.028  0.00  0.00    +0.000 C 
ATOM     19  C   UNL     1       1.662   3.270  20.813  0.00  0.00    +0.000 A 
ATOM     20  C   UNL     1       0.902   3.232  19.641  0.00  0.00    +0.000 A 
ATOM     21  C   UNL     1       1.292   3.972  18.520  0.00  0.00    +0.000 A 
ATOM     22  C   UNL     1       2.449   4.752  18.556  0.00  0.00    +0.000 A 
ATOM     23  C   UNL     1       3.217   4.785  19.718  0.00  0.00    +0.000 A 
ATOM     24  C   UNL     1       2.826   4.046  20.841  0.00  0.00    +0.000 A 
ENDBRANCH  17  23
ENDBRANCH   1  17
TORSDOF 6
ENDMDL
MODEL 6
REMARK VINA RESULT:      -7.2      2.385      7.248
REMARK  Name = 
REMARK  7 active torsions:
REMARK  status: ('A' for Active; 'I' for Inactive)
REMARK    1  A    between atoms: C_1  and  C_2
REMARK    2  A    between atoms: C_6  and  O_7
REMARK    3  A    between atoms: O_7  and  C_8
REMARK    4  A    between atoms: N_10  and  C_11
REMARK    5  A    between atoms: C_14  and  C_15
REMARK    6  A    between atoms: C_15  and  O_17
REMARK    7  A    between atoms: C_18  and  O_19
REMARK                            x       y       z     vdW  Elec       q    Type
REMARK                         _______ _______ _______ _____ _____    ______ ____
ROOT
ATOM      1  C   UNL     1       5.599   5.105  18.831  0.00  0.00    +0.000 C 
ATOM      2  O   UNL     1       6.486   4.273  18.974  0.00  0.00    +0.000 OA
ATOM      3  N   UNL     1       5.276   5.744  17.658  0.00  0.00    +0.000 N 
ATOM      4  H   UNL     1       4.758   6.608  17.741  0.00  0.00    +0.000 HD
ENDROOT
BRANCH   3   5
ATOM      5  C   UNL     1       5.595   5.254  16.378  0.00  0.00    +0.000 A 
ATOM      6  C   UNL     1       4.757   4.353  15.715  0.00  0.00    +0.000 A 
ATOM      7  C   UNL     1       5.085   3.847  14.455  0.00  0.00    +0.000 A 
ATOM      8  C   UNL     1       6.277   4.224  13.837  0.00  0.00    +0.000 A 
ATOM      9  C   UNL     1       7.090   5.178  14.485  0.00  0.00    +0.000 A 
ATOM     10  C   UNL     1       6.740   5.710  15.732  0.00  0.00    +0.000 A 
BRANCH   8  11
ATOM     11  C   UNL     1       6.719   3.668  12.531  0.00  0.00    +0.000 C 
ATOM     12  O   UNL     1       7.379   4.342  11.753  0.00  0.00    +0.000 OA
BRANCH  11  13
ATOM     13  O   UNL     1       6.378   2.396  12.248  0.00  0.00    +0.000 OA
ATOM     14  H   UNL     1       7.081   1.764  12.029  0.00  0.00    +0.000 HD
ENDBRANCH  11  13
ENDBRANCH   8  11
BRANCH   9  15
ATOM     15  O   UNL     1       8.271   5.644  13.960  0.00  0.00    +0.000 OA
ATOM     16  H   UNL     1       8.233   6.627  13.925  0.00  0.00    +0.000 HD
ENDBRANCH   9  15
ENDBRANCH   3   5
BRANCH   1  17
ATOM     17  O   UNL     1       4.738   5.512  19.839  0.00  0.00    +0.000 OA
BRANCH  17  23
ATOM     18  C   UNL     1       1.715   1.787  18.529  0.00  0.00    +0.000 C 
ATOM     19  C   UNL     1       1.964   3.068  19.265  0.00  0.00    +0.000 A 
ATOM     20  C   UNL     1       0.940   3.738  19.941  0.00  0.00    +0.000 A 
ATOM     21  C   UNL     1       1.201   4.935  20.615  0.00  0.00    +0.000 A 
ATOM     22  C   UNL     1       2.486   5.481  20.614  0.00  0.00    +0.000 A 
ATOM     23  C   UNL     1       3.508   4.824  19.934  0.00  0.00    +0.000 A 
ATOM     24  C   UNL     1       3.249   3.624  19.261  0.00  0.00    +0.000 A 
ENDBRANCH  17  23
ENDBRANCH   1  17
TORSDOF 6
ENDMDL
MODEL 7
REMARK VINA RESULT:      -7.2      5.180      7.490
REMARK  Name = 
REMARK  7 active torsions:
REMARK  status: ('A' for Active; 'I' for Inactive)
REMARK    1  A    between atoms: C_1  and  C_2
REMARK    2  A    between atoms: C_6  and  O_7
REMARK    3  A    between atoms: O_7  and  C_8
REMARK    4  A    between atoms: N_10  and  C_11
REMARK    5  A    between atoms: C_14  and  C_15
REMARK    6  A    between atoms: C_15  and  O_17
REMARK    7  A    between atoms: C_18  and  O_19
REMARK                            x       y       z     vdW  Elec       q    Type
REMARK                         _______ _______ _______ _____ _____    ______ ____
ROOT
ATOM      1  C   UNL     1       2.198   8.355  18.515  0.00  0.00    +0.000 C 
ATOM      2  O   UNL     1       1.854   8.142  19.671  0.00  0.00    +0.000 OA
ATOM      3  N   UNL     1       3.037   7.565  17.767  0.00  0.00    +0.000 N 
ATOM      4  H   UNL     1       3.478   8.001  16.969  0.00  0.00    +0.000 HD
ENDROOT
BRANCH   3   5
ATOM      5  C   UNL     1       3.282   6.204  18.028  0.00  0.00    +0.000 A 
ATOM      6  C   UNL     1       2.240   5.274  18.081  0.00  0.00    +0.000 A 
ATOM      7  C   UNL     1       2.481   3.928  18.364  0.00  0.00    +0.000 A 
ATOM      8  C   UNL     1       3.779   3.486  18.620  0.00  0.00    +0.000 A 
ATOM      9  C   UNL     1       4.834   4.419  18.509  0.00  0.00    +0.000 A 
ATOM     10  C   UNL     1       4.591   5.760  18.189  0.00  0.00    +0.000 A 
BRANCH   8  11
ATOM     11  C   UNL     1       4.094   2.084  18.999  0.00  0.00    +0.000 C 
ATOM     12  O   UNL     1       3.562   1.145  18.425  0.00  0.00    +0.000 OA
BRANCH  11  13
ATOM     13  O   UNL     1       4.994   1.891  19.983  0.00  0.00    +0.000 OA
ATOM     14  H   UNL     1       4.934   1.083  20.516  0.00  0.00    +0.000 HD
ENDBRANCH  11  13
ENDBRANCH   8  11
BRANCH   9  15
ATOM     15  O   UNL     1       6.152   4.093  18.711  0.00  0.00    +0.000 OA
ATOM     16  H   UNL     1       6.617   4.877  19.082  0.00  0.00    +0.000 HD
ENDBRANCH   9  15
ENDBRANCH   3   5
BRANCH   1  17
ATOM     17  O   UNL     1       1.756   9.425  17.753  0.00  0.00    +0.000 OA
BRANCH  17  23
ATOM     18  C   UNL     1      -3.195   9.841  17.531  0.00  0.00    +0.000 C 
ATOM     19  C   UNL     1      -1.866  10.325  18.024  0.00  0.00    +0.000 A 
ATOM     20  C   UNL     1      -1.742  11.503  18.767  0.00  0.00    +0.000 A 
ATOM     21  C   UNL     1      -0.487  11.933  19.209  0.00  0.00    +0.000 A 
ATOM     22  C   UNL     1       0.659  11.197  18.906  0.00  0.00    +0.000 A 
ATOM     23  C   UNL     1       0.545  10.029  18.157  0.00  0.00    +0.000 A 
ATOM     24  C   UNL     1      -0.712   9.595  17.717  0.00  0.00    +0.000 A 
ENDBRANCH  17  23
ENDBRANCH   1  17
TORSDOF 6
ENDMDL
MODEL 8
REMARK VINA RESULT:      -7.0      4.355      5.434
REMARK  Name = 
REMARK  7 active torsions:
REMARK  status: ('A' for Active; 'I' for Inactive)
REMARK    1  A    between atoms: C_1  and  C_2
REMARK    2  A    between atoms: C_6  and  O_7
REMARK    3  A    between atoms: O_7  and  C_8
REMARK    4  A    between atoms: N_10  and  C_11
REMARK    5  A    between atoms: C_14  and  C_15
REMARK    6  A    between atoms: C_15  and  O_17
REMARK    7  A    between atoms: C_18  and  O_19
REMARK                            x       y       z     vdW  Elec       q    Type
REMARK                         _______ _______ _______ _____ _____    ______ ____
ROOT
ATOM      1  C   UNL     1       2.804   5.069  18.264  0.00  0.00    +0.000 C 
ATOM      2  O   UNL     1       1.653   4.782  17.960  0.00  0.00    +0.000 OA
ATOM      3  N   UNL     1       3.262   6.323  18.589  0.00  0.00    +0.000 N 
ATOM      4  H   UNL     1       4.259   6.475  18.511  0.00  0.00    +0.000 HD
ENDROOT
BRANCH   3   5
ATOM      5  C   UNL     1       2.441   7.371  19.043  0.00  0.00    +0.000 A 
ATOM      6  C   UNL     1       1.967   7.406  20.358  0.00  0.00    +0.000 A 
ATOM      7  C   UNL     1       1.132   8.434  20.803  0.00  0.00    +0.000 A 
ATOM      8  C   UNL     1       0.738   9.445  19.927  0.00  0.00    +0.000 A 
ATOM      9  C   UNL     1       1.266   9.436  18.617  0.00  0.00    +0.000 A 
ATOM     10  C   UNL     1       2.131   8.424  18.187  0.00  0.00    +0.000 A 
BRANCH   8  11
ATOM     11  C   UNL     1      -0.206  10.526  20.315  0.00  0.00    +0.000 C 
ATOM     12  O   UNL     1      -0.043  11.159  21.349  0.00  0.00    +0.000 OA
BRANCH  11  13
ATOM     13  O   UNL     1      -1.232  10.787  19.483  0.00  0.00    +0.000 OA
ATOM     14  H   UNL     1      -1.710  10.042  19.086  0.00  0.00    +0.000 HD
ENDBRANCH  11  13
ENDBRANCH   8  11
BRANCH   9  15
ATOM     15  O   UNL     1       0.970  10.394  17.679  0.00  0.00    +0.000 OA
ATOM     16  H   UNL     1       0.528   9.960  16.914  0.00  0.00    +0.000 HD
ENDBRANCH   9  15
ENDBRANCH   3   5
BRANCH   1  17
ATOM     17  O   UNL     1       3.836   4.150  18.369  0.00  0.00    +0.000 OA
BRANCH  17  23
ATOM     18  C   UNL     1       5.981   4.005  13.884  0.00  0.00    +0.000 C 
ATOM     19  C   UNL     1       6.065   4.222  15.365  0.00  0.00    +0.000 A 
ATOM     20  C   UNL     1       7.285   4.462  16.004  0.00  0.00    +0.000 A 
ATOM     21  C   UNL     1       7.333   4.654  17.388  0.00  0.00    +0.000 A 
ATOM     22  C   UNL     1       6.165   4.600  18.150  0.00  0.00    +0.000 A 
ATOM     23  C   UNL     1       4.948   4.350  17.521  0.00  0.00    +0.000 A 
ATOM     24  C   UNL     1       4.898   4.160  16.135  0.00  0.00    +0.000 A 
ENDBRANCH  17  23
ENDBRANCH   1  17
TORSDOF 6
ENDMDL
MODEL 9
REMARK VINA RESULT:      -7.0      3.264      7.662
REMARK  Name = 
REMARK  7 active torsions:
REMARK  status: ('A' for Active; 'I' for Inactive)
REMARK    1  A    between atoms: C_1  and  C_2
REMARK    2  A    between atoms: C_6  and  O_7
REMARK    3  A    between atoms: O_7  and  C_8
REMARK    4  A    between atoms: N_10  and  C_11
REMARK    5  A    between atoms: C_14  and  C_15
REMARK    6  A    between atoms: C_15  and  O_17
REMARK    7  A    between atoms: C_18  and  O_19
REMARK                            x       y       z     vdW  Elec       q    Type
REMARK                         _______ _______ _______ _____ _____    ______ ____
ROOT
ATOM      1  C   UNL     1       2.834   5.230  19.588  0.00  0.00    +0.000 C 
ATOM      2  O   UNL     1       2.199   4.452  18.886  0.00  0.00    +0.000 OA
ATOM      3  N   UNL     1       4.155   5.569  19.423  0.00  0.00    +0.000 N 
ATOM      4  H   UNL     1       4.626   5.958  20.228  0.00  0.00    +0.000 HD
ENDROOT
BRANCH   3   5
ATOM      5  C   UNL     1       4.859   5.435  18.212  0.00  0.00    +0.000 A 
ATOM      6  C   UNL     1       4.327   5.902  17.006  0.00  0.00    +0.000 A 
ATOM      7  C   UNL     1       5.015   5.748  15.800  0.00  0.00    +0.000 A 
ATOM      8  C   UNL     1       6.252   5.103  15.776  0.00  0.00    +0.000 A 
ATOM      9  C   UNL     1       6.810   4.686  17.004  0.00  0.00    +0.000 A 
ATOM     10  C   UNL     1       6.132   4.874  18.215  0.00  0.00    +0.000 A 
BRANCH   8  11
ATOM     11  C   UNL     1       7.001   4.842  14.519  0.00  0.00    +0.000 C 
ATOM     12  O   UNL     1       6.624   3.987  13.730  0.00  0.00    +0.000 OA
BRANCH  11  13
ATOM     13  O   UNL     1       8.095   5.591  14.279  0.00  0.00    +0.000 OA
ATOM     14  H   UNL     1       8.023   6.555  14.348  0.00  0.00    +0.000 HD
ENDBRANCH  11  13
ENDBRANCH   8  11
BRANCH   9  15
ATOM     15  O   UNL     1       8.031   4.065  17.106  0.00  0.00    +0.000 OA
ATOM     16  H   UNL     1       8.734   4.754  17.115  0.00  0.00    +0.000 HD
ENDBRANCH   9  15
ENDBRANCH   3   5
BRANCH   1  17
ATOM     17  O   UNL     1       2.298   5.934  20.655  0.00  0.00    +0.000 OA
BRANCH  17  23
ATOM     18  C   UNL     1       1.846   9.977  17.795  0.00  0.00    +0.000 C 
ATOM     19  C   UNL     1       1.494   9.207  19.032  0.00  0.00    +0.000 A 
ATOM     20  C   UNL     1       0.689   9.756  20.034  0.00  0.00    +0.000 A 
ATOM     21  C   UNL     1       0.382   9.016  21.181  0.00  0.00    +0.000 A 
ATOM     22  C   UNL     1       0.884   7.724  21.343  0.00  0.00    +0.000 A 
ATOM     23  C   UNL     1       1.697   7.175  20.353  0.00  0.00    +0.000 A 
ATOM     24  C   UNL     1       2.002   7.914  19.203  0.00  0.00    +0.000 A 
ENDBRANCH  17  23
ENDBRANCH   1  17
TORSDOF 6
ENDMDL
