MODEL 1
REMARK VINA RESULT:      -7.3      0.000      0.000
REMARK  Name = 
REMARK  7 active torsions:
REMARK  status: ('A' for Active; 'I' for Inactive)
REMARK    1  A    between atoms: C_1  and  O_2
REMARK    2  A    between atoms: O_2  and  C_3
REMARK    3  A    between atoms: C_5  and  N_6
REMARK    4  A    between atoms: C_10  and  C_11
REMARK    5  A    between atoms: N_13  and  C_14
REMARK    6  A    between atoms: N_17  and  C_18
REMARK    7  A    between atoms: C_18  and  C_19
REMARK                            x       y       z     vdW  Elec       q    Type
REMARK                         _______ _______ _______ _____ _____    ______ ____
ROOT
ATOM      1  C   UNL     1       2.340   7.341  18.610  0.00  0.00    +0.000 C 
ATOM      2  O   UNL     1       2.210   7.407  19.831  0.00  0.00    +0.000 OA
ATOM      3  N   UNL     1       1.776   8.283  17.765  0.00  0.00    +0.000 N 
ATOM      4  H   UNL     1       1.839   8.152  16.760  0.00  0.00    +0.000 HD
ENDROOT
BRANCH   1  11
ATOM      5  C   UNL     1       2.849   4.957  17.753  0.00  0.00    +0.000 A 
ATOM      6  C   UNL     1       3.773   4.101  17.116  0.00  0.00    +0.000 A 
ATOM      7  C   UNL     1       5.066   4.527  16.779  0.00  0.00    +0.000 A 
ATOM      8  C   UNL     1       5.461   5.808  17.182  0.00  0.00    +0.000 A 
ATOM      9 CL   UNL     1       7.074   6.365  16.898  0.00  0.00    +0.000 Cl
ATOM     10  C   UNL     1       4.550   6.678  17.778  0.00  0.00    +0.000 A 
ATOM     11  C   UNL     1       3.226   6.275  18.043  0.00  0.00    +0.000 A 
BRANCH   7  12
ATOM     12  N   UNL     1       5.981   3.598  16.251  0.00  0.00    +0.000 N 
ATOM     13  H   UNL     1       5.558   2.761  15.861  0.00  0.00    +0.000 HD
ATOM     14  H   UNL     1       6.648   4.029  15.612  0.00  0.00    +0.000 HD
ENDBRANCH   7  12
BRANCH   5  16
ATOM     15  C   UNL     1       1.528   3.598  19.157  0.00  0.00    +0.000 C 
ATOM     16  O   UNL     1       1.583   4.542  18.084  0.00  0.00    +0.000 OA
ENDBRANCH   5  16
ENDBRANCH   1  11
BRANCH   3  17
ATOM     17  C   UNL     1       1.248   9.515  18.340  0.00  0.00    +0.000 C 
ATOM     18  C   UNL     1       2.100  10.745  18.049  0.00  0.00    +0.000 C 
ATOM     19  C   UNL     1       1.597  11.881  18.944  0.00  0.00    +0.000 C 
ATOM     20  N   UNL     1       0.175  12.212  18.713  0.00  0.00    +0.000 NA
ATOM     21  C   UNL     1      -0.691  11.016  18.802  0.00  0.00    +0.000 C 
ATOM     22  C   UNL     1      -0.193   9.835  17.949  0.00  0.00    +0.000 C 
BRANCH  20  23
ATOM     23  C   UNL     1      -0.216  13.237  19.713  0.00  0.00    +0.000 C 
BRANCH  23  24
ATOM     24  C   UNL     1      -1.063  12.756  20.871  0.00  0.00    +0.000 A 
ATOM     25  C   UNL     1      -0.479  12.016  21.912  0.00  0.00    +0.000 A 
ATOM     26  C   UNL     1      -1.230  11.633  23.024  0.00  0.00    +0.000 A 
ATOM     27  C   UNL     1      -2.574  11.989  23.112  0.00  0.00    +0.000 A 
ATOM     28  C   UNL     1      -3.166  12.724  22.085  0.00  0.00    +0.000 A 
ATOM     29  C   UNL     1      -2.416  13.106  20.971  0.00  0.00    +0.000 A 
ENDBRANCH  23  24
ENDBRANCH  20  23
ENDBRANCH   3  17
TORSDOF 6
ENDMDL
MODEL 2
REMARK VINA RESULT:      -7.1      2.182      2.756
REMARK  Name = 
REMARK  7 active torsions:
REMARK  status: ('A' for Active; 'I' for Inactive)
REMARK    1  A    between atoms: C_1  and  O_2
REMARK    2  A    between atoms: O_2  and  C_3
REMARK    3  A    between atoms: C_5  and  N_6
REMARK    4  A    between atoms: C_10  and  C_11
REMARK    5  A    between atoms: N_13  and  C_14
REMARK    6  A    between atoms: N_17  and  C_18
REMARK    7  A    between atoms: C_18  and  C_19
REMARK                            x       y       z     vdW  Elec       q    Type
REMARK                         _______ _______ _______ _____ _____    ______ ____
ROOT
ATOM      1  C   UNL     1       2.073   7.888  19.281  0.00  0.00    +0.000 C 
ATOM      2  O   UNL     1       1.551   8.584  18.411  0.00  0.00    +0.000 OA
ATOM      3  N   UNL     1       1.864   8.129  20.629  0.00  0.00    +0.000 N 
ATOM      4  H   UNL     1       2.373   7.583  21.317  0.00  0.00    +0.000 HD
ENDROOT
BRANCH   1  11
ATOM      5  C   UNL     1       2.869   5.438  19.497  0.00  0.00    +0.000 A 
ATOM      6  C   UNL     1       3.578   4.369  18.909  0.00  0.00    +0.000 A 
ATOM      7  C   UNL     1       4.287   4.522  17.710  0.00  0.00    +0.000 A 
ATOM      8  C   UNL     1       4.362   5.802  17.149  0.00  0.00    +0.000 A 
ATOM      9 CL   UNL     1       5.307   6.092  15.730  0.00  0.00    +0.000 Cl
ATOM     10  C   UNL     1       3.638   6.860  17.696  0.00  0.00    +0.000 A 
ATOM     11  C   UNL     1       2.859   6.686  18.857  0.00  0.00    +0.000 A 
BRANCH   7  12
ATOM     12  N   UNL     1       5.069   3.454  17.232  0.00  0.00    +0.000 N 
ATOM     13  H   UNL     1       5.697   3.695  16.472  0.00  0.00    +0.000 HD
ATOM     14  H   UNL     1       5.543   2.953  17.983  0.00  0.00    +0.000 HD
ENDBRANCH   7  12
BRANCH   5  16
ATOM     15  C   UNL     1       1.117   4.328  20.620  0.00  0.00    +0.000 C 
ATOM     16  O   UNL     1       2.173   5.292  20.671  0.00  0.00    +0.000 OA
ENDBRANCH   5  16
ENDBRANCH   1  11
BRANCH   3  17
ATOM     17  C   UNL     1       0.803   9.049  21.022  0.00  0.00    +0.000 C 
ATOM     18  C   UNL     1       0.628   9.180  22.530  0.00  0.00    +0.000 C 
ATOM     19  C   UNL     1      -0.684   9.927  22.783  0.00  0.00    +0.000 C 
ATOM     20  N   UNL     1      -0.708  11.274  22.174  0.00  0.00    +0.000 NA
ATOM     21  C   UNL     1      -0.364  11.236  20.737  0.00  0.00    +0.000 C 
ATOM     22  C   UNL     1       0.928  10.455  20.437  0.00  0.00    +0.000 C 
BRANCH  20  23
ATOM     23  C   UNL     1      -2.063  11.840  22.391  0.00  0.00    +0.000 C 
BRANCH  23  24
ATOM     24  C   UNL     1      -2.157  13.004  23.354  0.00  0.00    +0.000 A 
ATOM     25  C   UNL     1      -1.095  13.918  23.460  0.00  0.00    +0.000 A 
ATOM     26  C   UNL     1      -1.199  15.039  24.284  0.00  0.00    +0.000 A 
ATOM     27  C   UNL     1      -2.367  15.264  25.010  0.00  0.00    +0.000 A 
ATOM     28  C   UNL     1      -3.428  14.364  24.914  0.00  0.00    +0.000 A 
ATOM     29  C   UNL     1      -3.325  13.241  24.090  0.00  0.00    +0.000 A 
ENDBRANCH  23  24
ENDBRANCH  20  23
ENDBRANCH   3  17
TORSDOF 6
ENDMDL
MODEL 3
REMARK VINA RESULT:      -7.1      2.965      4.331
REMARK  Name = 
REMARK  7 active torsions:
REMARK  status: ('A' for Active; 'I' for Inactive)
REMARK    1  A    between atoms: C_1  and  O_2
REMARK    2  A    between atoms: O_2  and  C_3
REMARK    3  A    between atoms: C_5  and  N_6
REMARK    4  A    between atoms: C_10  and  C_11
REMARK    5  A    between atoms: N_13  and  C_14
REMARK    6  A    between atoms: N_17  and  C_18
REMARK    7  A    between atoms: C_18  and  C_19
REMARK                            x       y       z     vdW  Elec       q    Type
REMARK                         _______ _______ _______ _____ _____    ______ ____
ROOT
ATOM      1  C   UNL     1       1.744   8.006  19.890  0.00  0.00    +0.000 C 
ATOM      2  O   UNL     1       1.533   8.343  21.053  0.00  0.00    +0.000 OA
ATOM      3  N   UNL     1       1.570   8.887  18.835  0.00  0.00    +0.000 N 
ATOM      4  H   UNL     1       1.679   8.551  17.882  0.00  0.00    +0.000 HD
ENDROOT
BRANCH   1  11
ATOM      5  C   UNL     1       3.216   6.307  18.616  0.00  0.00    +0.000 A 
ATOM      6  C   UNL     1       3.744   4.999  18.573  0.00  0.00    +0.000 A 
ATOM      7  C   UNL     1       3.378   4.021  19.508  0.00  0.00    +0.000 A 
ATOM      8  C   UNL     1       2.386   4.344  20.441  0.00  0.00    +0.000 A 
ATOM      9 CL   UNL     1       1.803   3.158  21.557  0.00  0.00    +0.000 Cl
ATOM     10  C   UNL     1       1.881   5.640  20.521  0.00  0.00    +0.000 A 
ATOM     11  C   UNL     1       2.311   6.645  19.632  0.00  0.00    +0.000 A 
BRANCH   7  12
ATOM     12  N   UNL     1       3.847   2.704  19.347  0.00  0.00    +0.000 N 
ATOM     13  H   UNL     1       3.119   2.005  19.243  0.00  0.00    +0.000 HD
ATOM     14  H   UNL     1       4.560   2.632  18.621  0.00  0.00    +0.000 HD
ENDBRANCH   7  12
BRANCH   5  16
ATOM     15  C   UNL     1       4.689   6.915  16.877  0.00  0.00    +0.000 C 
ATOM     16  O   UNL     1       3.574   7.266  17.701  0.00  0.00    +0.000 OA
ENDBRANCH   5  16
ENDBRANCH   1  11
BRANCH   3  17
ATOM     17  C   UNL     1       1.393  10.305  19.125  0.00  0.00    +0.000 C 
ATOM     18  C   UNL     1       2.210  11.225  18.224  0.00  0.00    +0.000 C 
ATOM     19  C   UNL     1       2.157  12.632  18.826  0.00  0.00    +0.000 C 
ATOM     20  N   UNL     1       0.780  13.160  18.938  0.00  0.00    +0.000 NA
ATOM     21  C   UNL     1      -0.115  12.223  19.649  0.00  0.00    +0.000 C 
ATOM     22  C   UNL     1      -0.056  10.786  19.101  0.00  0.00    +0.000 C 
BRANCH  20  23
ATOM     23  C   UNL     1       0.857  14.469  19.636  0.00  0.00    +0.000 C 
BRANCH  23  24
ATOM     24  C   UNL     1       0.831  15.700  18.756  0.00  0.00    +0.000 A 
ATOM     25  C   UNL     1      -0.389  16.331  18.463  0.00  0.00    +0.000 A 
ATOM     26  C   UNL     1      -0.421  17.511  17.720  0.00  0.00    +0.000 A 
ATOM     27  C   UNL     1       0.766  18.078  17.262  0.00  0.00    +0.000 A 
ATOM     28  C   UNL     1       1.985  17.461  17.545  0.00  0.00    +0.000 A 
ATOM     29  C   UNL     1       2.018  16.279  18.288  0.00  0.00    +0.000 A 
ENDBRANCH  23  24
ENDBRANCH  20  23
ENDBRANCH   3  17
TORSDOF 6
ENDMDL
MODEL 4
REMARK VINA RESULT:      -7.0      2.614      3.997
REMARK  Name = 
REMARK  7 active torsions:
REMARK  status: ('A' for Active; 'I' for Inactive)
REMARK    1  A    between atoms: C_1  and  O_2
REMARK    2  A    between atoms: O_2  and  C_3
REMARK    3  A    between atoms: C_5  and  N_6
REMARK    4  A    between atoms: C_10  and  C_11
REMARK    5  A    between atoms: N_13  and  C_14
REMARK    6  A    between atoms: N_17  and  C_18
REMARK    7  A    between atoms: C_18  and  C_19
REMARK                            x       y       z     vdW  Elec       q    Type
REMARK                         _______ _______ _______ _____ _____    ______ ____
ROOT
ATOM      1  C   UNL     1       2.059   7.505  19.057  0.00  0.00    +0.000 C 
ATOM      2  O   UNL     1       1.954   7.702  20.266  0.00  0.00    +0.000 OA
ATOM      3  N   UNL     1       1.731   8.479  18.129  0.00  0.00    +0.000 N 
ATOM      4  H   UNL     1       1.756   8.254  17.140  0.00  0.00    +0.000 HD
ENDROOT
BRANCH   1  11
ATOM      5  C   UNL     1       3.842   6.078  17.846  0.00  0.00    +0.000 A 
ATOM      6  C   UNL     1       4.342   4.786  17.582  0.00  0.00    +0.000 A 
ATOM      7  C   UNL     1       3.686   3.631  18.032  0.00  0.00    +0.000 A 
ATOM      8  C   UNL     1       2.452   3.786  18.675  0.00  0.00    +0.000 A 
ATOM      9 CL   UNL     1       1.532   2.406  19.163  0.00  0.00    +0.000 Cl
ATOM     10  C   UNL     1       1.962   5.055  18.976  0.00  0.00    +0.000 A 
ATOM     11  C   UNL     1       2.664   6.216  18.594  0.00  0.00    +0.000 A 
BRANCH   7  12
ATOM     12  N   UNL     1       4.168   2.369  17.641  0.00  0.00    +0.000 N 
ATOM     13  H   UNL     1       4.947   2.023  18.193  0.00  0.00    +0.000 HD
ATOM     14  H   UNL     1       3.422   1.680  17.548  0.00  0.00    +0.000 HD
ENDBRANCH   7  12
BRANCH   5  16
ATOM     15  C   UNL     1       5.857   7.019  17.060  0.00  0.00    +0.000 C 
ATOM     16  O   UNL     1       4.483   7.210  17.406  0.00  0.00    +0.000 OA
ENDBRANCH   5  16
ENDBRANCH   1  11
BRANCH   3  17
ATOM     17  C   UNL     1       1.513   9.845  18.592  0.00  0.00    +0.000 C 
ATOM     18  C   UNL     1       2.307  10.892  17.818  0.00  0.00    +0.000 C 
ATOM     19  C   UNL     1       2.213  12.211  18.589  0.00  0.00    +0.000 C 
ATOM     20  N   UNL     1       0.822  12.684  18.757  0.00  0.00    +0.000 NA
ATOM     21  C   UNL     1      -0.049  11.641  19.340  0.00  0.00    +0.000 C 
ATOM     22  C   UNL     1       0.051  10.285  18.619  0.00  0.00    +0.000 C 
BRANCH  20  23
ATOM     23  C   UNL     1       0.861  13.897  19.612  0.00  0.00    +0.000 C 
BRANCH  23  24
ATOM     24  C   UNL     1       0.845  15.227  18.889  0.00  0.00    +0.000 A 
ATOM     25  C   UNL     1      -0.373  15.882  18.646  0.00  0.00    +0.000 A 
ATOM     26  C   UNL     1      -0.398  17.145  18.052  0.00  0.00    +0.000 A 
ATOM     27  C   UNL     1       0.796  17.770  17.697  0.00  0.00    +0.000 A 
ATOM     28  C   UNL     1       2.012  17.130  17.933  0.00  0.00    +0.000 A 
ATOM     29  C   UNL     1       2.038  15.866  18.526  0.00  0.00    +0.000 A 
ENDBRANCH  23  24
ENDBRANCH  20  23
ENDBRANCH   3  17
TORSDOF 6
ENDMDL
MODEL 5
REMARK VINA RESULT:      -7.0      2.265      3.379
REMARK  Name = 
REMARK  7 active torsions:
REMARK  status: ('A' for Active; 'I' for Inactive)
REMARK    1  A    between atoms: C_1  and  O_2
REMARK    2  A    between atoms: O_2  and  C_3
REMARK    3  A    between atoms: C_5  and  N_6
REMARK    4  A    between atoms: C_10  and  C_11
REMARK    5  A    between atoms: N_13  and  C_14
REMARK    6  A    between atoms: N_17  and  C_18
REMARK    7  A    between atoms: C_18  and  C_19
REMARK                            x       y       z     vdW  Elec       q    Type
REMARK                         _______ _______ _______ _____ _____    ______ ____
ROOT
ATOM      1  C   UNL     1       2.015   7.876  19.196  0.00  0.00    +0.000 C 
ATOM      2  O   UNL     1       1.921   8.104  20.400  0.00  0.00    +0.000 OA
ATOM      3  N   UNL     1       1.603   8.796  18.246  0.00  0.00    +0.000 N 
ATOM      4  H   UNL     1       1.625   8.542  17.263  0.00  0.00    +0.000 HD
ENDROOT
BRANCH   1  11
ATOM      5  C   UNL     1       2.448   5.328  19.252  0.00  0.00    +0.000 A 
ATOM      6  C   UNL     1       3.098   4.226  18.658  0.00  0.00    +0.000 A 
ATOM      7  C   UNL     1       4.000   4.383  17.596  0.00  0.00    +0.000 A 
ATOM      8  C   UNL     1       4.324   5.684  17.196  0.00  0.00    +0.000 A 
ATOM      9 CL   UNL     1       5.509   5.962  15.967  0.00  0.00    +0.000 Cl
ATOM     10  C   UNL     1       3.665   6.782  17.747  0.00  0.00    +0.000 A 
ATOM     11  C   UNL     1       2.698   6.617  18.759  0.00  0.00    +0.000 A 
BRANCH   7  12
ATOM     12  N   UNL     1       4.704   3.261  17.120  0.00  0.00    +0.000 N 
ATOM     13  H   UNL     1       5.643   3.161  17.492  0.00  0.00    +0.000 HD
ATOM     14  H   UNL     1       4.162   2.401  17.197  0.00  0.00    +0.000 HD
ENDBRANCH   7  12
BRANCH   5  16
ATOM     15  C   UNL     1       1.179   3.825  20.554  0.00  0.00    +0.000 C 
ATOM     16  O   UNL     1       1.564   5.178  20.292  0.00  0.00    +0.000 OA
ENDBRANCH   5  16
ENDBRANCH   1  11
BRANCH   3  17
ATOM     17  C   UNL     1       1.302  10.158  18.672  0.00  0.00    +0.000 C 
ATOM     18  C   UNL     1       2.215  11.212  18.058  0.00  0.00    +0.000 C 
ATOM     19  C   UNL     1       1.981  12.526  18.809  0.00  0.00    +0.000 C 
ATOM     20  N   UNL     1       0.580  12.993  18.731  0.00  0.00    +0.000 NA
ATOM     21  C   UNL     1      -0.376  11.944  19.144  0.00  0.00    +0.000 C 
ATOM     22  C   UNL     1      -0.144  10.593  18.442  0.00  0.00    +0.000 C 
BRANCH  20  23
ATOM     23  C   UNL     1       0.462  14.200  19.587  0.00  0.00    +0.000 C 
BRANCH  23  24
ATOM     24  C   UNL     1       0.651  15.534  18.896  0.00  0.00    +0.000 A 
ATOM     25  C   UNL     1       1.939  15.969  18.546  0.00  0.00    +0.000 A 
ATOM     26  C   UNL     1       2.123  17.158  17.839  0.00  0.00    +0.000 A 
ATOM     27  C   UNL     1       1.020  17.925  17.469  0.00  0.00    +0.000 A 
ATOM     28  C   UNL     1      -0.265  17.504  17.811  0.00  0.00    +0.000 A 
ATOM     29  C   UNL     1      -0.450  16.315  18.519  0.00  0.00    +0.000 A 
ENDBRANCH  23  24
ENDBRANCH  20  23
ENDBRANCH   3  17
TORSDOF 6
ENDMDL
MODEL 6
REMARK VINA RESULT:      -7.0      1.682      2.910
REMARK  Name = 
REMARK  7 active torsions:
REMARK  status: ('A' for Active; 'I' for Inactive)
REMARK    1  A    between atoms: C_1  and  O_2
REMARK    2  A    between atoms: O_2  and  C_3
REMARK    3  A    between atoms: C_5  and  N_6
REMARK    4  A    between atoms: C_10  and  C_11
REMARK    5  A    between atoms: N_13  and  C_14
REMARK    6  A    between atoms: N_17  and  C_18
REMARK    7  A    between atoms: C_18  and  C_19
REMARK                            x       y       z     vdW  Elec       q    Type
REMARK                         _______ _______ _______ _____ _____    ______ ____
ROOT
ATOM      1  C   UNL     1       2.432   7.409  18.588  0.00  0.00    +0.000 C 
ATOM      2  O   UNL     1       2.235   7.423  19.801  0.00  0.00    +0.000 OA
ATOM      3  N   UNL     1       1.998   8.437  17.767  0.00  0.00    +0.000 N 
ATOM      4  H   UNL     1       2.110   8.354  16.762  0.00  0.00    +0.000 HD
ENDROOT
BRANCH   1  11
ATOM      5  C   UNL     1       2.826   4.992  17.762  0.00  0.00    +0.000 A 
ATOM      6  C   UNL     1       3.696   4.092  17.111  0.00  0.00    +0.000 A 
ATOM      7  C   UNL     1       4.990   4.465  16.719  0.00  0.00    +0.000 A 
ATOM      8  C   UNL     1       5.444   5.739  17.081  0.00  0.00    +0.000 A 
ATOM      9 CL   UNL     1       7.063   6.233  16.729  0.00  0.00    +0.000 Cl
ATOM     10  C   UNL     1       4.586   6.652  17.691  0.00  0.00    +0.000 A 
ATOM     11  C   UNL     1       3.259   6.302  18.012  0.00  0.00    +0.000 A 
BRANCH   7  12
ATOM     12  N   UNL     1       5.852   3.494  16.178  0.00  0.00    +0.000 N 
ATOM     13  H   UNL     1       6.126   3.659  15.215  0.00  0.00    +0.000 HD
ATOM     14  H   UNL     1       6.652   3.305  16.782  0.00  0.00    +0.000 HD
ENDBRANCH   7  12
BRANCH   5  16
ATOM     15  C   UNL     1       1.502   3.845  19.342  0.00  0.00    +0.000 C 
ATOM     16  O   UNL     1       1.559   4.629  18.147  0.00  0.00    +0.000 OA
ENDBRANCH   5  16
ENDBRANCH   1  11
BRANCH   3  17
ATOM     17  C   UNL     1       1.540   9.679  18.380  0.00  0.00    +0.000 C 
ATOM     18  C   UNL     1       2.287  10.917  17.897  0.00  0.00    +0.000 C 
ATOM     19  C   UNL     1       1.914  12.077  18.824  0.00  0.00    +0.000 C 
ATOM     20  N   UNL     1       0.463  12.361  18.837  0.00  0.00    +0.000 NA
ATOM     21  C   UNL     1      -0.334  11.149  19.123  0.00  0.00    +0.000 C 
ATOM     22  C   UNL     1       0.043   9.946  18.240  0.00  0.00    +0.000 C 
BRANCH  20  23
ATOM     23  C   UNL     1       0.222  13.418  19.852  0.00  0.00    +0.000 C 
BRANCH  23  24
ATOM     24  C   UNL     1       0.539  14.837  19.430  0.00  0.00    +0.000 A 
ATOM     25  C   UNL     1      -0.363  15.549  18.622  0.00  0.00    +0.000 A 
ATOM     26  C   UNL     1      -0.123  16.883  18.291  0.00  0.00    +0.000 A 
ATOM     27  C   UNL     1       1.020  17.523  18.765  0.00  0.00    +0.000 A 
ATOM     28  C   UNL     1       1.924  16.827  19.566  0.00  0.00    +0.000 A 
ATOM     29  C   UNL     1       1.686  15.491  19.898  0.00  0.00    +0.000 A 
ENDBRANCH  23  24
ENDBRANCH  20  23
ENDBRANCH   3  17
TORSDOF 6
ENDMDL
MODEL 7
REMARK VINA RESULT:      -7.0      2.275      3.064
REMARK  Name = 
REMARK  7 active torsions:
REMARK  status: ('A' for Active; 'I' for Inactive)
REMARK    1  A    between atoms: C_1  and  O_2
REMARK    2  A    between atoms: O_2  and  C_3
REMARK    3  A    between atoms: C_5  and  N_6
REMARK    4  A    between atoms: C_10  and  C_11
REMARK    5  A    between atoms: N_13  and  C_14
REMARK    6  A    between atoms: N_17  and  C_18
REMARK    7  A    between atoms: C_18  and  C_19
REMARK                            x       y       z     vdW  Elec       q    Type
REMARK                         _______ _______ _______ _____ _____    ______ ____
ROOT
ATOM      1  C   UNL     1       1.958   7.999  19.548  0.00  0.00    +0.000 C 
ATOM      2  O   UNL     1       1.391   8.719  18.727  0.00  0.00    +0.000 OA
ATOM      3  N   UNL     1       1.844   8.219  20.911  0.00  0.00    +0.000 N 
ATOM      4  H   UNL     1       2.387   7.652  21.554  0.00  0.00    +0.000 HD
ENDROOT
BRANCH   1  11
ATOM      5  C   UNL     1       2.651   5.510  19.619  0.00  0.00    +0.000 A 
ATOM      6  C   UNL     1       3.314   4.449  18.967  0.00  0.00    +0.000 A 
ATOM      7  C   UNL     1       4.027   4.641  17.776  0.00  0.00    +0.000 A 
ATOM      8  C   UNL     1       4.155   5.947  17.290  0.00  0.00    +0.000 A 
ATOM      9 CL   UNL     1       5.109   6.279  15.887  0.00  0.00    +0.000 Cl
ATOM     10  C   UNL     1       3.476   7.001  17.900  0.00  0.00    +0.000 A 
ATOM     11  C   UNL     1       2.692   6.792  19.052  0.00  0.00    +0.000 A 
BRANCH   7  12
ATOM     12  N   UNL     1       4.763   3.571  17.234  0.00  0.00    +0.000 N 
ATOM     13  H   UNL     1       4.202   2.784  16.925  0.00  0.00    +0.000 HD
ATOM     14  H   UNL     1       5.428   3.877  16.524  0.00  0.00    +0.000 HD
ENDBRANCH   7  12
BRANCH   5  16
ATOM     15  C   UNL     1       2.099   4.026  21.367  0.00  0.00    +0.000 C 
ATOM     16  O   UNL     1       1.951   5.324  20.785  0.00  0.00    +0.000 OA
ENDBRANCH   5  16
ENDBRANCH   1  11
BRANCH   3  17
ATOM     17  C   UNL     1       0.828   9.149  21.389  0.00  0.00    +0.000 C 
ATOM     18  C   UNL     1       0.618   9.110  22.899  0.00  0.00    +0.000 C 
ATOM     19  C   UNL     1      -0.655   9.901  23.213  0.00  0.00    +0.000 C 
ATOM     20  N   UNL     1      -0.583  11.310  22.770  0.00  0.00    +0.000 NA
ATOM     21  C   UNL     1      -0.202  11.422  21.346  0.00  0.00    +0.000 C 
ATOM     22  C   UNL     1       1.050  10.604  20.981  0.00  0.00    +0.000 C 
BRANCH  20  23
ATOM     23  C   UNL     1      -1.908  11.928  23.025  0.00  0.00    +0.000 C 
BRANCH  23  24
ATOM     24  C   UNL     1      -1.976  13.436  22.917  0.00  0.00    +0.000 A 
ATOM     25  C   UNL     1      -2.896  14.039  22.043  0.00  0.00    +0.000 A 
ATOM     26  C   UNL     1      -3.025  15.428  21.991  0.00  0.00    +0.000 A 
ATOM     27  C   UNL     1      -2.239  16.231  22.814  0.00  0.00    +0.000 A 
ATOM     28  C   UNL     1      -1.322  15.645  23.685  0.00  0.00    +0.000 A 
ATOM     29  C   UNL     1      -1.191  14.256  23.738  0.00  0.00    +0.000 A 
ENDBRANCH  23  24
ENDBRANCH  20  23
ENDBRANCH   3  17
TORSDOF 6
ENDMDL
MODEL 8
REMARK VINA RESULT:      -6.9      2.684      3.441
REMARK  Name = 
REMARK  7 active torsions:
REMARK  status: ('A' for Active; 'I' for Inactive)
REMARK    1  A    between atoms: C_1  and  O_2
REMARK    2  A    between atoms: O_2  and  C_3
REMARK    3  A    between atoms: C_5  and  N_6
REMARK    4  A    between atoms: C_10  and  C_11
REMARK    5  A    between atoms: N_13  and  C_14
REMARK    6  A    between atoms: N_17  and  C_18
REMARK    7  A    between atoms: C_18  and  C_19
REMARK                            x       y       z     vdW  Elec       q    Type
REMARK                         _______ _______ _______ _____ _____    ______ ____
ROOT
ATOM      1  C   UNL     1       2.228   7.297  19.625  0.00  0.00    +0.000 C 
ATOM      2  O   UNL     1       1.828   7.826  18.589  0.00  0.00    +0.000 OA
ATOM      3  N   UNL     1       1.939   7.827  20.872  0.00  0.00    +0.000 N 
ATOM      4  H   UNL     1       2.350   7.407  21.699  0.00  0.00    +0.000 HD
ENDROOT
BRANCH   1  11
ATOM      5  C   UNL     1       4.024   5.699  18.678  0.00  0.00    +0.000 A 
ATOM      6  C   UNL     1       4.667   4.447  18.782  0.00  0.00    +0.000 A 
ATOM      7  C   UNL     1       4.249   3.475  19.702  0.00  0.00    +0.000 A 
ATOM      8  C   UNL     1       3.100   3.736  20.457  0.00  0.00    +0.000 A 
ATOM      9 CL   UNL     1       2.460   2.544  21.534  0.00  0.00    +0.000 Cl
ATOM     10  C   UNL     1       2.475   4.980  20.393  0.00  0.00    +0.000 A 
ATOM     11  C   UNL     1       2.946   5.987  19.527  0.00  0.00    +0.000 A 
BRANCH   7  12
ATOM     12  N   UNL     1       4.853   2.204  19.682  0.00  0.00    +0.000 N 
ATOM     13  H   UNL     1       5.858   2.215  19.540  0.00  0.00    +0.000 HD
ATOM     14  H   UNL     1       4.579   1.631  20.480  0.00  0.00    +0.000 HD
ENDBRANCH   7  12
BRANCH   5  16
ATOM     15  C   UNL     1       5.254   6.157  16.718  0.00  0.00    +0.000 C 
ATOM     16  O   UNL     1       4.432   6.653  17.778  0.00  0.00    +0.000 OA
ENDBRANCH   5  16
ENDBRANCH   1  11
BRANCH   3  17
ATOM     17  C   UNL     1       0.927   8.872  20.973  0.00  0.00    +0.000 C 
ATOM     18  C   UNL     1       0.659   9.335  22.401  0.00  0.00    +0.000 C 
ATOM     19  C   UNL     1      -0.606  10.196  22.381  0.00  0.00    +0.000 C 
ATOM     20  N   UNL     1      -0.485  11.380  21.503  0.00  0.00    +0.000 NA
ATOM     21  C   UNL     1      -0.047  11.013  20.140  0.00  0.00    +0.000 C 
ATOM     22  C   UNL     1       1.199  10.109  20.119  0.00  0.00    +0.000 C 
BRANCH  20  23
ATOM     23  C   UNL     1      -1.805  12.060  21.483  0.00  0.00    +0.000 C 
BRANCH  23  24
ATOM     24  C   UNL     1      -2.096  12.992  22.639  0.00  0.00    +0.000 A 
ATOM     25  C   UNL     1      -3.305  12.881  23.346  0.00  0.00    +0.000 A 
ATOM     26  C   UNL     1      -3.555  13.679  24.463  0.00  0.00    +0.000 A 
ATOM     27  C   UNL     1      -2.597  14.597  24.890  0.00  0.00    +0.000 A 
ATOM     28  C   UNL     1      -1.393  14.718  24.196  0.00  0.00    +0.000 A 
ATOM     29  C   UNL     1      -1.143  13.921  23.078  0.00  0.00    +0.000 A 
ENDBRANCH  23  24
ENDBRANCH  20  23
ENDBRANCH   3  17
TORSDOF 6
ENDMDL
MODEL 9
REMARK VINA RESULT:      -6.9      1.976      2.600
REMARK  Name = 
REMARK  7 active torsions:
REMARK  status: ('A' for Active; 'I' for Inactive)
REMARK    1  A    between atoms: C_1  and  O_2
REMARK    2  A    between atoms: O_2  and  C_3
REMARK    3  A    between atoms: C_5  and  N_6
REMARK    4  A    between atoms: C_10  and  C_11
REMARK    5  A    between atoms: N_13  and  C_14
REMARK    6  A    between atoms: N_17  and  C_18
REMARK    7  A    between atoms: C_18  and  C_19
REMARK                            x       y       z     vdW  Elec       q    Type
REMARK                         _______ _______ _______ _____ _____    ______ ____
ROOT
ATOM      1  C   UNL     1       2.393   7.731  19.373  0.00  0.00    +0.000 C 
ATOM      2  O   UNL     1       2.315   8.629  18.537  0.00  0.00    +0.000 OA
ATOM      3  N   UNL     1       1.927   7.897  20.667  0.00  0.00    +0.000 N 
ATOM      4  H   UNL     1       2.080   7.161  21.350  0.00  0.00    +0.000 HD
ENDROOT
BRANCH   1  11
ATOM      5  C   UNL     1       2.605   5.160  19.535  0.00  0.00    +0.000 A 
ATOM      6  C   UNL     1       3.077   3.973  18.936  0.00  0.00    +0.000 A 
ATOM      7  C   UNL     1       3.851   3.989  17.767  0.00  0.00    +0.000 A 
ATOM      8  C   UNL     1       4.236   5.233  17.252  0.00  0.00    +0.000 A 
ATOM      9 CL   UNL     1       5.278   5.335  15.876  0.00  0.00    +0.000 Cl
ATOM     10  C   UNL     1       3.748   6.414  17.809  0.00  0.00    +0.000 A 
ATOM     11  C   UNL     1       2.904   6.393  18.936  0.00  0.00    +0.000 A 
BRANCH   7  12
ATOM     12  N   UNL     1       4.390   2.784  17.281  0.00  0.00    +0.000 N 
ATOM     13  H   UNL     1       4.331   2.003  17.926  0.00  0.00    +0.000 HD
ATOM     14  H   UNL     1       4.039   2.548  16.353  0.00  0.00    +0.000 HD
ENDBRANCH   7  12
BRANCH   5  16
ATOM     15  C   UNL     1       1.885   3.913  21.403  0.00  0.00    +0.000 C 
ATOM     16  O   UNL     1       1.848   5.146  20.679  0.00  0.00    +0.000 OA
ENDBRANCH   5  16
ENDBRANCH   1  11
BRANCH   3  17
ATOM     17  C   UNL     1       1.093   9.054  20.969  0.00  0.00    +0.000 C 
ATOM     18  C   UNL     1      -0.045   9.269  19.978  0.00  0.00    +0.000 C 
ATOM     19  C   UNL     1      -0.638  10.655  20.244  0.00  0.00    +0.000 C 
ATOM     20  N   UNL     1      -1.160  10.806  21.620  0.00  0.00    +0.000 NA
ATOM     21  C   UNL     1      -0.152  10.433  22.635  0.00  0.00    +0.000 C 
ATOM     22  C   UNL     1       0.500   9.063  22.377  0.00  0.00    +0.000 C 
BRANCH  20  23
ATOM     23  C   UNL     1      -1.596  12.215  21.782  0.00  0.00    +0.000 C 
BRANCH  23  24
ATOM     24  C   UNL     1      -2.965  12.427  22.392  0.00  0.00    +0.000 A 
ATOM     25  C   UNL     1      -3.144  12.309  23.780  0.00  0.00    +0.000 A 
ATOM     26  C   UNL     1      -4.382  12.578  24.365  0.00  0.00    +0.000 A 
ATOM     27  C   UNL     1      -5.456  12.973  23.569  0.00  0.00    +0.000 A 
ATOM     28  C   UNL     1      -5.292  13.094  22.190  0.00  0.00    +0.000 A 
ATOM     29  C   UNL     1      -4.054  12.823  21.604  0.00  0.00    +0.000 A 
ENDBRANCH  23  24
ENDBRANCH  20  23
ENDBRANCH   3  17
TORSDOF 6
ENDMDL
