MODEL 1
REMARK VINA RESULT:      -7.3      0.000      0.000
REMARK  Name = 
REMARK  6 active torsions:
REMARK  status: ('A' for Active; 'I' for Inactive)
REMARK    1  A    between atoms: C_2  and  O_3
REMARK    2  A    between atoms: C_2  and  C_4
REMARK    3  A    between atoms: C_4  and  N_5
REMARK    4  A    between atoms: C_6  and  C_8
REMARK    5  A    between atoms: N_10  and  C_11
REMARK    6  A    between atoms: C_11  and  C_12
REMARK                            x       y       z     vdW  Elec       q    Type
REMARK                         _______ _______ _______ _____ _____    ______ ____
ROOT
ATOM      1  C   UNL     1       6.889   4.466  16.178  0.00  0.00    +0.000 C 
ATOM      2  O   UNL     1       7.894   4.352  16.869  0.00  0.00    +0.000 OA
ATOM      3  N   UNL     1       5.589   4.481  16.617  0.00  0.00    +0.000 N 
ATOM      4  H   UNL     1       4.856   4.580  15.923  0.00  0.00    +0.000 HD
ENDROOT
BRANCH   1   6
ATOM      5  N   UNL     1       6.350   3.646  13.950  0.00  0.00    +0.000 N 
ATOM      6  C   UNL     1       7.062   4.602  14.649  0.00  0.00    +0.000 C 
ATOM      7  O   UNL     1       7.759   5.481  14.169  0.00  0.00    +0.000 OA
ATOM      8  H   UNL     1       5.842   3.003  14.549  0.00  0.00    +0.000 HD
BRANCH   5   9
ATOM      9  C   UNL     1       6.395   3.603  12.499  0.00  0.00    +0.000 C 
BRANCH   9  11
ATOM     10  O   UNL     1       5.702   1.569  11.386  0.00  0.00    +0.000 OA
ATOM     11  C   UNL     1       5.418   2.708  11.736  0.00  0.00    +0.000 C 
BRANCH  11  12
ATOM     12  O   UNL     1       4.209   3.242  11.466  0.00  0.00    +0.000 OA
ATOM     13  H   UNL     1       3.732   2.828  10.732  0.00  0.00    +0.000 HD
ENDBRANCH  11  12
ENDBRANCH   9  11
ENDBRANCH   5   9
ENDBRANCH   1   6
BRANCH   3  14
ATOM     14  C   UNL     1       5.253   4.353  18.015  0.00  0.00    +0.000 C 
BRANCH  14  15
ATOM     15  C   UNL     1       3.867   3.794  18.203  0.00  0.00    +0.000 A 
ATOM     16  C   UNL     1       3.672   2.517  18.748  0.00  0.00    +0.000 A 
ATOM     17  C   UNL     1       2.384   2.003  18.908  0.00  0.00    +0.000 A 
ATOM     18  C   UNL     1       1.277   2.758  18.522  0.00  0.00    +0.000 A 
ATOM     19  C   UNL     1       1.456   4.027  17.978  0.00  0.00    +0.000 A 
ATOM     20  C   UNL     1       2.744   4.542  17.815  0.00  0.00    +0.000 A 
ENDBRANCH  14  15
ENDBRANCH   3  14
TORSDOF 6
ENDMDL
MODEL 2
REMARK VINA RESULT:      -7.1      0.797      1.112
REMARK  Name = 
REMARK  6 active torsions:
REMARK  status: ('A' for Active; 'I' for Inactive)
REMARK    1  A    between atoms: C_2  and  O_3
REMARK    2  A    between atoms: C_2  and  C_4
REMARK    3  A    between atoms: C_4  and  N_5
REMARK    4  A    between atoms: C_6  and  C_8
REMARK    5  A    between atoms: N_10  and  C_11
REMARK    6  A    between atoms: C_11  and  C_12
REMARK                            x       y       z     vdW  Elec       q    Type
REMARK                         _______ _______ _______ _____ _____    ______ ____
ROOT
ATOM      1  C   UNL     1       6.597   5.068  15.725  0.00  0.00    +0.000 C 
ATOM      2  O   UNL     1       6.807   6.177  16.203  0.00  0.00    +0.000 OA
ATOM      3  N   UNL     1       6.038   3.992  16.367  0.00  0.00    +0.000 N 
ATOM      4  H   UNL     1       5.929   3.132  15.840  0.00  0.00    +0.000 HD
ENDROOT
BRANCH   1   6
ATOM      5  N   UNL     1       6.265   3.797  13.676  0.00  0.00    +0.000 N 
ATOM      6  C   UNL     1       6.997   4.816  14.255  0.00  0.00    +0.000 C 
ATOM      7  O   UNL     1       7.866   5.480  13.716  0.00  0.00    +0.000 OA
ATOM      8  H   UNL     1       5.596   3.370  14.310  0.00  0.00    +0.000 HD
BRANCH   5   9
ATOM      9  C   UNL     1       6.504   3.404  12.299  0.00  0.00    +0.000 C 
BRANCH   9  11
ATOM     10  O   UNL     1       4.415   2.733  11.278  0.00  0.00    +0.000 OA
ATOM     11  C   UNL     1       5.551   2.423  11.614  0.00  0.00    +0.000 C 
BRANCH  11  12
ATOM     12  O   UNL     1       6.033   1.183  11.392  0.00  0.00    +0.000 OA
ATOM     13  H   UNL     1       6.674   0.869  12.047  0.00  0.00    +0.000 HD
ENDBRANCH  11  12
ENDBRANCH   9  11
ENDBRANCH   5   9
ENDBRANCH   1   6
BRANCH   3  14
ATOM     14  C   UNL     1       5.619   4.056  17.747  0.00  0.00    +0.000 C 
BRANCH  14  15
ATOM     15  C   UNL     1       4.137   3.829  17.888  0.00  0.00    +0.000 A 
ATOM     16  C   UNL     1       3.612   2.531  17.961  0.00  0.00    +0.000 A 
ATOM     17  C   UNL     1       2.235   2.330  18.081  0.00  0.00    +0.000 A 
ATOM     18  C   UNL     1       1.369   3.421  18.125  0.00  0.00    +0.000 A 
ATOM     19  C   UNL     1       1.878   4.715  18.052  0.00  0.00    +0.000 A 
ATOM     20  C   UNL     1       3.254   4.919  17.929  0.00  0.00    +0.000 A 
ENDBRANCH  14  15
ENDBRANCH   3  14
TORSDOF 6
ENDMDL
MODEL 3
REMARK VINA RESULT:      -7.0      0.706      1.526
REMARK  Name = 
REMARK  6 active torsions:
REMARK  status: ('A' for Active; 'I' for Inactive)
REMARK    1  A    between atoms: C_2  and  O_3
REMARK    2  A    between atoms: C_2  and  C_4
REMARK    3  A    between atoms: C_4  and  N_5
REMARK    4  A    between atoms: C_6  and  C_8
REMARK    5  A    between atoms: N_10  and  C_11
REMARK    6  A    between atoms: C_11  and  C_12
REMARK                            x       y       z     vdW  Elec       q    Type
REMARK                         _______ _______ _______ _____ _____    ______ ____
ROOT
ATOM      1  C   UNL     1       6.707   4.827  15.959  0.00  0.00    +0.000 C 
ATOM      2  O   UNL     1       7.588   4.508  16.748  0.00  0.00    +0.000 OA
ATOM      3  N   UNL     1       5.444   5.262  16.273  0.00  0.00    +0.000 N 
ATOM      4  H   UNL     1       4.818   5.488  15.508  0.00  0.00    +0.000 HD
ENDROOT
BRANCH   1   6
ATOM      5  N   UNL     1       6.292   3.731  13.825  0.00  0.00    +0.000 N 
ATOM      6  C   UNL     1       7.009   4.736  14.447  0.00  0.00    +0.000 C 
ATOM      7  O   UNL     1       7.798   5.499  13.915  0.00  0.00    +0.000 OA
ATOM      8  H   UNL     1       5.697   3.208  14.460  0.00  0.00    +0.000 HD
BRANCH   5   9
ATOM      9  C   UNL     1       6.448   3.483  12.403  0.00  0.00    +0.000 C 
BRANCH   9  11
ATOM     10  O   UNL     1       4.344   2.908  11.354  0.00  0.00    +0.000 OA
ATOM     11  C   UNL     1       5.469   2.554  11.684  0.00  0.00    +0.000 C 
BRANCH  11  12
ATOM     12  O   UNL     1       5.914   1.306  11.426  0.00  0.00    +0.000 OA
ATOM     13  H   UNL     1       6.801   1.258  11.041  0.00  0.00    +0.000 HD
ENDBRANCH  11  12
ENDBRANCH   9  11
ENDBRANCH   5   9
ENDBRANCH   1   6
BRANCH   3  14
ATOM     14  C   UNL     1       4.997   5.392  17.640  0.00  0.00    +0.000 C 
BRANCH  14  15
ATOM     15  C   UNL     1       4.197   4.193  18.077  0.00  0.00    +0.000 A 
ATOM     16  C   UNL     1       3.015   3.835  17.415  0.00  0.00    +0.000 A 
ATOM     17  C   UNL     1       2.274   2.728  17.834  0.00  0.00    +0.000 A 
ATOM     18  C   UNL     1       2.704   1.969  18.922  0.00  0.00    +0.000 A 
ATOM     19  C   UNL     1       3.876   2.315  19.590  0.00  0.00    +0.000 A 
ATOM     20  C   UNL     1       4.618   3.423  19.174  0.00  0.00    +0.000 A 
ENDBRANCH  14  15
ENDBRANCH   3  14
TORSDOF 6
ENDMDL
MODEL 4
REMARK VINA RESULT:      -6.9      0.674      1.346
REMARK  Name = 
REMARK  6 active torsions:
REMARK  status: ('A' for Active; 'I' for Inactive)
REMARK    1  A    between atoms: C_2  and  O_3
REMARK    2  A    between atoms: C_2  and  C_4
REMARK    3  A    between atoms: C_4  and  N_5
REMARK    4  A    between atoms: C_6  and  C_8
REMARK    5  A    between atoms: N_10  and  C_11
REMARK    6  A    between atoms: C_11  and  C_12
REMARK                            x       y       z     vdW  Elec       q    Type
REMARK                         _______ _______ _______ _____ _____    ______ ____
ROOT
ATOM      1  C   UNL     1       6.442   5.125  15.933  0.00  0.00    +0.000 C 
ATOM      2  O   UNL     1       6.542   6.266  16.367  0.00  0.00    +0.000 OA
ATOM      3  N   UNL     1       5.953   4.032  16.604  0.00  0.00    +0.000 N 
ATOM      4  H   UNL     1       5.935   3.145  16.113  0.00  0.00    +0.000 HD
ENDROOT
BRANCH   1   6
ATOM      5  N   UNL     1       6.188   3.835  13.884  0.00  0.00    +0.000 N 
ATOM      6  C   UNL     1       6.911   4.846  14.488  0.00  0.00    +0.000 C 
ATOM      7  O   UNL     1       7.821   5.485  13.987  0.00  0.00    +0.000 OA
ATOM      8  H   UNL     1       5.479   3.430  14.487  0.00  0.00    +0.000 HD
BRANCH   5   9
ATOM      9  C   UNL     1       6.489   3.421  12.525  0.00  0.00    +0.000 C 
BRANCH   9  11
ATOM     10  O   UNL     1       5.674   1.491  11.313  0.00  0.00    +0.000 OA
ATOM     11  C   UNL     1       5.456   2.622  11.730  0.00  0.00    +0.000 C 
BRANCH  11  12
ATOM     12  O   UNL     1       4.273   3.233  11.509  0.00  0.00    +0.000 OA
ATOM     13  H   UNL     1       4.297   4.200  11.546  0.00  0.00    +0.000 HD
ENDBRANCH  11  12
ENDBRANCH   9  11
ENDBRANCH   5   9
ENDBRANCH   1   6
BRANCH   3  14
ATOM     14  C   UNL     1       5.485   4.119  17.967  0.00  0.00    +0.000 C 
BRANCH  14  15
ATOM     15  C   UNL     1       4.028   3.752  18.076  0.00  0.00    +0.000 A 
ATOM     16  C   UNL     1       3.028   4.649  17.676  0.00  0.00    +0.000 A 
ATOM     17  C   UNL     1       1.679   4.305  17.791  0.00  0.00    +0.000 A 
ATOM     18  C   UNL     1       1.316   3.063  18.310  0.00  0.00    +0.000 A 
ATOM     19  C   UNL     1       2.299   2.164  18.713  0.00  0.00    +0.000 A 
ATOM     20  C   UNL     1       3.649   2.507  18.601  0.00  0.00    +0.000 A 
ENDBRANCH  14  15
ENDBRANCH   3  14
TORSDOF 6
ENDMDL
MODEL 5
REMARK VINA RESULT:      -6.9      0.695      1.447
REMARK  Name = 
REMARK  6 active torsions:
REMARK  status: ('A' for Active; 'I' for Inactive)
REMARK    1  A    between atoms: C_2  and  O_3
REMARK    2  A    between atoms: C_2  and  C_4
REMARK    3  A    between atoms: C_4  and  N_5
REMARK    4  A    between atoms: C_6  and  C_8
REMARK    5  A    between atoms: N_10  and  C_11
REMARK    6  A    between atoms: C_11  and  C_12
REMARK                            x       y       z     vdW  Elec       q    Type
REMARK                         _______ _______ _______ _____ _____    ______ ____
ROOT
ATOM      1  C   UNL     1       6.873   4.355  16.074  0.00  0.00    +0.000 C 
ATOM      2  O   UNL     1       7.860   4.512  16.782  0.00  0.00    +0.000 OA
ATOM      3  N   UNL     1       5.609   4.023  16.493  0.00  0.00    +0.000 N 
ATOM      4  H   UNL     1       4.888   3.923  15.786  0.00  0.00    +0.000 HD
ENDROOT
BRANCH   1   6
ATOM      5  N   UNL     1       6.302   3.603  13.831  0.00  0.00    +0.000 N 
ATOM      6  C   UNL     1       7.029   4.533  14.548  0.00  0.00    +0.000 C 
ATOM      7  O   UNL     1       7.728   5.419  14.085  0.00  0.00    +0.000 OA
ATOM      8  H   UNL     1       5.795   2.947  14.418  0.00  0.00    +0.000 HD
BRANCH   5   9
ATOM      9  C   UNL     1       6.329   3.601  12.379  0.00  0.00    +0.000 C 
BRANCH   9  11
ATOM     10  O   UNL     1       7.725   2.081  11.114  0.00  0.00    +0.000 OA
ATOM     11  C   UNL     1       6.636   2.305  11.627  0.00  0.00    +0.000 C 
BRANCH  11  12
ATOM     12  O   UNL     1       5.632   1.406  11.559  0.00  0.00    +0.000 OA
ATOM     13  H   UNL     1       5.910   0.493  11.393  0.00  0.00    +0.000 HD
ENDBRANCH  11  12
ENDBRANCH   9  11
ENDBRANCH   5   9
ENDBRANCH   1   6
BRANCH   3  14
ATOM     14  C   UNL     1       5.295   3.808  17.885  0.00  0.00    +0.000 C 
BRANCH  14  15
ATOM     15  C   UNL     1       3.834   3.502  18.084  0.00  0.00    +0.000 A 
ATOM     16  C   UNL     1       2.848   4.430  17.721  0.00  0.00    +0.000 A 
ATOM     17  C   UNL     1       1.496   4.142  17.919  0.00  0.00    +0.000 A 
ATOM     18  C   UNL     1       1.115   2.926  18.483  0.00  0.00    +0.000 A 
ATOM     19  C   UNL     1       2.085   1.995  18.849  0.00  0.00    +0.000 A 
ATOM     20  C   UNL     1       3.438   2.283  18.655  0.00  0.00    +0.000 A 
ENDBRANCH  14  15
ENDBRANCH   3  14
TORSDOF 6
ENDMDL
MODEL 6
REMARK VINA RESULT:      -6.9      1.281      1.825
REMARK  Name = 
REMARK  6 active torsions:
REMARK  status: ('A' for Active; 'I' for Inactive)
REMARK    1  A    between atoms: C_2  and  O_3
REMARK    2  A    between atoms: C_2  and  C_4
REMARK    3  A    between atoms: C_4  and  N_5
REMARK    4  A    between atoms: C_6  and  C_8
REMARK    5  A    between atoms: N_10  and  C_11
REMARK    6  A    between atoms: C_11  and  C_12
REMARK                            x       y       z     vdW  Elec       q    Type
REMARK                         _______ _______ _______ _____ _____    ______ ____
ROOT
ATOM      1  C   UNL     1       6.718   4.476  17.518  0.00  0.00    +0.000 C 
ATOM      2  O   UNL     1       7.679   4.443  18.278  0.00  0.00    +0.000 OA
ATOM      3  N   UNL     1       5.427   4.118  17.814  0.00  0.00    +0.000 N 
ATOM      4  H   UNL     1       4.734   4.196  17.077  0.00  0.00    +0.000 HD
ENDROOT
BRANCH   1   6
ATOM      5  N   UNL     1       6.476   4.055  15.133  0.00  0.00    +0.000 N 
ATOM      6  C   UNL     1       6.947   4.957  16.068  0.00  0.00    +0.000 C 
ATOM      7  O   UNL     1       7.484   6.027  15.836  0.00  0.00    +0.000 OA
ATOM      8  H   UNL     1       6.071   3.220  15.546  0.00  0.00    +0.000 HD
BRANCH   5   9
ATOM      9  C   UNL     1       6.609   4.325  13.712  0.00  0.00    +0.000 C 
BRANCH   9  11
ATOM     10  O   UNL     1       4.697   3.588  12.424  0.00  0.00    +0.000 OA
ATOM     11  C   UNL     1       5.881   3.439  12.701  0.00  0.00    +0.000 C 
BRANCH  11  12
ATOM     12  O   UNL     1       6.619   2.471  12.118  0.00  0.00    +0.000 OA
ATOM     13  H   UNL     1       7.443   2.251  12.577  0.00  0.00    +0.000 HD
ENDBRANCH  11  12
ENDBRANCH   9  11
ENDBRANCH   5   9
ENDBRANCH   1   6
BRANCH   3  14
ATOM     14  C   UNL     1       5.046   3.636  19.120  0.00  0.00    +0.000 C 
BRANCH  14  15
ATOM     15  C   UNL     1       3.562   3.401  19.213  0.00  0.00    +0.000 A 
ATOM     16  C   UNL     1       2.727   3.620  18.108  0.00  0.00    +0.000 A 
ATOM     17  C   UNL     1       1.350   3.409  18.207  0.00  0.00    +0.000 A 
ATOM     18  C   UNL     1       0.792   2.981  19.410  0.00  0.00    +0.000 A 
ATOM     19  C   UNL     1       1.610   2.760  20.515  0.00  0.00    +0.000 A 
ATOM     20  C   UNL     1       2.987   2.973  20.420  0.00  0.00    +0.000 A 
ENDBRANCH  14  15
ENDBRANCH   3  14
TORSDOF 6
ENDMDL
MODEL 7
REMARK VINA RESULT:      -6.8      1.296      1.623
REMARK  Name = 
REMARK  6 active torsions:
REMARK  status: ('A' for Active; 'I' for Inactive)
REMARK    1  A    between atoms: C_2  and  O_3
REMARK    2  A    between atoms: C_2  and  C_4
REMARK    3  A    between atoms: C_4  and  N_5
REMARK    4  A    between atoms: C_6  and  C_8
REMARK    5  A    between atoms: N_10  and  C_11
REMARK    6  A    between atoms: C_11  and  C_12
REMARK                            x       y       z     vdW  Elec       q    Type
REMARK                         _______ _______ _______ _____ _____    ______ ____
ROOT
ATOM      1  C   UNL     1       5.425   5.755  15.859  0.00  0.00    +0.000 C 
ATOM      2  O   UNL     1       5.273   6.968  15.781  0.00  0.00    +0.000 OA
ATOM      3  N   UNL     1       4.884   4.921  16.805  0.00  0.00    +0.000 N 
ATOM      4  H   UNL     1       5.102   3.932  16.744  0.00  0.00    +0.000 HD
ENDROOT
BRANCH   1   6
ATOM      5  N   UNL     1       5.588   4.264  13.941  0.00  0.00    +0.000 N 
ATOM      6  C   UNL     1       6.316   5.058  14.807  0.00  0.00    +0.000 C 
ATOM      7  O   UNL     1       7.522   5.233  14.789  0.00  0.00    +0.000 OA
ATOM      8  H   UNL     1       4.593   4.255  14.143  0.00  0.00    +0.000 HD
BRANCH   5   9
ATOM      9  C   UNL     1       6.251   3.518  12.887  0.00  0.00    +0.000 C 
BRANCH   9  11
ATOM     10  O   UNL     1       4.354   3.129  11.435  0.00  0.00    +0.000 OA
ATOM     11  C   UNL     1       5.417   2.720  11.884  0.00  0.00    +0.000 C 
BRANCH  11  12
ATOM     12  O   UNL     1       5.921   1.525  11.511  0.00  0.00    +0.000 OA
ATOM     13  H   UNL     1       5.428   1.072  10.811  0.00  0.00    +0.000 HD
ENDBRANCH  11  12
ENDBRANCH   9  11
ENDBRANCH   5   9
ENDBRANCH   1   6
BRANCH   3  14
ATOM     14  C   UNL     1       4.038   5.413  17.866  0.00  0.00    +0.000 C 
BRANCH  14  15
ATOM     15  C   UNL     1       3.007   4.393  18.271  0.00  0.00    +0.000 A 
ATOM     16  C   UNL     1       2.958   3.134  17.656  0.00  0.00    +0.000 A 
ATOM     17  C   UNL     1       1.991   2.198  18.030  0.00  0.00    +0.000 A 
ATOM     18  C   UNL     1       1.061   2.511  19.019  0.00  0.00    +0.000 A 
ATOM     19  C   UNL     1       1.097   3.759  19.637  0.00  0.00    +0.000 A 
ATOM     20  C   UNL     1       2.061   4.697  19.263  0.00  0.00    +0.000 A 
ENDBRANCH  14  15
ENDBRANCH   3  14
TORSDOF 6
ENDMDL
MODEL 8
REMARK VINA RESULT:      -6.8      1.997      3.008
REMARK  Name = 
REMARK  6 active torsions:
REMARK  status: ('A' for Active; 'I' for Inactive)
REMARK    1  A    between atoms: C_2  and  O_3
REMARK    2  A    between atoms: C_2  and  C_4
REMARK    3  A    between atoms: C_4  and  N_5
REMARK    4  A    between atoms: C_6  and  C_8
REMARK    5  A    between atoms: N_10  and  C_11
REMARK    6  A    between atoms: C_11  and  C_12
REMARK                            x       y       z     vdW  Elec       q    Type
REMARK                         _______ _______ _______ _____ _____    ______ ____
ROOT
ATOM      1  C   UNL     1       5.930   4.448  18.762  0.00  0.00    +0.000 C 
ATOM      2  O   UNL     1       6.160   5.068  19.794  0.00  0.00    +0.000 OA
ATOM      3  N   UNL     1       5.268   3.251  18.657  0.00  0.00    +0.000 N 
ATOM      4  H   UNL     1       5.155   2.853  17.730  0.00  0.00    +0.000 HD
ENDROOT
BRANCH   1   6
ATOM      5  N   UNL     1       5.459   5.004  16.440  0.00  0.00    +0.000 N 
ATOM      6  C   UNL     1       6.428   5.038  17.425  0.00  0.00    +0.000 C 
ATOM      7  O   UNL     1       7.560   5.477  17.312  0.00  0.00    +0.000 OA
ATOM      8  H   UNL     1       4.586   4.586  16.747  0.00  0.00    +0.000 HD
BRANCH   5   9
ATOM      9  C   UNL     1       5.741   5.506  15.107  0.00  0.00    +0.000 C 
BRANCH   9  11
ATOM     10  O   UNL     1       7.826   5.334  13.889  0.00  0.00    +0.000 OA
ATOM     11  C   UNL     1       6.779   4.800  14.234  0.00  0.00    +0.000 C 
BRANCH  11  12
ATOM     12  O   UNL     1       6.482   3.538  13.860  0.00  0.00    +0.000 OA
ATOM     13  H   UNL     1       7.014   2.848  14.283  0.00  0.00    +0.000 HD
ENDBRANCH  11  12
ENDBRANCH   9  11
ENDBRANCH   5   9
ENDBRANCH   1   6
BRANCH   3  14
ATOM     14  C   UNL     1       4.749   2.559  19.813  0.00  0.00    +0.000 C 
BRANCH  14  15
ATOM     15  C   UNL     1       3.249   2.671  19.899  0.00  0.00    +0.000 A 
ATOM     16  C   UNL     1       2.443   2.417  18.781  0.00  0.00    +0.000 A 
ATOM     17  C   UNL     1       1.054   2.535  18.867  0.00  0.00    +0.000 A 
ATOM     18  C   UNL     1       0.456   2.909  20.069  0.00  0.00    +0.000 A 
ATOM     19  C   UNL     1       1.246   3.166  21.187  0.00  0.00    +0.000 A 
ATOM     20  C   UNL     1       2.636   3.052  21.102  0.00  0.00    +0.000 A 
ENDBRANCH  14  15
ENDBRANCH   3  14
TORSDOF 6
ENDMDL
MODEL 9
REMARK VINA RESULT:      -6.7      1.685      2.346
REMARK  Name = 
REMARK  6 active torsions:
REMARK  status: ('A' for Active; 'I' for Inactive)
REMARK    1  A    between atoms: C_2  and  O_3
REMARK    2  A    between atoms: C_2  and  C_4
REMARK    3  A    between atoms: C_4  and  N_5
REMARK    4  A    between atoms: C_6  and  C_8
REMARK    5  A    between atoms: N_10  and  C_11
REMARK    6  A    between atoms: C_11  and  C_12
REMARK                            x       y       z     vdW  Elec       q    Type
REMARK                         _______ _______ _______ _____ _____    ______ ____
ROOT
ATOM      1  C   UNL     1       6.892   4.556  16.086  0.00  0.00    +0.000 C 
ATOM      2  O   UNL     1       7.857   4.483  16.838  0.00  0.00    +0.000 OA
ATOM      3  N   UNL     1       5.569   4.552  16.448  0.00  0.00    +0.000 N 
ATOM      4  H   UNL     1       4.876   4.616  15.709  0.00  0.00    +0.000 HD
ENDROOT
BRANCH   1   6
ATOM      5  N   UNL     1       6.373   3.778  13.838  0.00  0.00    +0.000 N 
ATOM      6  C   UNL     1       7.153   4.656  14.567  0.00  0.00    +0.000 C 
ATOM      7  O   UNL     1       7.967   5.446  14.117  0.00  0.00    +0.000 OA
ATOM      8  H   UNL     1       5.768   3.202  14.415  0.00  0.00    +0.000 HD
BRANCH   5   9
ATOM      9  C   UNL     1       6.483   3.716  12.391  0.00  0.00    +0.000 C 
BRANCH   9  11
ATOM     10  O   UNL     1       5.022   2.084  11.362  0.00  0.00    +0.000 OA
ATOM     11  C   UNL     1       6.163   2.411  11.662  0.00  0.00    +0.000 C 
BRANCH  11  12
ATOM     12  O   UNL     1       7.218   1.625  11.360  0.00  0.00    +0.000 OA
ATOM     13  H   UNL     1       6.992   0.755  11.001  0.00  0.00    +0.000 HD
ENDBRANCH  11  12
ENDBRANCH   9  11
ENDBRANCH   5   9
ENDBRANCH   1   6
BRANCH   3  14
ATOM     14  C   UNL     1       5.153   4.453  17.826  0.00  0.00    +0.000 C 
BRANCH  14  15
ATOM     15  C   UNL     1       4.186   5.547  18.194  0.00  0.00    +0.000 A 
ATOM     16  C   UNL     1       3.361   5.431  19.321  0.00  0.00    +0.000 A 
ATOM     17  C   UNL     1       2.459   6.446  19.648  0.00  0.00    +0.000 A 
ATOM     18  C   UNL     1       2.369   7.585  18.851  0.00  0.00    +0.000 A 
ATOM     19  C   UNL     1       3.182   7.713  17.727  0.00  0.00    +0.000 A 
ATOM     20  C   UNL     1       4.083   6.698  17.397  0.00  0.00    +0.000 A 
ENDBRANCH  14  15
ENDBRANCH   3  14
TORSDOF 6
ENDMDL
