MODEL 1
REMARK VINA RESULT:      -6.3      0.000      0.000
REMARK  Name = 
REMARK  10 active torsions:
REMARK  status: ('A' for Active; 'I' for Inactive)
REMARK    1  A    between atoms: C_1  and  C_2
REMARK    2  A    between atoms: C_2  and  N_3
REMARK    3  A    between atoms: C_4  and  S_5
REMARK    4  A    between atoms: S_5  and  C_6
REMARK    5  A    between atoms: C_6  and  C_7
REMARK    6  A    between atoms: N_9  and  C_10
REMARK    7  A    between atoms: C_12  and  C_13
REMARK    8  A    between atoms: C_14  and  C_15
REMARK    9  A    between atoms: C_16  and  C_17
REMARK   10  A    between atoms: C_21  and  C_22
REMARK                            x       y       z     vdW  Elec       q    Type
REMARK                         _______ _______ _______ _____ _____    ______ ____
ROOT
ATOM      1  C   UNL     1       2.165   4.967  19.472  0.00  0.00    +0.000 C 
ATOM      2  O   UNL     1       1.384   5.043  18.523  0.00  0.00    +0.000 OA
ATOM      3  N   UNL     1       2.460   6.028  20.312  0.00  0.00    +0.000 N 
ATOM      4  H   UNL     1       3.387   6.004  20.723  0.00  0.00    +0.000 HD
ENDROOT
BRANCH   3   5
ATOM      5  C   UNL     1       1.921   7.281  20.096  0.00  0.00    +0.000 A 
ATOM      6  S   UNL     1       0.807   7.745  21.288  0.00  0.00    +0.000 S 
ATOM      7  C   UNL     1       0.629   9.306  20.604  0.00  0.00    +0.000 A 
ATOM      8  C   UNL     1      -0.196  10.333  21.312  0.00  0.00    +0.000 C 
ATOM      9  C   UNL     1       1.289   9.417  19.387  0.00  0.00    +0.000 A 
ATOM     10  C   UNL     1       1.209  10.606  18.476  0.00  0.00    +0.000 C 
ATOM     11  C   UNL     1       2.064   8.226  19.105  0.00  0.00    +0.000 A 
BRANCH  11  12
ATOM     12  C   UNL     1       2.801   8.012  17.892  0.00  0.00    +0.000 C 
ATOM     13  N   UNL     1       3.419   7.757  16.940  0.00  0.00    +0.000 NA
ENDBRANCH  11  12
ENDBRANCH   3   5
BRANCH   1  14
ATOM     14  C   UNL     1       2.880   3.647  19.793  0.00  0.00    +0.000 C 
BRANCH  14  15
ATOM     15  S   UNL     1       4.067   3.151  18.498  0.00  0.00    +0.000 S 
BRANCH  15  17
ATOM     16  N   UNL     1       5.873   5.055  17.714  0.00  0.00    +0.000 N 
ATOM     17  C   UNL     1       5.363   4.277  18.724  0.00  0.00    +0.000 A 
ATOM     18  N   UNL     1       6.007   4.525  19.839  0.00  0.00    +0.000 NA
ATOM     19  N   UNL     1       6.966   5.480  19.565  0.00  0.00    +0.000 NA
ATOM     20  C   UNL     1       6.872   5.805  18.291  0.00  0.00    +0.000 A 
BRANCH  20  21
ATOM     21  C   UNL     1       7.757   6.840  17.598  0.00  0.00    +0.000 C 
ATOM     22  C   UNL     1       7.284   8.277  17.513  0.00  0.00    +0.000 C 
ATOM     23  C   UNL     1       8.385   7.923  18.450  0.00  0.00    +0.000 C 
ENDBRANCH  20  21
BRANCH  16  25
ATOM     24  C   UNL     1       6.511   4.234  15.466  0.00  0.00    +0.000 C 
ATOM     25  C   UNL     1       5.527   5.025  16.310  0.00  0.00    +0.000 C 
ENDBRANCH  16  25
ENDBRANCH  15  17
ENDBRANCH  14  15
ENDBRANCH   1  14
TORSDOF 7
ENDMDL
MODEL 2
REMARK VINA RESULT:      -6.2      4.610      7.323
REMARK  Name = 
REMARK  10 active torsions:
REMARK  status: ('A' for Active; 'I' for Inactive)
REMARK    1  A    between atoms: C_1  and  C_2
REMARK    2  A    between atoms: C_2  and  N_3
REMARK    3  A    between atoms: C_4  and  S_5
REMARK    4  A    between atoms: S_5  and  C_6
REMARK    5  A    between atoms: C_6  and  C_7
REMARK    6  A    between atoms: N_9  and  C_10
REMARK    7  A    between atoms: C_12  and  C_13
REMARK    8  A    between atoms: C_14  and  C_15
REMARK    9  A    between atoms: C_16  and  C_17
REMARK   10  A    between atoms: C_21  and  C_22
REMARK                            x       y       z     vdW  Elec       q    Type
REMARK                         _______ _______ _______ _____ _____    ______ ____
ROOT
ATOM      1  C   UNL     1       8.444   9.082  18.515  0.00  0.00    +0.000 C 
ATOM      2  O   UNL     1       7.777   9.775  17.746  0.00  0.00    +0.000 OA
ATOM      3  N   UNL     1       9.371   9.597  19.406  0.00  0.00    +0.000 N 
ATOM      4  H   UNL     1      10.141   8.976  19.629  0.00  0.00    +0.000 HD
ENDROOT
BRANCH   3   5
ATOM      5  C   UNL     1       9.647  10.949  19.447  0.00  0.00    +0.000 A 
ATOM      6  S   UNL     1      10.540  11.491  18.110  0.00  0.00    +0.000 S 
ATOM      7  C   UNL     1      10.435  13.123  18.621  0.00  0.00    +0.000 A 
ATOM      8  C   UNL     1      10.965  14.208  17.740  0.00  0.00    +0.000 C 
ATOM      9  C   UNL     1       9.864  13.236  19.883  0.00  0.00    +0.000 A 
ATOM     10  C   UNL     1       9.761  14.512  20.664  0.00  0.00    +0.000 C 
ATOM     11  C   UNL     1       9.384  11.952  20.352  0.00  0.00    +0.000 A 
BRANCH  11  12
ATOM     12  C   UNL     1       8.806  11.733  21.648  0.00  0.00    +0.000 C 
ATOM     13  N   UNL     1       8.263  11.595  22.668  0.00  0.00    +0.000 NA
ENDBRANCH  11  12
ENDBRANCH   3   5
BRANCH   1  14
ATOM     14  C   UNL     1       8.280   7.555  18.535  0.00  0.00    +0.000 C 
BRANCH  14  15
ATOM     15  S   UNL     1       7.154   6.947  17.233  0.00  0.00    +0.000 S 
BRANCH  15  17
ATOM     16  N   UNL     1       4.978   5.404  17.855  0.00  0.00    +0.000 N 
ATOM     17  C   UNL     1       6.315   5.659  18.033  0.00  0.00    +0.000 A 
ATOM     18  N   UNL     1       6.820   4.796  18.882  0.00  0.00    +0.000 NA
ATOM     19  N   UNL     1       5.799   3.955  19.280  0.00  0.00    +0.000 NA
ATOM     20  C   UNL     1       4.699   4.315  18.650  0.00  0.00    +0.000 A 
BRANCH  20  21
ATOM     21  C   UNL     1       3.347   3.623  18.813  0.00  0.00    +0.000 C 
ATOM     22  C   UNL     1       2.876   2.660  17.742  0.00  0.00    +0.000 C 
ATOM     23  C   UNL     1       3.338   2.128  19.053  0.00  0.00    +0.000 C 
ENDBRANCH  20  21
BRANCH  16  25
ATOM     24  C   UNL     1       3.289   7.213  17.917  0.00  0.00    +0.000 C 
ATOM     25  C   UNL     1       4.022   6.172  17.090  0.00  0.00    +0.000 C 
ENDBRANCH  16  25
ENDBRANCH  15  17
ENDBRANCH  14  15
ENDBRANCH   1  14
TORSDOF 7
ENDMDL
MODEL 3
REMARK VINA RESULT:      -6.1      2.998      4.458
REMARK  Name = 
REMARK  10 active torsions:
REMARK  status: ('A' for Active; 'I' for Inactive)
REMARK    1  A    between atoms: C_1  and  C_2
REMARK    2  A    between atoms: C_2  and  N_3
REMARK    3  A    between atoms: C_4  and  S_5
REMARK    4  A    between atoms: S_5  and  C_6
REMARK    5  A    between atoms: C_6  and  C_7
REMARK    6  A    between atoms: N_9  and  C_10
REMARK    7  A    between atoms: C_12  and  C_13
REMARK    8  A    between atoms: C_14  and  C_15
REMARK    9  A    between atoms: C_16  and  C_17
REMARK   10  A    between atoms: C_21  and  C_22
REMARK                            x       y       z     vdW  Elec       q    Type
REMARK                         _______ _______ _______ _____ _____    ______ ____
ROOT
ATOM      1  C   UNL     1       1.355   9.352  18.716  0.00  0.00    +0.000 C 
ATOM      2  O   UNL     1       1.070   8.918  19.833  0.00  0.00    +0.000 OA
ATOM      3  N   UNL     1       0.836  10.524  18.192  0.00  0.00    +0.000 N 
ATOM      4  H   UNL     1       0.758  10.544  17.181  0.00  0.00    +0.000 HD
ENDROOT
BRANCH   3   5
ATOM      5  C   UNL     1      -0.096  11.267  18.889  0.00  0.00    +0.000 A 
ATOM      6  S   UNL     1       0.600  12.325  20.019  0.00  0.00    +0.000 S 
ATOM      7  C   UNL     1      -0.921  13.010  20.410  0.00  0.00    +0.000 A 
ATOM      8  C   UNL     1      -0.987  14.181  21.337  0.00  0.00    +0.000 C 
ATOM      9  C   UNL     1      -1.968  12.328  19.804  0.00  0.00    +0.000 A 
ATOM     10  C   UNL     1      -3.422  12.593  20.058  0.00  0.00    +0.000 C 
ATOM     11  C   UNL     1      -1.472  11.316  18.894  0.00  0.00    +0.000 A 
BRANCH  11  12
ATOM     12  C   UNL     1      -2.310  10.401  18.170  0.00  0.00    +0.000 C 
ATOM     13  N   UNL     1      -3.006   9.619  17.663  0.00  0.00    +0.000 NA
ENDBRANCH  11  12
ENDBRANCH   3   5
BRANCH   1  14
ATOM     14  C   UNL     1       2.335   8.595  17.809  0.00  0.00    +0.000 C 
BRANCH  14  15
ATOM     15  S   UNL     1       2.777   6.948  18.461  0.00  0.00    +0.000 S 
BRANCH  15  17
ATOM     16  N   UNL     1       4.300   5.251  16.943  0.00  0.00    +0.000 N 
ATOM     17  C   UNL     1       4.132   6.505  17.478  0.00  0.00    +0.000 A 
ATOM     18  N   UNL     1       5.138   7.270  17.129  0.00  0.00    +0.000 NA
ATOM     19  N   UNL     1       5.993   6.511  16.355  0.00  0.00    +0.000 NA
ATOM     20  C   UNL     1       5.478   5.304  16.234  0.00  0.00    +0.000 A 
BRANCH  20  21
ATOM     21  C   UNL     1       6.122   4.168  15.441  0.00  0.00    +0.000 C 
ATOM     22  C   UNL     1       5.717   3.954  13.997  0.00  0.00    +0.000 C 
ATOM     23  C   UNL     1       7.054   4.533  14.305  0.00  0.00    +0.000 C 
ENDBRANCH  20  21
BRANCH  16  25
ATOM     24  C   UNL     1       3.946   3.234  18.336  0.00  0.00    +0.000 C 
ATOM     25  C   UNL     1       3.484   4.077  17.161  0.00  0.00    +0.000 C 
ENDBRANCH  16  25
ENDBRANCH  15  17
ENDBRANCH  14  15
ENDBRANCH   1  14
TORSDOF 7
ENDMDL
MODEL 4
REMARK VINA RESULT:      -6.0      3.188      5.355
REMARK  Name = 
REMARK  10 active torsions:
REMARK  status: ('A' for Active; 'I' for Inactive)
REMARK    1  A    between atoms: C_1  and  C_2
REMARK    2  A    between atoms: C_2  and  N_3
REMARK    3  A    between atoms: C_4  and  S_5
REMARK    4  A    between atoms: S_5  and  C_6
REMARK    5  A    between atoms: C_6  and  C_7
REMARK    6  A    between atoms: N_9  and  C_10
REMARK    7  A    between atoms: C_12  and  C_13
REMARK    8  A    between atoms: C_14  and  C_15
REMARK    9  A    between atoms: C_16  and  C_17
REMARK   10  A    between atoms: C_21  and  C_22
REMARK                            x       y       z     vdW  Elec       q    Type
REMARK                         _______ _______ _______ _____ _____    ______ ____
ROOT
ATOM      1  C   UNL     1       1.120   9.908  18.333  0.00  0.00    +0.000 C 
ATOM      2  O   UNL     1       1.787  10.928  18.505  0.00  0.00    +0.000 OA
ATOM      3  N   UNL     1      -0.101   9.675  18.945  0.00  0.00    +0.000 N 
ATOM      4  H   UNL     1      -0.320   8.698  19.106  0.00  0.00    +0.000 HD
ENDROOT
BRANCH   3   5
ATOM      5  C   UNL     1      -0.630  10.576  19.848  0.00  0.00    +0.000 A 
ATOM      6  S   UNL     1      -1.643  11.730  19.127  0.00  0.00    +0.000 S 
ATOM      7  C   UNL     1      -2.068  12.399  20.646  0.00  0.00    +0.000 A 
ATOM      8  C   UNL     1      -3.112  13.467  20.717  0.00  0.00    +0.000 C 
ATOM      9  C   UNL     1      -1.320  11.852  21.681  0.00  0.00    +0.000 A 
ATOM     10  C   UNL     1      -1.356  12.323  23.104  0.00  0.00    +0.000 C 
ATOM     11  C   UNL     1      -0.490  10.765  21.204  0.00  0.00    +0.000 A 
BRANCH  11  12
ATOM     12  C   UNL     1       0.445  10.046  22.023  0.00  0.00    +0.000 C 
ATOM     13  N   UNL     1       1.260   9.533  22.675  0.00  0.00    +0.000 NA
ENDBRANCH  11  12
ENDBRANCH   3   5
BRANCH   1  14
ATOM     14  C   UNL     1       1.617   8.796  17.398  0.00  0.00    +0.000 C 
BRANCH  14  15
ATOM     15  S   UNL     1       3.119   7.965  18.020  0.00  0.00    +0.000 S 
BRANCH  15  17
ATOM     16  N   UNL     1       2.505   5.448  18.910  0.00  0.00    +0.000 N 
ATOM     17  C   UNL     1       2.473   6.804  19.131  0.00  0.00    +0.000 A 
ATOM     18  N   UNL     1       1.887   7.049  20.278  0.00  0.00    +0.000 NA
ATOM     19  N   UNL     1       1.519   5.837  20.828  0.00  0.00    +0.000 NA
ATOM     20  C   UNL     1       1.905   4.879  20.010  0.00  0.00    +0.000 A 
BRANCH  20  21
ATOM     21  C   UNL     1       1.688   3.388  20.266  0.00  0.00    +0.000 C 
ATOM     22  C   UNL     1       2.764   2.599  20.983  0.00  0.00    +0.000 C 
ATOM     23  C   UNL     1       1.501   2.932  21.698  0.00  0.00    +0.000 C 
ENDBRANCH  20  21
BRANCH  16  25
ATOM     24  C   UNL     1       4.392   4.251  17.845  0.00  0.00    +0.000 C 
ATOM     25  C   UNL     1       2.964   4.752  17.729  0.00  0.00    +0.000 C 
ENDBRANCH  16  25
ENDBRANCH  15  17
ENDBRANCH  14  15
ENDBRANCH   1  14
TORSDOF 7
ENDMDL
MODEL 5
REMARK VINA RESULT:      -6.0      3.016      5.525
REMARK  Name = 
REMARK  10 active torsions:
REMARK  status: ('A' for Active; 'I' for Inactive)
REMARK    1  A    between atoms: C_1  and  C_2
REMARK    2  A    between atoms: C_2  and  N_3
REMARK    3  A    between atoms: C_4  and  S_5
REMARK    4  A    between atoms: S_5  and  C_6
REMARK    5  A    between atoms: C_6  and  C_7
REMARK    6  A    between atoms: N_9  and  C_10
REMARK    7  A    between atoms: C_12  and  C_13
REMARK    8  A    between atoms: C_14  and  C_15
REMARK    9  A    between atoms: C_16  and  C_17
REMARK   10  A    between atoms: C_21  and  C_22
REMARK                            x       y       z     vdW  Elec       q    Type
REMARK                         _______ _______ _______ _____ _____    ______ ____
ROOT
ATOM      1  C   UNL     1       6.377   4.784  18.449  0.00  0.00    +0.000 C 
ATOM      2  O   UNL     1       6.580   5.272  19.561  0.00  0.00    +0.000 OA
ATOM      3  N   UNL     1       5.146   4.302  18.034  0.00  0.00    +0.000 N 
ATOM      4  H   UNL     1       5.188   3.552  17.353  0.00  0.00    +0.000 HD
ENDROOT
BRANCH   3   5
ATOM      5  C   UNL     1       4.060   4.291  18.886  0.00  0.00    +0.000 A 
ATOM      6  S   UNL     1       3.854   2.812  19.690  0.00  0.00    +0.000 S 
ATOM      7  C   UNL     1       2.558   3.428  20.627  0.00  0.00    +0.000 A 
ATOM      8  C   UNL     1       1.962   2.586  21.708  0.00  0.00    +0.000 C 
ATOM      9  C   UNL     1       2.181   4.700  20.216  0.00  0.00    +0.000 A 
ATOM     10  C   UNL     1       0.993   5.451  20.740  0.00  0.00    +0.000 C 
ATOM     11  C   UNL     1       3.084   5.209  19.204  0.00  0.00    +0.000 A 
BRANCH  11  12
ATOM     12  C   UNL     1       2.918   6.468  18.534  0.00  0.00    +0.000 C 
ATOM     13  N   UNL     1       2.844   7.461  17.932  0.00  0.00    +0.000 NA
ENDBRANCH  11  12
ENDBRANCH   3   5
BRANCH   1  14
ATOM     14  C   UNL     1       7.512   4.681  17.421  0.00  0.00    +0.000 C 
BRANCH  14  15
ATOM     15  S   UNL     1       7.304   5.831  16.018  0.00  0.00    +0.000 S 
BRANCH  15  17
ATOM     16  N   UNL     1       7.042   4.557  13.608  0.00  0.00    +0.000 N 
ATOM     17  C   UNL     1       6.505   4.846  14.839  0.00  0.00    +0.000 A 
ATOM     18  N   UNL     1       5.332   4.273  14.953  0.00  0.00    +0.000 NA
ATOM     19  N   UNL     1       5.080   3.595  13.777  0.00  0.00    +0.000 NA
ATOM     20  C   UNL     1       6.116   3.757  12.978  0.00  0.00    +0.000 A 
BRANCH  20  21
ATOM     21  C   UNL     1       6.227   3.153  11.579  0.00  0.00    +0.000 C 
ATOM     22  C   UNL     1       7.193   2.009  11.344  0.00  0.00    +0.000 C 
ATOM     23  C   UNL     1       5.730   1.738  11.374  0.00  0.00    +0.000 C 
ENDBRANCH  20  21
BRANCH  16  25
ATOM     24  C   UNL     1       8.035   6.176  12.019  0.00  0.00    +0.000 C 
ATOM     25  C   UNL     1       8.265   5.067  13.031  0.00  0.00    +0.000 C 
ENDBRANCH  16  25
ENDBRANCH  15  17
ENDBRANCH  14  15
ENDBRANCH   1  14
TORSDOF 7
ENDMDL
MODEL 6
REMARK VINA RESULT:      -5.9      3.141      4.718
REMARK  Name = 
REMARK  10 active torsions:
REMARK  status: ('A' for Active; 'I' for Inactive)
REMARK    1  A    between atoms: C_1  and  C_2
REMARK    2  A    between atoms: C_2  and  N_3
REMARK    3  A    between atoms: C_4  and  S_5
REMARK    4  A    between atoms: S_5  and  C_6
REMARK    5  A    between atoms: C_6  and  C_7
REMARK    6  A    between atoms: N_9  and  C_10
REMARK    7  A    between atoms: C_12  and  C_13
REMARK    8  A    between atoms: C_14  and  C_15
REMARK    9  A    between atoms: C_16  and  C_17
REMARK   10  A    between atoms: C_21  and  C_22
REMARK                            x       y       z     vdW  Elec       q    Type
REMARK                         _______ _______ _______ _____ _____    ______ ____
ROOT
ATOM      1  C   UNL     1       1.093   9.524  18.683  0.00  0.00    +0.000 C 
ATOM      2  O   UNL     1       0.782   9.107  19.798  0.00  0.00    +0.000 OA
ATOM      3  N   UNL     1       0.469  10.592  18.060  0.00  0.00    +0.000 N 
ATOM      4  H   UNL     1       0.468  10.555  17.046  0.00  0.00    +0.000 HD
ENDROOT
BRANCH   3   5
ATOM      5  C   UNL     1      -0.602  11.234  18.647  0.00  0.00    +0.000 A 
ATOM      6  S   UNL     1      -2.051  11.047  17.784  0.00  0.00    +0.000 S 
ATOM      7  C   UNL     1      -2.951  11.865  18.991  0.00  0.00    +0.000 A 
ATOM      8  C   UNL     1      -4.439  11.940  18.879  0.00  0.00    +0.000 C 
ATOM      9  C   UNL     1      -2.129  12.418  19.966  0.00  0.00    +0.000 A 
ATOM     10  C   UNL     1      -2.598  13.310  21.076  0.00  0.00    +0.000 C 
ATOM     11  C   UNL     1      -0.749  12.023  19.766  0.00  0.00    +0.000 A 
BRANCH  11  12
ATOM     12  C   UNL     1       0.346  12.488  20.570  0.00  0.00    +0.000 C 
ATOM     13  N   UNL     1       1.255  12.779  21.236  0.00  0.00    +0.000 NA
ENDBRANCH  11  12
ENDBRANCH   3   5
BRANCH   1  14
ATOM     14  C   UNL     1       2.231   8.865  17.890  0.00  0.00    +0.000 C 
BRANCH  14  15
ATOM     15  S   UNL     1       2.666   7.208  18.521  0.00  0.00    +0.000 S 
BRANCH  15  17
ATOM     16  N   UNL     1       4.278   5.403  17.236  0.00  0.00    +0.000 N 
ATOM     17  C   UNL     1       3.930   6.716  17.443  0.00  0.00    +0.000 A 
ATOM     18  N   UNL     1       4.695   7.494  16.716  0.00  0.00    +0.000 NA
ATOM     19  N   UNL     1       5.570   6.686  16.017  0.00  0.00    +0.000 NA
ATOM     20  C   UNL     1       5.305   5.431  16.322  0.00  0.00    +0.000 A 
BRANCH  20  21
ATOM     21  C   UNL     1       6.052   4.229  15.746  0.00  0.00    +0.000 C 
ATOM     22  C   UNL     1       5.732   3.766  14.339  0.00  0.00    +0.000 C 
ATOM     23  C   UNL     1       7.016   4.471  14.604  0.00  0.00    +0.000 C 
ENDBRANCH  20  21
BRANCH  16  25
ATOM     24  C   UNL     1       2.514   3.665  17.258  0.00  0.00    +0.000 C 
ATOM     25  C   UNL     1       3.763   4.232  17.910  0.00  0.00    +0.000 C 
ENDBRANCH  16  25
ENDBRANCH  15  17
ENDBRANCH  14  15
ENDBRANCH   1  14
TORSDOF 7
ENDMDL
MODEL 7
REMARK VINA RESULT:      -5.8      3.296      8.622
REMARK  Name = 
REMARK  10 active torsions:
REMARK  status: ('A' for Active; 'I' for Inactive)
REMARK    1  A    between atoms: C_1  and  C_2
REMARK    2  A    between atoms: C_2  and  N_3
REMARK    3  A    between atoms: C_4  and  S_5
REMARK    4  A    between atoms: S_5  and  C_6
REMARK    5  A    between atoms: C_6  and  C_7
REMARK    6  A    between atoms: N_9  and  C_10
REMARK    7  A    between atoms: C_12  and  C_13
REMARK    8  A    between atoms: C_14  and  C_15
REMARK    9  A    between atoms: C_16  and  C_17
REMARK   10  A    between atoms: C_21  and  C_22
REMARK                            x       y       z     vdW  Elec       q    Type
REMARK                         _______ _______ _______ _____ _____    ______ ____
ROOT
ATOM      1  C   UNL     1       2.076   7.593  19.659  0.00  0.00    +0.000 C 
ATOM      2  O   UNL     1       1.908   7.811  18.459  0.00  0.00    +0.000 OA
ATOM      3  N   UNL     1       2.708   6.463  20.153  0.00  0.00    +0.000 N 
ATOM      4  H   UNL     1       2.398   6.166  21.072  0.00  0.00    +0.000 HD
ENDROOT
BRANCH   3   5
ATOM      5  C   UNL     1       3.152   5.466  19.307  0.00  0.00    +0.000 A 
ATOM      6  S   UNL     1       4.329   5.996  18.206  0.00  0.00    +0.000 S 
ATOM      7  C   UNL     1       4.565   4.412  17.598  0.00  0.00    +0.000 A 
ATOM      8  C   UNL     1       5.649   4.157  16.601  0.00  0.00    +0.000 C 
ATOM      9  C   UNL     1       3.640   3.514  18.116  0.00  0.00    +0.000 A 
ATOM     10  C   UNL     1       3.494   2.088  17.678  0.00  0.00    +0.000 C 
ATOM     11  C   UNL     1       2.825   4.139  19.138  0.00  0.00    +0.000 A 
BRANCH  11  12
ATOM     12  C   UNL     1       1.737   3.488  19.811  0.00  0.00    +0.000 C 
ATOM     13  N   UNL     1       0.866   3.020  20.425  0.00  0.00    +0.000 NA
ENDBRANCH  11  12
ENDBRANCH   3   5
BRANCH   1  14
ATOM     14  C   UNL     1       1.581   8.592  20.714  0.00  0.00    +0.000 C 
BRANCH  14  15
ATOM     15  S   UNL     1       0.760  10.049  19.980  0.00  0.00    +0.000 S 
BRANCH  15  17
ATOM     16  N   UNL     1      -1.043  11.713  21.197  0.00  0.00    +0.000 N 
ATOM     17  C   UNL     1      -0.137  10.688  21.317  0.00  0.00    +0.000 A 
ATOM     18  N   UNL     1      -0.073  10.301  22.568  0.00  0.00    +0.000 NA
ATOM     19  N   UNL     1      -0.946  11.085  23.294  0.00  0.00    +0.000 NA
ATOM     20  C   UNL     1      -1.537  11.922  22.464  0.00  0.00    +0.000 A 
BRANCH  20  21
ATOM     21  C   UNL     1      -2.584  12.954  22.881  0.00  0.00    +0.000 C 
ATOM     22  C   UNL     1      -4.036  12.719  22.521  0.00  0.00    +0.000 C 
ATOM     23  C   UNL     1      -3.596  12.555  23.934  0.00  0.00    +0.000 C 
ENDBRANCH  20  21
BRANCH  16  25
ATOM     24  C   UNL     1      -2.462  11.909  19.178  0.00  0.00    +0.000 C 
ATOM     25  C   UNL     1      -1.344  12.498  20.021  0.00  0.00    +0.000 C 
ENDBRANCH  16  25
ENDBRANCH  15  17
ENDBRANCH  14  15
ENDBRANCH   1  14
TORSDOF 7
ENDMDL
MODEL 8
REMARK VINA RESULT:      -5.8      5.174      7.453
REMARK  Name = 
REMARK  10 active torsions:
REMARK  status: ('A' for Active; 'I' for Inactive)
REMARK    1  A    between atoms: C_1  and  C_2
REMARK    2  A    between atoms: C_2  and  N_3
REMARK    3  A    between atoms: C_4  and  S_5
REMARK    4  A    between atoms: S_5  and  C_6
REMARK    5  A    between atoms: C_6  and  C_7
REMARK    6  A    between atoms: N_9  and  C_10
REMARK    7  A    between atoms: C_12  and  C_13
REMARK    8  A    between atoms: C_14  and  C_15
REMARK    9  A    between atoms: C_16  and  C_17
REMARK   10  A    between atoms: C_21  and  C_22
REMARK                            x       y       z     vdW  Elec       q    Type
REMARK                         _______ _______ _______ _____ _____    ______ ____
ROOT
ATOM      1  C   UNL     1       7.533   7.875  17.765  0.00  0.00    +0.000 C 
ATOM      2  O   UNL     1       7.877   7.113  18.669  0.00  0.00    +0.000 OA
ATOM      3  N   UNL     1       6.374   7.715  17.024  0.00  0.00    +0.000 N 
ATOM      4  H   UNL     1       6.418   8.075  16.077  0.00  0.00    +0.000 HD
ENDROOT
BRANCH   3   5
ATOM      5  C   UNL     1       5.542   6.632  17.226  0.00  0.00    +0.000 A 
ATOM      6  S   UNL     1       3.998   7.068  17.779  0.00  0.00    +0.000 S 
ATOM      7  C   UNL     1       3.441   5.450  17.696  0.00  0.00    +0.000 A 
ATOM      8  C   UNL     1       2.001   5.150  17.963  0.00  0.00    +0.000 C 
ATOM      9  C   UNL     1       4.469   4.562  17.404  0.00  0.00    +0.000 A 
ATOM     10  C   UNL     1       4.333   3.069  17.400  0.00  0.00    +0.000 C 
ATOM     11  C   UNL     1       5.698   5.269  17.109  0.00  0.00    +0.000 A 
BRANCH  11  12
ATOM     12  C   UNL     1       6.953   4.625  16.836  0.00  0.00    +0.000 C 
ATOM     13  N   UNL     1       8.010   4.175  16.654  0.00  0.00    +0.000 NA
ENDBRANCH  11  12
ENDBRANCH   3   5
BRANCH   1  14
ATOM     14  C   UNL     1       8.395   9.090  17.396  0.00  0.00    +0.000 C 
BRANCH  14  15
ATOM     15  S   UNL     1       9.026   9.983  18.858  0.00  0.00    +0.000 S 
BRANCH  15  17
ATOM     16  N   UNL     1      10.606  12.077  18.069  0.00  0.00    +0.000 N 
ATOM     17  C   UNL     1       9.342  11.564  18.226  0.00  0.00    +0.000 A 
ATOM     18  N   UNL     1       8.457  12.449  17.834  0.00  0.00    +0.000 NA
ATOM     19  N   UNL     1       9.143  13.571  17.414  0.00  0.00    +0.000 NA
ATOM     20  C   UNL     1      10.434  13.337  17.543  0.00  0.00    +0.000 A 
BRANCH  20  21
ATOM     21  C   UNL     1      11.532  14.334  17.175  0.00  0.00    +0.000 C 
ATOM     22  C   UNL     1      11.212  15.815  17.171  0.00  0.00    +0.000 C 
ATOM     23  C   UNL     1      12.053  15.251  18.262  0.00  0.00    +0.000 C 
ENDBRANCH  20  21
BRANCH  16  25
ATOM     24  C   UNL     1      12.288  11.869  19.874  0.00  0.00    +0.000 C 
ATOM     25  C   UNL     1      11.861  11.481  18.470  0.00  0.00    +0.000 C 
ENDBRANCH  16  25
ENDBRANCH  15  17
ENDBRANCH  14  15
ENDBRANCH   1  14
TORSDOF 7
ENDMDL
MODEL 9
REMARK VINA RESULT:      -5.8      1.686      2.298
REMARK  Name = 
REMARK  10 active torsions:
REMARK  status: ('A' for Active; 'I' for Inactive)
REMARK    1  A    between atoms: C_1  and  C_2
REMARK    2  A    between atoms: C_2  and  N_3
REMARK    3  A    between atoms: C_4  and  S_5
REMARK    4  A    between atoms: S_5  and  C_6
REMARK    5  A    between atoms: C_6  and  C_7
REMARK    6  A    between atoms: N_9  and  C_10
REMARK    7  A    between atoms: C_12  and  C_13
REMARK    8  A    between atoms: C_14  and  C_15
REMARK    9  A    between atoms: C_16  and  C_17
REMARK   10  A    between atoms: C_21  and  C_22
REMARK                            x       y       z     vdW  Elec       q    Type
REMARK                         _______ _______ _______ _____ _____    ______ ____
ROOT
ATOM      1  C   UNL     1       1.813   5.338  20.786  0.00  0.00    +0.000 C 
ATOM      2  O   UNL     1       0.960   5.082  19.936  0.00  0.00    +0.000 OA
ATOM      3  N   UNL     1       2.179   6.625  21.145  0.00  0.00    +0.000 N 
ATOM      4  H   UNL     1       3.136   6.723  21.468  0.00  0.00    +0.000 HD
ENDROOT
BRANCH   3   5
ATOM      5  C   UNL     1       1.631   7.724  20.516  0.00  0.00    +0.000 A 
ATOM      6  S   UNL     1       0.381   8.451  21.404  0.00  0.00    +0.000 S 
ATOM      7  C   UNL     1       0.234   9.729  20.273  0.00  0.00    +0.000 A 
ATOM      8  C   UNL     1      -0.693  10.867  20.560  0.00  0.00    +0.000 C 
ATOM      9  C   UNL     1       1.018   9.517  19.146  0.00  0.00    +0.000 A 
ATOM     10  C   UNL     1       1.004  10.380  17.920  0.00  0.00    +0.000 C 
ATOM     11  C   UNL     1       1.853   8.345  19.307  0.00  0.00    +0.000 A 
BRANCH  11  12
ATOM     12  C   UNL     1       2.724   7.829  18.288  0.00  0.00    +0.000 C 
ATOM     13  N   UNL     1       3.453   7.497  17.444  0.00  0.00    +0.000 NA
ENDBRANCH  11  12
ENDBRANCH   3   5
BRANCH   1  14
ATOM     14  C   UNL     1       2.545   4.208  21.525  0.00  0.00    +0.000 C 
BRANCH  14  15
ATOM     15  S   UNL     1       2.974   2.809  20.434  0.00  0.00    +0.000 S 
BRANCH  15  17
ATOM     16  N   UNL     1       3.994   3.848  18.114  0.00  0.00    +0.000 N 
ATOM     17  C   UNL     1       4.206   3.485  19.422  0.00  0.00    +0.000 A 
ATOM     18  N   UNL     1       5.452   3.727  19.749  0.00  0.00    +0.000 NA
ATOM     19  N   UNL     1       6.082   4.254  18.639  0.00  0.00    +0.000 NA
ATOM     20  C   UNL     1       5.198   4.339  17.665  0.00  0.00    +0.000 A 
BRANCH  20  21
ATOM     21  C   UNL     1       5.503   4.884  16.270  0.00  0.00    +0.000 C 
ATOM     22  C   UNL     1       6.942   4.948  15.802  0.00  0.00    +0.000 C 
ATOM     23  C   UNL     1       6.032   3.918  15.230  0.00  0.00    +0.000 C 
ENDBRANCH  20  21
BRANCH  16  25
ATOM     24  C   UNL     1       2.319   2.218  17.296  0.00  0.00    +0.000 C 
ATOM     25  C   UNL     1       2.798   3.659  17.323  0.00  0.00    +0.000 C 
ENDBRANCH  16  25
ENDBRANCH  15  17
ENDBRANCH  14  15
ENDBRANCH   1  14
TORSDOF 7
ENDMDL
