MODEL 1
REMARK VINA RESULT:      -7.7      0.000      0.000
REMARK  Name = 
REMARK  10 active torsions:
REMARK  status: ('A' for Active; 'I' for Inactive)
REMARK    1  A    between atoms: C_1  and  O_2
REMARK    2  A    between atoms: O_2  and  C_3
REMARK    3  A    between atoms: C_5  and  C_6
REMARK    4  A    between atoms: C_6  and  N_7
REMARK    5  A    between atoms: N_7  and  C_8
REMARK    6  A    between atoms: C_8  and  C_9
REMARK    7  A    between atoms: C_8  and  C_15
REMARK    8  A    between atoms: N_19  and  C_20
REMARK    9  A    between atoms: C_22  and  O_23
REMARK   10  A    between atoms: O_23  and  C_24
REMARK                            x       y       z     vdW  Elec       q    Type
REMARK                         _______ _______ _______ _____ _____    ______ ____
ROOT
ATOM      1  N   UNL     1       4.410   5.455  19.785  0.00  0.00    +0.000 NA
ATOM      2  H   UNL     1       4.666   6.281  19.243  0.00  0.00    +0.000 HD
ENDROOT
BRANCH   1   3
ATOM      3  C   UNL     1       4.693   4.290  18.946  0.00  0.00    +0.000 C 
BRANCH   3   6
ATOM      4  C   UNL     1       5.655   4.498  15.251  0.00  0.00    +0.000 A 
ATOM      5  C   UNL     1       5.049   4.095  16.444  0.00  0.00    +0.000 A 
ATOM      6  C   UNL     1       5.399   4.684  17.667  0.00  0.00    +0.000 A 
ATOM      7  C   UNL     1       6.388   5.679  17.671  0.00  0.00    +0.000 A 
ATOM      8  C   UNL     1       6.995   6.097  16.482  0.00  0.00    +0.000 A 
ATOM      9  C   UNL     1       6.628   5.500  15.273  0.00  0.00    +0.000 A 
BRANCH   4  11
ATOM     10  C   UNL     1       6.133   3.647  13.080  0.00  0.00    +0.000 C 
ATOM     11  O   UNL     1       5.199   3.851  14.132  0.00  0.00    +0.000 OA
ENDBRANCH   4  11
BRANCH   8  12
ATOM     12  O   UNL     1       7.918   7.099  16.630  0.00  0.00    +0.000 OA
ATOM     13  C   UNL     1       7.700   8.029  17.684  0.00  0.00    +0.000 C 
ENDBRANCH   8  12
ENDBRANCH   3   6
ENDBRANCH   1   3
BRANCH   1  14
ATOM     14  C   UNL     1       2.974   5.595  20.112  0.00  0.00    +0.000 C 
BRANCH  14  15
ATOM     15  C   UNL     1       2.453   6.918  19.551  0.00  0.00    +0.000 A 
ATOM     16  C   UNL     1       2.772   7.322  18.241  0.00  0.00    +0.000 A 
ATOM     17  C   UNL     1       2.311   8.534  17.727  0.00  0.00    +0.000 A 
ATOM     18  C   UNL     1       1.509   9.361  18.509  0.00  0.00    +0.000 A 
ATOM     19  C   UNL     1       1.173   8.975  19.807  0.00  0.00    +0.000 A 
ATOM     20  C   UNL     1       1.646   7.768  20.327  0.00  0.00    +0.000 A 
ENDBRANCH  14  15
BRANCH  14  21
ATOM     21  C   UNL     1       2.145   4.428  19.604  0.00  0.00    +0.000 A 
ATOM     22  N   UNL     1       1.640   4.315  18.382  0.00  0.00    +0.000 NA
ATOM     23  C   UNL     1       1.031   3.094  18.334  0.00  0.00    +0.000 A 
ATOM     24  C   UNL     1       1.143   2.447  19.540  0.00  0.00    +0.000 A 
ATOM     25  N   UNL     1       1.835   3.310  20.347  0.00  0.00    +0.000 N 
ATOM     26  C   UNL     1       2.176   3.053  21.724  0.00  0.00    +0.000 C 
ENDBRANCH  14  21
ENDBRANCH   1  14
TORSDOF 7
ENDMDL
MODEL 2
REMARK VINA RESULT:      -7.7      0.271      2.688
REMARK  Name = 
REMARK  10 active torsions:
REMARK  status: ('A' for Active; 'I' for Inactive)
REMARK    1  A    between atoms: C_1  and  O_2
REMARK    2  A    between atoms: O_2  and  C_3
REMARK    3  A    between atoms: C_5  and  C_6
REMARK    4  A    between atoms: C_6  and  N_7
REMARK    5  A    between atoms: N_7  and  C_8
REMARK    6  A    between atoms: C_8  and  C_9
REMARK    7  A    between atoms: C_8  and  C_15
REMARK    8  A    between atoms: N_19  and  C_20
REMARK    9  A    between atoms: C_22  and  O_23
REMARK   10  A    between atoms: O_23  and  C_24
REMARK                            x       y       z     vdW  Elec       q    Type
REMARK                         _______ _______ _______ _____ _____    ______ ____
ROOT
ATOM      1  N   UNL     1       4.434   5.393  19.722  0.00  0.00    +0.000 NA
ATOM      2  H   UNL     1       4.710   6.220  19.190  0.00  0.00    +0.000 HD
ENDROOT
BRANCH   1   3
ATOM      3  C   UNL     1       4.669   4.234  18.860  0.00  0.00    +0.000 C 
BRANCH   3   6
ATOM      4  C   UNL     1       7.025   6.062  16.465  0.00  0.00    +0.000 A 
ATOM      5  C   UNL     1       6.271   5.738  17.598  0.00  0.00    +0.000 A 
ATOM      6  C   UNL     1       5.432   4.616  17.610  0.00  0.00    +0.000 A 
ATOM      7  C   UNL     1       5.348   3.830  16.451  0.00  0.00    +0.000 A 
ATOM      8  C   UNL     1       6.103   4.139  15.314  0.00  0.00    +0.000 A 
ATOM      9  C   UNL     1       6.938   5.260  15.324  0.00  0.00    +0.000 A 
BRANCH   4  11
ATOM     10  C   UNL     1       7.768   7.844  17.856  0.00  0.00    +0.000 C 
ATOM     11  O   UNL     1       7.816   7.172  16.604  0.00  0.00    +0.000 OA
ENDBRANCH   4  11
BRANCH   8  12
ATOM     12  O   UNL     1       5.949   3.268  14.268  0.00  0.00    +0.000 OA
ATOM     13  C   UNL     1       6.252   3.759  12.968  0.00  0.00    +0.000 C 
ENDBRANCH   8  12
ENDBRANCH   3   6
ENDBRANCH   1   3
BRANCH   1  14
ATOM     14  C   UNL     1       3.007   5.574  20.070  0.00  0.00    +0.000 C 
BRANCH  14  15
ATOM     15  C   UNL     1       2.509   6.900  19.495  0.00  0.00    +0.000 A 
ATOM     16  C   UNL     1       1.706   7.763  20.265  0.00  0.00    +0.000 A 
ATOM     17  C   UNL     1       1.237   8.968  19.743  0.00  0.00    +0.000 A 
ATOM     18  C   UNL     1       1.572   9.342  18.444  0.00  0.00    +0.000 A 
ATOM     19  C   UNL     1       2.374   8.506  17.668  0.00  0.00    +0.000 A 
ATOM     20  C   UNL     1       2.834   7.291  18.185  0.00  0.00    +0.000 A 
ENDBRANCH  14  15
BRANCH  14  21
ATOM     21  C   UNL     1       2.142   4.419  19.593  0.00  0.00    +0.000 A 
ATOM     22  N   UNL     1       1.652   4.277  18.369  0.00  0.00    +0.000 NA
ATOM     23  C   UNL     1       0.998   3.078  18.358  0.00  0.00    +0.000 A 
ATOM     24  C   UNL     1       1.067   2.476  19.590  0.00  0.00    +0.000 A 
ATOM     25  N   UNL     1       1.779   3.344  20.374  0.00  0.00    +0.000 N 
ATOM     26  C   UNL     1       2.089   3.129  21.766  0.00  0.00    +0.000 C 
ENDBRANCH  14  21
ENDBRANCH   1  14
TORSDOF 7
ENDMDL
MODEL 3
REMARK VINA RESULT:      -7.6      1.278      4.526
REMARK  Name = 
REMARK  10 active torsions:
REMARK  status: ('A' for Active; 'I' for Inactive)
REMARK    1  A    between atoms: C_1  and  O_2
REMARK    2  A    between atoms: O_2  and  C_3
REMARK    3  A    between atoms: C_5  and  C_6
REMARK    4  A    between atoms: C_6  and  N_7
REMARK    5  A    between atoms: N_7  and  C_8
REMARK    6  A    between atoms: C_8  and  C_9
REMARK    7  A    between atoms: C_8  and  C_15
REMARK    8  A    between atoms: N_19  and  C_20
REMARK    9  A    between atoms: C_22  and  O_23
REMARK   10  A    between atoms: O_23  and  C_24
REMARK                            x       y       z     vdW  Elec       q    Type
REMARK                         _______ _______ _______ _____ _____    ______ ____
ROOT
ATOM      1  N   UNL     1       4.203   5.906  19.912  0.00  0.00    +0.000 NA
ATOM      2  H   UNL     1       4.766   6.730  19.701  0.00  0.00    +0.000 HD
ENDROOT
BRANCH   1   3
ATOM      3  C   UNL     1       4.952   4.743  19.435  0.00  0.00    +0.000 C 
BRANCH   3   6
ATOM      4  C   UNL     1       7.149   6.339  16.743  0.00  0.00    +0.000 A 
ATOM      5  C   UNL     1       6.483   6.112  17.951  0.00  0.00    +0.000 A 
ATOM      6  C   UNL     1       5.620   5.020  18.106  0.00  0.00    +0.000 A 
ATOM      7  C   UNL     1       5.423   4.162  17.012  0.00  0.00    +0.000 A 
ATOM      8  C   UNL     1       6.090   4.373  15.801  0.00  0.00    +0.000 A 
ATOM      9  C   UNL     1       6.951   5.466  15.669  0.00  0.00    +0.000 A 
BRANCH   4  11
ATOM     10  C   UNL     1       7.747   8.412  17.746  0.00  0.00    +0.000 C 
ATOM     11  O   UNL     1       7.976   7.431  16.743  0.00  0.00    +0.000 OA
ENDBRANCH   4  11
BRANCH   8  12
ATOM     12  O   UNL     1       5.831   3.440  14.832  0.00  0.00    +0.000 OA
ATOM     13  C   UNL     1       6.199   3.773  13.499  0.00  0.00    +0.000 C 
ENDBRANCH   8  12
ENDBRANCH   3   6
ENDBRANCH   1   3
BRANCH   1  14
ATOM     14  C   UNL     1       2.912   6.088  19.212  0.00  0.00    +0.000 C 
BRANCH  14  15
ATOM     15  C   UNL     1       2.108   4.789  19.285  0.00  0.00    +0.000 A 
ATOM     16  C   UNL     1       1.701   4.261  20.524  0.00  0.00    +0.000 A 
ATOM     17  C   UNL     1       0.979   3.071  20.599  0.00  0.00    +0.000 A 
ATOM     18  C   UNL     1       0.637   2.390  19.433  0.00  0.00    +0.000 A 
ATOM     19  C   UNL     1       1.023   2.900  18.194  0.00  0.00    +0.000 A 
ATOM     20  C   UNL     1       1.759   4.086  18.119  0.00  0.00    +0.000 A 
ENDBRANCH  14  15
BRANCH  14  21
ATOM     21  C   UNL     1       2.109   7.253  19.766  0.00  0.00    +0.000 A 
ATOM     22  N   UNL     1       1.593   7.322  20.987  0.00  0.00    +0.000 NA
ATOM     23  C   UNL     1       1.018   8.556  21.086  0.00  0.00    +0.000 A 
ATOM     24  C   UNL     1       1.161   9.255  19.913  0.00  0.00    +0.000 A 
ATOM     25  N   UNL     1       1.839   8.412  19.073  0.00  0.00    +0.000 N 
ATOM     26  C   UNL     1       2.202   8.723  17.713  0.00  0.00    +0.000 C 
ENDBRANCH  14  21
ENDBRANCH   1  14
TORSDOF 7
ENDMDL
MODEL 4
REMARK VINA RESULT:      -7.6      0.123      2.506
REMARK  Name = 
REMARK  10 active torsions:
REMARK  status: ('A' for Active; 'I' for Inactive)
REMARK    1  A    between atoms: C_1  and  O_2
REMARK    2  A    between atoms: O_2  and  C_3
REMARK    3  A    between atoms: C_5  and  C_6
REMARK    4  A    between atoms: C_6  and  N_7
REMARK    5  A    between atoms: N_7  and  C_8
REMARK    6  A    between atoms: C_8  and  C_9
REMARK    7  A    between atoms: C_8  and  C_15
REMARK    8  A    between atoms: N_19  and  C_20
REMARK    9  A    between atoms: C_22  and  O_23
REMARK   10  A    between atoms: O_23  and  C_24
REMARK                            x       y       z     vdW  Elec       q    Type
REMARK                         _______ _______ _______ _____ _____    ______ ____
ROOT
ATOM      1  N   UNL     1       4.376   5.447  19.917  0.00  0.00    +0.000 NA
ATOM      2  H   UNL     1       4.657   6.298  19.428  0.00  0.00    +0.000 HD
ENDROOT
BRANCH   1   3
ATOM      3  C   UNL     1       4.723   4.322  19.047  0.00  0.00    +0.000 C 
BRANCH   3   6
ATOM      4  C   UNL     1       6.997   6.168  16.589  0.00  0.00    +0.000 A 
ATOM      5  C   UNL     1       6.361   5.773  17.770  0.00  0.00    +0.000 A 
ATOM      6  C   UNL     1       5.361   4.792  17.759  0.00  0.00    +0.000 A 
ATOM      7  C   UNL     1       4.996   4.223  16.529  0.00  0.00    +0.000 A 
ATOM      8  C   UNL     1       5.631   4.603  15.342  0.00  0.00    +0.000 A 
ATOM      9  C   UNL     1       6.629   5.581  15.376  0.00  0.00    +0.000 A 
BRANCH   4  11
ATOM     10  C   UNL     1       7.659   8.214  17.609  0.00  0.00    +0.000 C 
ATOM     11  O   UNL     1       7.968   7.120  16.755  0.00  0.00    +0.000 OA
ENDBRANCH   4  11
BRANCH   8  12
ATOM     12  O   UNL     1       5.199   3.943  14.222  0.00  0.00    +0.000 OA
ATOM     13  C   UNL     1       6.169   3.670  13.217  0.00  0.00    +0.000 C 
ENDBRANCH   8  12
ENDBRANCH   3   6
ENDBRANCH   1   3
BRANCH   1  14
ATOM     14  C   UNL     1       2.922   5.562  20.161  0.00  0.00    +0.000 C 
BRANCH  14  15
ATOM     15  C   UNL     1       2.418   6.894  19.605  0.00  0.00    +0.000 A 
ATOM     16  C   UNL     1       2.739   7.297  18.295  0.00  0.00    +0.000 A 
ATOM     17  C   UNL     1       2.293   8.516  17.786  0.00  0.00    +0.000 A 
ATOM     18  C   UNL     1       1.506   9.353  18.573  0.00  0.00    +0.000 A 
ATOM     19  C   UNL     1       1.169   8.969  19.871  0.00  0.00    +0.000 A 
ATOM     20  C   UNL     1       1.626   7.754  20.387  0.00  0.00    +0.000 A 
ENDBRANCH  14  15
BRANCH  14  21
ATOM     21  C   UNL     1       2.140   4.400  19.572  0.00  0.00    +0.000 A 
ATOM     22  N   UNL     1       1.715   4.312  18.318  0.00  0.00    +0.000 NA
ATOM     23  C   UNL     1       1.125   3.087  18.202  0.00  0.00    +0.000 A 
ATOM     24  C   UNL     1       1.167   2.412  19.396  0.00  0.00    +0.000 A 
ATOM     25  N   UNL     1       1.796   3.261  20.267  0.00  0.00    +0.000 N 
ATOM     26  C   UNL     1       2.050   2.973  21.657  0.00  0.00    +0.000 C 
ENDBRANCH  14  21
ENDBRANCH   1  14
TORSDOF 7
ENDMDL
MODEL 5
REMARK VINA RESULT:      -7.6      3.237      6.593
REMARK  Name = 
REMARK  10 active torsions:
REMARK  status: ('A' for Active; 'I' for Inactive)
REMARK    1  A    between atoms: C_1  and  O_2
REMARK    2  A    between atoms: O_2  and  C_3
REMARK    3  A    between atoms: C_5  and  C_6
REMARK    4  A    between atoms: C_6  and  N_7
REMARK    5  A    between atoms: N_7  and  C_8
REMARK    6  A    between atoms: C_8  and  C_9
REMARK    7  A    between atoms: C_8  and  C_15
REMARK    8  A    between atoms: N_19  and  C_20
REMARK    9  A    between atoms: C_22  and  O_23
REMARK   10  A    between atoms: O_23  and  C_24
REMARK                            x       y       z     vdW  Elec       q    Type
REMARK                         _______ _______ _______ _____ _____    ______ ____
ROOT
ATOM      1  N   UNL     1       2.694   6.437  17.899  0.00  0.00    +0.000 NA
ATOM      2  H   UNL     1       2.749   6.148  16.921  0.00  0.00    +0.000 HD
ENDROOT
BRANCH   1   3
ATOM      3  C   UNL     1       2.938   7.879  17.931  0.00  0.00    +0.000 C 
BRANCH   3   6
ATOM      4  C   UNL     1      -0.092  10.057  18.766  0.00  0.00    +0.000 A 
ATOM      5  C   UNL     1       0.938   9.430  18.059  0.00  0.00    +0.000 A 
ATOM      6  C   UNL     1       1.865   8.607  18.712  0.00  0.00    +0.000 A 
ATOM      7  C   UNL     1       1.750   8.438  20.100  0.00  0.00    +0.000 A 
ATOM      8  C   UNL     1       0.718   9.054  20.817  0.00  0.00    +0.000 A 
ATOM      9  C   UNL     1      -0.199   9.866  20.146  0.00  0.00    +0.000 A 
BRANCH   4  11
ATOM     10  C   UNL     1      -1.868  10.111  17.182  0.00  0.00    +0.000 C 
ATOM     11  O   UNL     1      -0.936  10.813  17.995  0.00  0.00    +0.000 OA
ENDBRANCH   4  11
BRANCH   8  12
ATOM     12  O   UNL     1       0.706   8.775  22.159  0.00  0.00    +0.000 OA
ATOM     13  C   UNL     1      -0.160   9.557  22.974  0.00  0.00    +0.000 C 
ENDBRANCH   8  12
ENDBRANCH   3   6
ENDBRANCH   1   3
BRANCH   1  14
ATOM     14  C   UNL     1       3.723   5.661  18.625  0.00  0.00    +0.000 C 
BRANCH  14  15
ATOM     15  C   UNL     1       3.041   4.609  19.500  0.00  0.00    +0.000 A 
ATOM     16  C   UNL     1       3.750   3.483  19.959  0.00  0.00    +0.000 A 
ATOM     17  C   UNL     1       3.131   2.513  20.748  0.00  0.00    +0.000 A 
ATOM     18  C   UNL     1       1.793   2.657  21.104  0.00  0.00    +0.000 A 
ATOM     19  C   UNL     1       1.074   3.769  20.667  0.00  0.00    +0.000 A 
ATOM     20  C   UNL     1       1.690   4.735  19.866  0.00  0.00    +0.000 A 
ENDBRANCH  14  15
BRANCH  14  21
ATOM     21  C   UNL     1       4.732   5.014  17.690  0.00  0.00    +0.000 A 
ATOM     22  N   UNL     1       4.440   4.367  16.569  0.00  0.00    +0.000 NA
ATOM     23  C   UNL     1       5.635   4.013  16.012  0.00  0.00    +0.000 A 
ATOM     24  C   UNL     1       6.680   4.429  16.800  0.00  0.00    +0.000 A 
ATOM     25  N   UNL     1       6.096   5.047  17.874  0.00  0.00    +0.000 N 
ATOM     26  C   UNL     1       6.817   5.631  18.978  0.00  0.00    +0.000 C 
ENDBRANCH  14  21
ENDBRANCH   1  14
TORSDOF 7
ENDMDL
MODEL 6
REMARK VINA RESULT:      -7.6      2.679      6.735
REMARK  Name = 
REMARK  10 active torsions:
REMARK  status: ('A' for Active; 'I' for Inactive)
REMARK    1  A    between atoms: C_1  and  O_2
REMARK    2  A    between atoms: O_2  and  C_3
REMARK    3  A    between atoms: C_5  and  C_6
REMARK    4  A    between atoms: C_6  and  N_7
REMARK    5  A    between atoms: N_7  and  C_8
REMARK    6  A    between atoms: C_8  and  C_9
REMARK    7  A    between atoms: C_8  and  C_15
REMARK    8  A    between atoms: N_19  and  C_20
REMARK    9  A    between atoms: C_22  and  O_23
REMARK   10  A    between atoms: O_23  and  C_24
REMARK                            x       y       z     vdW  Elec       q    Type
REMARK                         _______ _______ _______ _____ _____    ______ ____
ROOT
ATOM      1  N   UNL     1       4.483   4.389  16.246  0.00  0.00    +0.000 NA
ATOM      2  H   UNL     1       4.167   5.335  16.459  0.00  0.00    +0.000 HD
ENDROOT
BRANCH   1   3
ATOM      3  C   UNL     1       4.045   3.535  17.350  0.00  0.00    +0.000 C 
BRANCH   3   6
ATOM      4  C   UNL     1       2.404   4.487  20.670  0.00  0.00    +0.000 A 
ATOM      5  C   UNL     1       2.993   3.739  19.646  0.00  0.00    +0.000 A 
ATOM      6  C   UNL     1       3.350   4.335  18.430  0.00  0.00    +0.000 A 
ATOM      7  C   UNL     1       3.087   5.702  18.252  0.00  0.00    +0.000 A 
ATOM      8  C   UNL     1       2.506   6.463  19.272  0.00  0.00    +0.000 A 
ATOM      9  C   UNL     1       2.162   5.850  20.479  0.00  0.00    +0.000 A 
BRANCH   4  11
ATOM     10  C   UNL     1       1.504   2.511  21.644  0.00  0.00    +0.000 C 
ATOM     11  O   UNL     1       2.129   3.777  21.810  0.00  0.00    +0.000 OA
ENDBRANCH   4  11
BRANCH   8  12
ATOM     12  O   UNL     1       2.338   7.790  18.974  0.00  0.00    +0.000 OA
ATOM     13  C   UNL     1       2.652   8.200  17.648  0.00  0.00    +0.000 C 
ENDBRANCH   8  12
ENDBRANCH   3   6
ENDBRANCH   1   3
BRANCH   1  14
ATOM     14  C   UNL     1       5.955   4.456  16.117  0.00  0.00    +0.000 C 
BRANCH  14  15
ATOM     15  C   UNL     1       6.339   4.376  14.639  0.00  0.00    +0.000 A 
ATOM     16  C   UNL     1       7.430   5.111  14.137  0.00  0.00    +0.000 A 
ATOM     17  C   UNL     1       7.778   5.053  12.787  0.00  0.00    +0.000 A 
ATOM     18  C   UNL     1       7.050   4.248  11.914  0.00  0.00    +0.000 A 
ATOM     19  C   UNL     1       5.971   3.505  12.394  0.00  0.00    +0.000 A 
ATOM     20  C   UNL     1       5.613   3.572  13.743  0.00  0.00    +0.000 A 
ENDBRANCH  14  15
BRANCH  14  21
ATOM     21  C   UNL     1       6.540   5.702  16.761  0.00  0.00    +0.000 A 
ATOM     22  N   UNL     1       6.190   6.951  16.480  0.00  0.00    +0.000 NA
ATOM     23  C   UNL     1       6.906   7.745  17.329  0.00  0.00    +0.000 A 
ATOM     24  C   UNL     1       7.720   6.987  18.134  0.00  0.00    +0.000 A 
ATOM     25  N   UNL     1       7.495   5.691  17.752  0.00  0.00    +0.000 N 
ATOM     26  C   UNL     1       8.152   4.541  18.322  0.00  0.00    +0.000 C 
ENDBRANCH  14  21
ENDBRANCH   1  14
TORSDOF 7
ENDMDL
MODEL 7
REMARK VINA RESULT:      -7.5      3.241      6.884
REMARK  Name = 
REMARK  10 active torsions:
REMARK  status: ('A' for Active; 'I' for Inactive)
REMARK    1  A    between atoms: C_1  and  O_2
REMARK    2  A    between atoms: O_2  and  C_3
REMARK    3  A    between atoms: C_5  and  C_6
REMARK    4  A    between atoms: C_6  and  N_7
REMARK    5  A    between atoms: N_7  and  C_8
REMARK    6  A    between atoms: C_8  and  C_9
REMARK    7  A    between atoms: C_8  and  C_15
REMARK    8  A    between atoms: N_19  and  C_20
REMARK    9  A    between atoms: C_22  and  O_23
REMARK   10  A    between atoms: O_23  and  C_24
REMARK                            x       y       z     vdW  Elec       q    Type
REMARK                         _______ _______ _______ _____ _____    ______ ____
ROOT
ATOM      1  N   UNL     1       2.684   6.391  17.913  0.00  0.00    +0.000 NA
ATOM      2  H   UNL     1       2.748   6.095  16.939  0.00  0.00    +0.000 HD
ENDROOT
BRANCH   1   3
ATOM      3  C   UNL     1       2.905   7.837  17.935  0.00  0.00    +0.000 C 
BRANCH   3   6
ATOM      4  C   UNL     1       0.798   9.081  20.873  0.00  0.00    +0.000 A 
ATOM      5  C   UNL     1       1.744   8.379  20.121  0.00  0.00    +0.000 A 
ATOM      6  C   UNL     1       1.836   8.551  18.734  0.00  0.00    +0.000 A 
ATOM      7  C   UNL     1       0.943   9.434  18.108  0.00  0.00    +0.000 A 
ATOM      8  C   UNL     1      -0.002  10.149  18.850  0.00  0.00    +0.000 A 
ATOM      9  C   UNL     1      -0.074   9.967  20.234  0.00  0.00    +0.000 A 
BRANCH   4  11
ATOM     10  C   UNL     1      -0.078   9.549  23.036  0.00  0.00    +0.000 C 
ATOM     11  O   UNL     1       0.837   8.829  22.219  0.00  0.00    +0.000 OA
ENDBRANCH   4  11
BRANCH   8  12
ATOM     12  O   UNL     1      -0.785  11.000  18.116  0.00  0.00    +0.000 OA
ATOM     13  C   UNL     1      -2.151  10.639  17.947  0.00  0.00    +0.000 C 
ENDBRANCH   8  12
ENDBRANCH   3   6
ENDBRANCH   1   3
BRANCH   1  14
ATOM     14  C   UNL     1       3.722   5.637  18.651  0.00  0.00    +0.000 C 
BRANCH  14  15
ATOM     15  C   UNL     1       3.053   4.573  19.521  0.00  0.00    +0.000 A 
ATOM     16  C   UNL     1       1.703   4.694  19.899  0.00  0.00    +0.000 A 
ATOM     17  C   UNL     1       1.090   3.733  20.703  0.00  0.00    +0.000 A 
ATOM     18  C   UNL     1       1.812   2.623  21.135  0.00  0.00    +0.000 A 
ATOM     19  C   UNL     1       3.149   2.480  20.764  0.00  0.00    +0.000 A 
ATOM     20  C   UNL     1       3.768   3.448  19.970  0.00  0.00    +0.000 A 
ENDBRANCH  14  15
BRANCH  14  21
ATOM     21  C   UNL     1       4.753   5.011  17.728  0.00  0.00    +0.000 A 
ATOM     22  N   UNL     1       4.490   4.387  16.587  0.00  0.00    +0.000 NA
ATOM     23  C   UNL     1       5.699   4.046  16.052  0.00  0.00    +0.000 A 
ATOM     24  C   UNL     1       6.723   4.447  16.873  0.00  0.00    +0.000 A 
ATOM     25  N   UNL     1       6.113   5.042  17.945  0.00  0.00    +0.000 N 
ATOM     26  C   UNL     1       6.806   5.605  19.077  0.00  0.00    +0.000 C 
ENDBRANCH  14  21
ENDBRANCH   1  14
TORSDOF 7
ENDMDL
MODEL 8
REMARK VINA RESULT:      -7.3      1.854      4.651
REMARK  Name = 
REMARK  10 active torsions:
REMARK  status: ('A' for Active; 'I' for Inactive)
REMARK    1  A    between atoms: C_1  and  O_2
REMARK    2  A    between atoms: O_2  and  C_3
REMARK    3  A    between atoms: C_5  and  C_6
REMARK    4  A    between atoms: C_6  and  N_7
REMARK    5  A    between atoms: N_7  and  C_8
REMARK    6  A    between atoms: C_8  and  C_9
REMARK    7  A    between atoms: C_8  and  C_15
REMARK    8  A    between atoms: N_19  and  C_20
REMARK    9  A    between atoms: C_22  and  O_23
REMARK   10  A    between atoms: O_23  and  C_24
REMARK                            x       y       z     vdW  Elec       q    Type
REMARK                         _______ _______ _______ _____ _____    ______ ____
ROOT
ATOM      1  N   UNL     1       3.869   7.327  18.015  0.00  0.00    +0.000 NA
ATOM      2  H   UNL     1       3.925   8.319  18.245  0.00  0.00    +0.000 HD
ENDROOT
BRANCH   1   3
ATOM      3  C   UNL     1       4.234   7.195  16.604  0.00  0.00    +0.000 C 
BRANCH   3   6
ATOM      4  C   UNL     1       7.209   4.904  17.328  0.00  0.00    +0.000 A 
ATOM      5  C   UNL     1       6.201   5.859  17.483  0.00  0.00    +0.000 A 
ATOM      6  C   UNL     1       5.366   6.208  16.413  0.00  0.00    +0.000 A 
ATOM      7  C   UNL     1       5.575   5.589  15.172  0.00  0.00    +0.000 A 
ATOM      8  C   UNL     1       6.575   4.625  15.006  0.00  0.00    +0.000 A 
ATOM      9  C   UNL     1       7.394   4.288  16.087  0.00  0.00    +0.000 A 
BRANCH   4  11
ATOM     10  C   UNL     1       7.853   5.610  19.508  0.00  0.00    +0.000 C 
ATOM     11  O   UNL     1       7.933   4.648  18.463  0.00  0.00    +0.000 OA
ENDBRANCH   4  11
BRANCH   8  12
ATOM     12  O   UNL     1       6.644   4.078  13.751  0.00  0.00    +0.000 OA
ATOM     13  C   UNL     1       5.416   3.693  13.145  0.00  0.00    +0.000 C 
ENDBRANCH   8  12
ENDBRANCH   3   6
ENDBRANCH   1   3
BRANCH   1  14
ATOM     14  C   UNL     1       2.477   6.909  18.293  0.00  0.00    +0.000 C 
BRANCH  14  15
ATOM     15  C   UNL     1       2.452   5.416  18.623  0.00  0.00    +0.000 A 
ATOM     16  C   UNL     1       3.347   4.870  19.562  0.00  0.00    +0.000 A 
ATOM     17  C   UNL     1       3.338   3.507  19.859  0.00  0.00    +0.000 A 
ATOM     18  C   UNL     1       2.425   2.664  19.232  0.00  0.00    +0.000 A 
ATOM     19  C   UNL     1       1.523   3.187  18.304  0.00  0.00    +0.000 A 
ATOM     20  C   UNL     1       1.540   4.549  17.996  0.00  0.00    +0.000 A 
ENDBRANCH  14  15
BRANCH  14  21
ATOM     21  C   UNL     1       1.837   7.720  19.407  0.00  0.00    +0.000 A 
ATOM     22  N   UNL     1       1.669   7.313  20.658  0.00  0.00    +0.000 NA
ATOM     23  C   UNL     1       1.125   8.369  21.331  0.00  0.00    +0.000 A 
ATOM     24  C   UNL     1       0.937   9.437  20.489  0.00  0.00    +0.000 A 
ATOM     25  N   UNL     1       1.374   9.009  19.264  0.00  0.00    +0.000 N 
ATOM     26  C   UNL     1       1.352   9.803  18.061  0.00  0.00    +0.000 C 
ENDBRANCH  14  21
ENDBRANCH   1  14
TORSDOF 7
ENDMDL
MODEL 9
REMARK VINA RESULT:      -7.2      3.278      6.697
REMARK  Name = 
REMARK  10 active torsions:
REMARK  status: ('A' for Active; 'I' for Inactive)
REMARK    1  A    between atoms: C_1  and  O_2
REMARK    2  A    between atoms: O_2  and  C_3
REMARK    3  A    between atoms: C_5  and  C_6
REMARK    4  A    between atoms: C_6  and  N_7
REMARK    5  A    between atoms: N_7  and  C_8
REMARK    6  A    between atoms: C_8  and  C_9
REMARK    7  A    between atoms: C_8  and  C_15
REMARK    8  A    between atoms: N_19  and  C_20
REMARK    9  A    between atoms: C_22  and  O_23
REMARK   10  A    between atoms: O_23  and  C_24
REMARK                            x       y       z     vdW  Elec       q    Type
REMARK                         _______ _______ _______ _____ _____    ______ ____
ROOT
ATOM      1  N   UNL     1       2.324   6.593  17.927  0.00  0.00    +0.000 NA
ATOM      2  H   UNL     1       2.300   6.220  16.978  0.00  0.00    +0.000 HD
ENDROOT
BRANCH   1   3
ATOM      3  C   UNL     1       2.739   7.993  17.825  0.00  0.00    +0.000 C 
BRANCH   3   6
ATOM      4  C   UNL     1       0.641  10.927  19.094  0.00  0.00    +0.000 A 
ATOM      5  C   UNL     1       1.450  10.126  18.283  0.00  0.00    +0.000 A 
ATOM      6  C   UNL     1       1.918   8.884  18.731  0.00  0.00    +0.000 A 
ATOM      7  C   UNL     1       1.572   8.466  20.025  0.00  0.00    +0.000 A 
ATOM      8  C   UNL     1       0.756   9.254  20.843  0.00  0.00    +0.000 A 
ATOM      9  C   UNL     1       0.296  10.488  20.375  0.00  0.00    +0.000 A 
BRANCH   4  11
ATOM     10  C   UNL     1       1.199  13.154  18.466  0.00  0.00    +0.000 C 
ATOM     11  O   UNL     1       0.241  12.104  18.517  0.00  0.00    +0.000 OA
ENDBRANCH   4  11
BRANCH   8  12
ATOM     12  O   UNL     1       0.470   8.708  22.067  0.00  0.00    +0.000 OA
ATOM     13  C   UNL     1      -0.416   9.436  22.909  0.00  0.00    +0.000 C 
ENDBRANCH   8  12
ENDBRANCH   3   6
ENDBRANCH   1   3
BRANCH   1  14
ATOM     14  C   UNL     1       3.286   5.761  18.683  0.00  0.00    +0.000 C 
BRANCH  14  15
ATOM     15  C   UNL     1       2.522   4.709  19.489  0.00  0.00    +0.000 A 
ATOM     16  C   UNL     1       2.801   4.505  20.853  0.00  0.00    +0.000 A 
ATOM     17  C   UNL     1       2.117   3.538  21.592  0.00  0.00    +0.000 A 
ATOM     18  C   UNL     1       1.132   2.766  20.983  0.00  0.00    +0.000 A 
ATOM     19  C   UNL     1       0.834   2.959  19.634  0.00  0.00    +0.000 A 
ATOM     20  C   UNL     1       1.527   3.917  18.890  0.00  0.00    +0.000 A 
ENDBRANCH  14  15
BRANCH  14  21
ATOM     21  C   UNL     1       4.320   5.106  17.783  0.00  0.00    +0.000 A 
ATOM     22  N   UNL     1       4.082   4.585  16.586  0.00  0.00    +0.000 NA
ATOM     23  C   UNL     1       5.291   4.171  16.105  0.00  0.00    +0.000 A 
ATOM     24  C   UNL     1       6.288   4.422  17.015  0.00  0.00    +0.000 A 
ATOM     25  N   UNL     1       5.659   4.998  18.086  0.00  0.00    +0.000 N 
ATOM     26  C   UNL     1       6.319   5.418  19.297  0.00  0.00    +0.000 C 
ENDBRANCH  14  21
ENDBRANCH   1  14
TORSDOF 7
ENDMDL
