MODEL 1
REMARK VINA RESULT:      -7.9      0.000      0.000
REMARK  Name = 
REMARK  4 active torsions:
REMARK  status: ('A' for Active; 'I' for Inactive)
REMARK    1  A    between atoms: C_2  and  C_15
REMARK    2  A    between atoms: N_3  and  C_4
REMARK    3  A    between atoms: C_6  and  C_7
REMARK    4  A    between atoms: C_18  and  N_19
REMARK                            x       y       z     vdW  Elec       q    Type
REMARK                         _______ _______ _______ _____ _____    ______ ____
ROOT
ATOM      1  C   UNL     1       1.797   9.616  19.265  0.00  0.00    +0.000 C 
ATOM      2  C   UNL     1       0.862  10.515  18.438  0.00  0.00    +0.000 C 
ATOM      3  C   UNL     1      -0.619  10.254  18.701  0.00  0.00    +0.000 C 
ATOM      4  C   UNL     1      -1.000  10.173  20.185  0.00  0.00    +0.000 C 
ATOM      5  C   UNL     1      -0.096   9.206  20.952  0.00  0.00    +0.000 C 
ATOM      6  C   UNL     1       1.397   9.446  20.740  0.00  0.00    +0.000 C 
ENDROOT
BRANCH   4   7
ATOM      7  N   UNL     1      -1.113  11.487  20.831  0.00  0.00    +0.000 N 
ATOM      8  C   UNL     1      -0.888  11.786  22.147  0.00  0.00    +0.000 C 
ATOM      9  O   UNL     1      -0.559  11.101  23.095  0.00  0.00    +0.000 OA
ATOM     10  C   UNL     1      -1.128  13.205  22.315  0.00  0.00    +0.000 A 
ATOM     11  C   UNL     1      -0.999  13.981  23.447  0.00  0.00    +0.000 A 
ATOM     12  C   UNL     1      -1.299  15.335  23.319  0.00  0.00    +0.000 A 
ATOM     13  C   UNL     1      -1.721  15.865  22.081  0.00  0.00    +0.000 A 
ATOM     14  C   UNL     1      -1.841  15.047  20.946  0.00  0.00    +0.000 A 
ATOM     15  C   UNL     1      -1.531  13.710  21.098  0.00  0.00    +0.000 A 
ATOM     16  C   UNL     1      -1.534  12.606  20.147  0.00  0.00    +0.000 C 
ATOM     17  O   UNL     1      -1.856  12.721  18.978  0.00  0.00    +0.000 OA
ENDBRANCH   4   7
BRANCH   1  19
ATOM     18  O   UNL     1       1.420   8.048  17.471  0.00  0.00    +0.000 OA
ATOM     19  C   UNL     1       1.864   8.253  18.598  0.00  0.00    +0.000 C 
ATOM     20  N   UNL     1       2.474   7.282  19.371  0.00  0.00    +0.000 N 
ATOM     21  H   UNL     1       2.350   7.360  20.375  0.00  0.00    +0.000 HD
BRANCH  20  22
ATOM     22  C   UNL     1       2.709   5.994  18.853  0.00  0.00    +0.000 A 
ATOM     23  C   UNL     1       1.922   4.915  19.280  0.00  0.00    +0.000 A 
ATOM     24  C   UNL     1       2.158   3.620  18.803  0.00  0.00    +0.000 A 
ATOM     25  C   UNL     1       3.204   3.422  17.888  0.00  0.00    +0.000 A 
ATOM     26  C   UNL     1       3.985   4.499  17.449  0.00  0.00    +0.000 A 
ATOM     27  C   UNL     1       3.726   5.786  17.917  0.00  0.00    +0.000 A 
ATOM     28 CL   UNL     1       4.748   7.084  17.407  0.00  0.00    +0.000 Cl
BRANCH  24  29
ATOM     29  C   UNL     1       1.315   2.460  19.269  0.00  0.00    +0.000 C 
ATOM     30  F   UNL     1       0.187   2.267  18.532  0.00  0.00    +0.000 F 
ATOM     31  F   UNL     1       1.996   1.282  19.222  0.00  0.00    +0.000 F 
ATOM     32  F   UNL     1       0.902   2.601  20.558  0.00  0.00    +0.000 F 
ENDBRANCH  24  29
ENDBRANCH  20  22
ENDBRANCH   1  19
TORSDOF 4
ENDMDL
MODEL 2
REMARK VINA RESULT:      -7.8      1.902      2.604
REMARK  Name = 
REMARK  4 active torsions:
REMARK  status: ('A' for Active; 'I' for Inactive)
REMARK    1  A    between atoms: C_2  and  C_15
REMARK    2  A    between atoms: N_3  and  C_4
REMARK    3  A    between atoms: C_6  and  C_7
REMARK    4  A    between atoms: C_18  and  N_19
REMARK                            x       y       z     vdW  Elec       q    Type
REMARK                         _______ _______ _______ _____ _____    ______ ____
ROOT
ATOM      1  C   UNL     1       1.168   9.617  22.017  0.00  0.00    +0.000 C 
ATOM      2  C   UNL     1       1.092  10.715  20.944  0.00  0.00    +0.000 C 
ATOM      3  C   UNL     1      -0.337  11.065  20.535  0.00  0.00    +0.000 C 
ATOM      4  C   UNL     1      -1.302  11.285  21.707  0.00  0.00    +0.000 C 
ATOM      5  C   UNL     1      -1.253  10.130  22.709  0.00  0.00    +0.000 C 
ATOM      6  C   UNL     1       0.157   9.761  23.167  0.00  0.00    +0.000 C 
ENDROOT
BRANCH   4   7
ATOM      7  N   UNL     1      -1.157  12.601  22.342  0.00  0.00    +0.000 N 
ATOM      8  C   UNL     1      -0.202  13.546  22.081  0.00  0.00    +0.000 C 
ATOM      9  O   UNL     1       0.736  13.568  21.310  0.00  0.00    +0.000 OA
ATOM     10  C   UNL     1      -0.460  14.673  22.955  0.00  0.00    +0.000 A 
ATOM     11  C   UNL     1       0.205  15.878  23.040  0.00  0.00    +0.000 A 
ATOM     12  C   UNL     1      -0.264  16.791  23.981  0.00  0.00    +0.000 A 
ATOM     13  C   UNL     1      -1.366  16.473  24.804  0.00  0.00    +0.000 A 
ATOM     14  C   UNL     1      -2.023  15.238  24.691  0.00  0.00    +0.000 A 
ATOM     15  C   UNL     1      -1.541  14.354  23.746  0.00  0.00    +0.000 A 
ATOM     16  C   UNL     1      -1.983  13.018  23.363  0.00  0.00    +0.000 C 
ATOM     17  O   UNL     1      -2.917  12.439  23.885  0.00  0.00    +0.000 OA
ENDBRANCH   4   7
BRANCH   1  19
ATOM     18  O   UNL     1      -0.127   7.738  21.232  0.00  0.00    +0.000 OA
ATOM     19  C   UNL     1       0.975   8.271  21.340  0.00  0.00    +0.000 C 
ATOM     20  N   UNL     1       2.146   7.716  20.856  0.00  0.00    +0.000 N 
ATOM     21  H   UNL     1       2.991   7.913  21.383  0.00  0.00    +0.000 HD
BRANCH  20  22
ATOM     22  C   UNL     1       2.120   6.522  20.109  0.00  0.00    +0.000 A 
ATOM     23  C   UNL     1       1.981   5.291  20.764  0.00  0.00    +0.000 A 
ATOM     24  C   UNL     1       1.986   4.090  20.046  0.00  0.00    +0.000 A 
ATOM     25  C   UNL     1       2.135   4.143  18.651  0.00  0.00    +0.000 A 
ATOM     26  C   UNL     1       2.263   5.371  17.990  0.00  0.00    +0.000 A 
ATOM     27  C   UNL     1       2.237   6.560  18.717  0.00  0.00    +0.000 A 
ATOM     28 CL   UNL     1       2.461   8.057  17.881  0.00  0.00    +0.000 Cl
BRANCH  24  29
ATOM     29  C   UNL     1       1.843   2.766  20.754  0.00  0.00    +0.000 C 
ATOM     30  F   UNL     1       2.928   2.421  21.501  0.00  0.00    +0.000 F 
ATOM     31  F   UNL     1       0.785   2.757  21.611  0.00  0.00    +0.000 F 
ATOM     32  F   UNL     1       1.636   1.733  19.893  0.00  0.00    +0.000 F 
ENDBRANCH  24  29
ENDBRANCH  20  22
ENDBRANCH   1  19
TORSDOF 4
ENDMDL
MODEL 3
REMARK VINA RESULT:      -7.7      0.387      1.562
REMARK  Name = 
REMARK  4 active torsions:
REMARK  status: ('A' for Active; 'I' for Inactive)
REMARK    1  A    between atoms: C_2  and  C_15
REMARK    2  A    between atoms: N_3  and  C_4
REMARK    3  A    between atoms: C_6  and  C_7
REMARK    4  A    between atoms: C_18  and  N_19
REMARK                            x       y       z     vdW  Elec       q    Type
REMARK                         _______ _______ _______ _____ _____    ______ ____
ROOT
ATOM      1  C   UNL     1       1.826   9.651  19.404  0.00  0.00    +0.000 C 
ATOM      2  C   UNL     1       1.070  10.654  18.517  0.00  0.00    +0.000 C 
ATOM      3  C   UNL     1      -0.449  10.530  18.620  0.00  0.00    +0.000 C 
ATOM      4  C   UNL     1      -0.988  10.452  20.054  0.00  0.00    +0.000 C 
ATOM      5  C   UNL     1      -0.263   9.386  20.877  0.00  0.00    +0.000 C 
ATOM      6  C   UNL     1       1.260   9.486  20.825  0.00  0.00    +0.000 C 
ENDROOT
BRANCH   4   7
ATOM      7  N   UNL     1      -1.044  11.756  20.727  0.00  0.00    +0.000 N 
ATOM      8  C   UNL     1      -0.969  12.993  20.146  0.00  0.00    +0.000 C 
ATOM      9  O   UNL     1      -0.839  13.345  18.991  0.00  0.00    +0.000 OA
ATOM     10  C   UNL     1      -1.064  13.975  21.207  0.00  0.00    +0.000 A 
ATOM     11  C   UNL     1      -1.073  15.351  21.120  0.00  0.00    +0.000 A 
ATOM     12  C   UNL     1      -1.177  16.056  22.317  0.00  0.00    +0.000 A 
ATOM     13  C   UNL     1      -1.260  15.374  23.549  0.00  0.00    +0.000 A 
ATOM     14  C   UNL     1      -1.250  13.971  23.603  0.00  0.00    +0.000 A 
ATOM     15  C   UNL     1      -1.153  13.296  22.402  0.00  0.00    +0.000 A 
ATOM     16  C   UNL     1      -1.127  11.871  22.098  0.00  0.00    +0.000 C 
ATOM     17  O   UNL     1      -1.179  10.997  22.944  0.00  0.00    +0.000 OA
ENDBRANCH   4   7
BRANCH   1  19
ATOM     18  O   UNL     1       1.319   8.129  17.602  0.00  0.00    +0.000 OA
ATOM     19  C   UNL     1       1.834   8.303  18.704  0.00  0.00    +0.000 C 
ATOM     20  N   UNL     1       2.478   7.308  19.415  0.00  0.00    +0.000 N 
ATOM     21  H   UNL     1       2.417   7.363  20.427  0.00  0.00    +0.000 HD
BRANCH  20  22
ATOM     22  C   UNL     1       2.665   6.029  18.854  0.00  0.00    +0.000 A 
ATOM     23  C   UNL     1       1.886   4.951  19.297  0.00  0.00    +0.000 A 
ATOM     24  C   UNL     1       2.076   3.666  18.777  0.00  0.00    +0.000 A 
ATOM     25  C   UNL     1       3.067   3.476  17.801  0.00  0.00    +0.000 A 
ATOM     26  C   UNL     1       3.840   4.552  17.347  0.00  0.00    +0.000 A 
ATOM     27  C   UNL     1       3.627   5.830  17.859  0.00  0.00    +0.000 A 
ATOM     28 CL   UNL     1       4.640   7.126  17.326  0.00  0.00    +0.000 Cl
BRANCH  24  29
ATOM     29  C   UNL     1       1.241   2.507  19.260  0.00  0.00    +0.000 C 
ATOM     30  F   UNL     1       0.163   2.238  18.473  0.00  0.00    +0.000 F 
ATOM     31  F   UNL     1       1.957   1.350  19.316  0.00  0.00    +0.000 F 
ATOM     32  F   UNL     1       0.752   2.704  20.515  0.00  0.00    +0.000 F 
ENDBRANCH  24  29
ENDBRANCH  20  22
ENDBRANCH   1  19
TORSDOF 4
ENDMDL
MODEL 4
REMARK VINA RESULT:      -7.7      2.177      2.640
REMARK  Name = 
REMARK  4 active torsions:
REMARK  status: ('A' for Active; 'I' for Inactive)
REMARK    1  A    between atoms: C_2  and  C_15
REMARK    2  A    between atoms: N_3  and  C_4
REMARK    3  A    between atoms: C_6  and  C_7
REMARK    4  A    between atoms: C_18  and  N_19
REMARK                            x       y       z     vdW  Elec       q    Type
REMARK                         _______ _______ _______ _____ _____    ______ ____
ROOT
ATOM      1  C   UNL     1       1.940   9.532  19.409  0.00  0.00    +0.000 C 
ATOM      2  C   UNL     1       1.059  10.448  18.543  0.00  0.00    +0.000 C 
ATOM      3  C   UNL     1      -0.433  10.146  18.665  0.00  0.00    +0.000 C 
ATOM      4  C   UNL     1      -0.938   9.992  20.105  0.00  0.00    +0.000 C 
ATOM      5  C   UNL     1      -0.082   9.009  20.906  0.00  0.00    +0.000 C 
ATOM      6  C   UNL     1       1.418   9.288  20.835  0.00  0.00    +0.000 C 
ENDROOT
BRANCH   4   7
ATOM      7  N   UNL     1      -1.137  11.273  20.794  0.00  0.00    +0.000 N 
ATOM      8  C   UNL     1      -0.864  11.561  22.104  0.00  0.00    +0.000 C 
ATOM      9  O   UNL     1      -0.415  10.890  23.011  0.00  0.00    +0.000 OA
ATOM     10  C   UNL     1      -1.228  12.946  22.326  0.00  0.00    +0.000 A 
ATOM     11  C   UNL     1      -1.106  13.704  23.471  0.00  0.00    +0.000 A 
ATOM     12  C   UNL     1      -1.541  15.025  23.400  0.00  0.00    +0.000 A 
ATOM     13  C   UNL     1      -2.086  15.540  22.204  0.00  0.00    +0.000 A 
ATOM     14  C   UNL     1      -2.194  14.742  21.055  0.00  0.00    +0.000 A 
ATOM     15  C   UNL     1      -1.749  13.438  21.150  0.00  0.00    +0.000 A 
ATOM     16  C   UNL     1      -1.704  12.362  20.168  0.00  0.00    +0.000 C 
ATOM     17  O   UNL     1      -2.105  12.472  19.024  0.00  0.00    +0.000 OA
ENDBRANCH   4   7
BRANCH   1  19
ATOM     18  O   UNL     1       1.695   8.019  17.546  0.00  0.00    +0.000 OA
ATOM     19  C   UNL     1       2.096   8.201  18.693  0.00  0.00    +0.000 C 
ATOM     20  N   UNL     1       2.734   7.233  19.446  0.00  0.00    +0.000 N 
ATOM     21  H   UNL     1       2.578   7.264  20.449  0.00  0.00    +0.000 HD
BRANCH  20  22
ATOM     22  C   UNL     1       3.050   5.980  18.886  0.00  0.00    +0.000 A 
ATOM     23  C   UNL     1       4.036   5.886  17.895  0.00  0.00    +0.000 A 
ATOM     24  C   UNL     1       4.344   4.657  17.301  0.00  0.00    +0.000 A 
ATOM     25  C   UNL     1       3.641   3.515  17.717  0.00  0.00    +0.000 A 
ATOM     26  C   UNL     1       2.663   3.602  18.716  0.00  0.00    +0.000 A 
ATOM     27  C   UNL     1       2.380   4.829  19.312  0.00  0.00    +0.000 A 
ATOM     28 CL   UNL     1       1.123   4.915  20.496  0.00  0.00    +0.000 Cl
BRANCH  24  29
ATOM     29  C   UNL     1       5.401   4.560  16.230  0.00  0.00    +0.000 C 
ATOM     30  F   UNL     1       5.090   5.232  15.087  0.00  0.00    +0.000 F 
ATOM     31  F   UNL     1       6.596   5.066  16.643  0.00  0.00    +0.000 F 
ATOM     32  F   UNL     1       5.649   3.275  15.856  0.00  0.00    +0.000 F 
ENDBRANCH  24  29
ENDBRANCH  20  22
ENDBRANCH   1  19
TORSDOF 4
ENDMDL
MODEL 5
REMARK VINA RESULT:      -7.6      0.771      1.017
REMARK  Name = 
REMARK  4 active torsions:
REMARK  status: ('A' for Active; 'I' for Inactive)
REMARK    1  A    between atoms: C_2  and  C_15
REMARK    2  A    between atoms: N_3  and  C_4
REMARK    3  A    between atoms: C_6  and  C_7
REMARK    4  A    between atoms: C_18  and  N_19
REMARK                            x       y       z     vdW  Elec       q    Type
REMARK                         _______ _______ _______ _____ _____    ______ ____
ROOT
ATOM      1  C   UNL     1       1.804   9.686  19.326  0.00  0.00    +0.000 C 
ATOM      2  C   UNL     1       1.095  10.678  18.389  0.00  0.00    +0.000 C 
ATOM      3  C   UNL     1      -0.427  10.569  18.429  0.00  0.00    +0.000 C 
ATOM      4  C   UNL     1      -1.028  10.522  19.840  0.00  0.00    +0.000 C 
ATOM      5  C   UNL     1      -0.348   9.465  20.712  0.00  0.00    +0.000 C 
ATOM      6  C   UNL     1       1.177   9.552  20.724  0.00  0.00    +0.000 C 
ENDROOT
BRANCH   4   7
ATOM      7  N   UNL     1      -1.101  11.838  20.486  0.00  0.00    +0.000 N 
ATOM      8  C   UNL     1      -0.130  12.451  21.231  0.00  0.00    +0.000 C 
ATOM      9  O   UNL     1       0.990  12.108  21.554  0.00  0.00    +0.000 OA
ATOM     10  C   UNL     1      -0.659  13.729  21.663  0.00  0.00    +0.000 A 
ATOM     11  C   UNL     1      -0.047  14.719  22.402  0.00  0.00    +0.000 A 
ATOM     12  C   UNL     1      -0.801  15.858  22.674  0.00  0.00    +0.000 A 
ATOM     13  C   UNL     1      -2.129  15.970  22.210  0.00  0.00    +0.000 A 
ATOM     14  C   UNL     1      -2.722  14.944  21.458  0.00  0.00    +0.000 A 
ATOM     15  C   UNL     1      -1.951  13.829  21.197  0.00  0.00    +0.000 A 
ATOM     16  C   UNL     1      -2.242  12.610  20.452  0.00  0.00    +0.000 C 
ATOM     17  O   UNL     1      -3.312  12.382  19.919  0.00  0.00    +0.000 OA
ENDBRANCH   4   7
BRANCH   1  19
ATOM     18  O   UNL     1       1.339   8.130  17.541  0.00  0.00    +0.000 OA
ATOM     19  C   UNL     1       1.831   8.325  18.651  0.00  0.00    +0.000 C 
ATOM     20  N   UNL     1       2.461   7.345  19.394  0.00  0.00    +0.000 N 
ATOM     21  H   UNL     1       2.378   7.419  20.403  0.00  0.00    +0.000 HD
BRANCH  20  22
ATOM     22  C   UNL     1       2.662   6.056  18.861  0.00  0.00    +0.000 A 
ATOM     23  C   UNL     1       1.879   4.984  19.310  0.00  0.00    +0.000 A 
ATOM     24  C   UNL     1       2.083   3.690  18.819  0.00  0.00    +0.000 A 
ATOM     25  C   UNL     1       3.092   3.485  17.866  0.00  0.00    +0.000 A 
ATOM     26  C   UNL     1       3.870   4.555  17.405  0.00  0.00    +0.000 A 
ATOM     27  C   UNL     1       3.643   5.842  17.889  0.00  0.00    +0.000 A 
ATOM     28 CL   UNL     1       4.661   7.131  17.349  0.00  0.00    +0.000 Cl
BRANCH  24  29
ATOM     29  C   UNL     1       1.243   2.537  19.309  0.00  0.00    +0.000 C 
ATOM     30  F   UNL     1       0.753   2.709  20.568  0.00  0.00    +0.000 F 
ATOM     31  F   UNL     1       0.159   2.320  18.515  0.00  0.00    +0.000 F 
ATOM     32  F   UNL     1       1.931   1.363  19.330  0.00  0.00    +0.000 F 
ENDBRANCH  24  29
ENDBRANCH  20  22
ENDBRANCH   1  19
TORSDOF 4
ENDMDL
MODEL 6
REMARK VINA RESULT:      -7.5      1.821      2.256
REMARK  Name = 
REMARK  4 active torsions:
REMARK  status: ('A' for Active; 'I' for Inactive)
REMARK    1  A    between atoms: C_2  and  C_15
REMARK    2  A    between atoms: N_3  and  C_4
REMARK    3  A    between atoms: C_6  and  C_7
REMARK    4  A    between atoms: C_18  and  N_19
REMARK                            x       y       z     vdW  Elec       q    Type
REMARK                         _______ _______ _______ _____ _____    ______ ____
ROOT
ATOM      1  C   UNL     1       1.157   9.553  22.087  0.00  0.00    +0.000 C 
ATOM      2  C   UNL     1       1.457  10.651  21.054  0.00  0.00    +0.000 C 
ATOM      3  C   UNL     1       0.208  11.185  20.356  0.00  0.00    +0.000 C 
ATOM      4  C   UNL     1      -0.953  11.529  21.297  0.00  0.00    +0.000 C 
ATOM      5  C   UNL     1      -1.271  10.377  22.253  0.00  0.00    +0.000 C 
ATOM      6  C   UNL     1      -0.054   9.828  22.995  0.00  0.00    +0.000 C 
ENDROOT
BRANCH   4   7
ATOM      7  N   UNL     1      -0.783  12.815  21.985  0.00  0.00    +0.000 N 
ATOM      8  C   UNL     1      -1.412  13.234  23.127  0.00  0.00    +0.000 C 
ATOM      9  O   UNL     1      -2.235  12.704  23.846  0.00  0.00    +0.000 OA
ATOM     10  C   UNL     1      -0.930  14.568  23.420  0.00  0.00    +0.000 A 
ATOM     11  C   UNL     1      -1.240  15.391  24.483  0.00  0.00    +0.000 A 
ATOM     12  C   UNL     1      -0.621  16.638  24.514  0.00  0.00    +0.000 A 
ATOM     13  C   UNL     1       0.273  17.024  23.493  0.00  0.00    +0.000 A 
ATOM     14  C   UNL     1       0.569  16.162  22.425  0.00  0.00    +0.000 A 
ATOM     15  C   UNL     1      -0.053  14.929  22.421  0.00  0.00    +0.000 A 
ATOM     16  C   UNL     1       0.032  13.809  21.491  0.00  0.00    +0.000 C 
ATOM     17  O   UNL     1       0.720  13.816  20.487  0.00  0.00    +0.000 OA
ENDBRANCH   4   7
BRANCH   1  19
ATOM     18  O   UNL     1      -0.168   7.755  21.172  0.00  0.00    +0.000 OA
ATOM     19  C   UNL     1       0.947   8.243  21.347  0.00  0.00    +0.000 C 
ATOM     20  N   UNL     1       2.117   7.668  20.887  0.00  0.00    +0.000 N 
ATOM     21  H   UNL     1       2.945   7.812  21.455  0.00  0.00    +0.000 HD
BRANCH  20  22
ATOM     22  C   UNL     1       2.082   6.506  20.090  0.00  0.00    +0.000 A 
ATOM     23  C   UNL     1       1.947   5.248  20.693  0.00  0.00    +0.000 A 
ATOM     24  C   UNL     1       1.942   4.079  19.924  0.00  0.00    +0.000 A 
ATOM     25  C   UNL     1       2.078   4.192  18.531  0.00  0.00    +0.000 A 
ATOM     26  C   UNL     1       2.201   5.447  17.923  0.00  0.00    +0.000 A 
ATOM     27  C   UNL     1       2.185   6.604  18.699  0.00  0.00    +0.000 A 
ATOM     28 CL   UNL     1       2.403   8.135  17.926  0.00  0.00    +0.000 Cl
BRANCH  24  29
ATOM     29  C   UNL     1       1.804   2.727  20.576  0.00  0.00    +0.000 C 
ATOM     30  F   UNL     1       1.596   1.709  19.696  0.00  0.00    +0.000 F 
ATOM     31  F   UNL     1       2.917   2.384  21.282  0.00  0.00    +0.000 F 
ATOM     32  F   UNL     1       0.770   2.677  21.460  0.00  0.00    +0.000 F 
ENDBRANCH  24  29
ENDBRANCH  20  22
ENDBRANCH   1  19
TORSDOF 4
ENDMDL
MODEL 7
REMARK VINA RESULT:      -7.5      5.127      9.541
REMARK  Name = 
REMARK  4 active torsions:
REMARK  status: ('A' for Active; 'I' for Inactive)
REMARK    1  A    between atoms: C_2  and  C_15
REMARK    2  A    between atoms: N_3  and  C_4
REMARK    3  A    between atoms: C_6  and  C_7
REMARK    4  A    between atoms: C_18  and  N_19
REMARK                            x       y       z     vdW  Elec       q    Type
REMARK                         _______ _______ _______ _____ _____    ______ ____
ROOT
ATOM      1  C   UNL     1       0.108   9.517  19.315  0.00  0.00    +0.000 C 
ATOM      2  C   UNL     1       0.907   9.127  18.060  0.00  0.00    +0.000 C 
ATOM      3  C   UNL     1       2.380   8.841  18.343  0.00  0.00    +0.000 C 
ATOM      4  C   UNL     1       2.632   7.919  19.543  0.00  0.00    +0.000 C 
ATOM      5  C   UNL     1       1.883   8.390  20.791  0.00  0.00    +0.000 C 
ATOM      6  C   UNL     1       0.398   8.664  20.561  0.00  0.00    +0.000 C 
ENDROOT
BRANCH   4   7
ATOM      7  N   UNL     1       2.410   6.499  19.243  0.00  0.00    +0.000 N 
ATOM      8  C   UNL     1       1.712   5.592  19.994  0.00  0.00    +0.000 C 
ATOM      9  O   UNL     1       1.122   5.690  21.051  0.00  0.00    +0.000 OA
ATOM     10  C   UNL     1       1.771   4.321  19.301  0.00  0.00    +0.000 A 
ATOM     11  C   UNL     1       1.191   3.117  19.642  0.00  0.00    +0.000 A 
ATOM     12  C   UNL     1       1.414   2.046  18.781  0.00  0.00    +0.000 A 
ATOM     13  C   UNL     1       2.206   2.205  17.623  0.00  0.00    +0.000 A 
ATOM     14  C   UNL     1       2.781   3.445  17.304  0.00  0.00    +0.000 A 
ATOM     15  C   UNL     1       2.538   4.493  18.170  0.00  0.00    +0.000 A 
ATOM     16  C   UNL     1       2.961   5.888  18.138  0.00  0.00    +0.000 C 
ATOM     17  O   UNL     1       3.666   6.361  17.265  0.00  0.00    +0.000 OA
ENDBRANCH   4   7
BRANCH   1  19
ATOM     18  O   UNL     1       0.691  11.367  20.750  0.00  0.00    +0.000 OA
ATOM     19  C   UNL     1       0.386  10.978  19.625  0.00  0.00    +0.000 C 
ATOM     20  N   UNL     1       0.273  11.813  18.529  0.00  0.00    +0.000 N 
ATOM     21  H   UNL     1      -0.421  11.557  17.834  0.00  0.00    +0.000 HD
BRANCH  20  22
ATOM     22  C   UNL     1       0.604  13.179  18.629  0.00  0.00    +0.000 A 
ATOM     23  C   UNL     1       1.850  13.631  18.175  0.00  0.00    +0.000 A 
ATOM     24  C   UNL     1       2.214  14.978  18.294  0.00  0.00    +0.000 A 
ATOM     25  C   UNL     1       1.303  15.869  18.883  0.00  0.00    +0.000 A 
ATOM     26  C   UNL     1       0.052  15.424  19.328  0.00  0.00    +0.000 A 
ATOM     27  C   UNL     1      -0.304  14.084  19.185  0.00  0.00    +0.000 A 
ATOM     28 CL   UNL     1      -1.830  13.553  19.802  0.00  0.00    +0.000 Cl
BRANCH  24  29
ATOM     29  C   UNL     1       3.558  15.460  17.810  0.00  0.00    +0.000 C 
ATOM     30  F   UNL     1       4.083  16.470  18.557  0.00  0.00    +0.000 F 
ATOM     31  F   UNL     1       4.491  14.468  17.821  0.00  0.00    +0.000 F 
ATOM     32  F   UNL     1       3.517  15.920  16.530  0.00  0.00    +0.000 F 
ENDBRANCH  24  29
ENDBRANCH  20  22
ENDBRANCH   1  19
TORSDOF 4
ENDMDL
MODEL 8
REMARK VINA RESULT:      -7.5      2.235      3.097
REMARK  Name = 
REMARK  4 active torsions:
REMARK  status: ('A' for Active; 'I' for Inactive)
REMARK    1  A    between atoms: C_2  and  C_15
REMARK    2  A    between atoms: N_3  and  C_4
REMARK    3  A    between atoms: C_6  and  C_7
REMARK    4  A    between atoms: C_18  and  N_19
REMARK                            x       y       z     vdW  Elec       q    Type
REMARK                         _______ _______ _______ _____ _____    ______ ____
ROOT
ATOM      1  C   UNL     1       1.880   9.629  19.421  0.00  0.00    +0.000 C 
ATOM      2  C   UNL     1       1.071  10.605  18.551  0.00  0.00    +0.000 C 
ATOM      3  C   UNL     1      -0.436  10.370  18.616  0.00  0.00    +0.000 C 
ATOM      4  C   UNL     1      -0.996  10.205  20.035  0.00  0.00    +0.000 C 
ATOM      5  C   UNL     1      -0.212   9.165  20.838  0.00  0.00    +0.000 C 
ATOM      6  C   UNL     1       1.300   9.376  20.823  0.00  0.00    +0.000 C 
ENDROOT
BRANCH   4   7
ATOM      7  N   UNL     1      -1.159  11.477  20.749  0.00  0.00    +0.000 N 
ATOM      8  C   UNL     1      -1.219  12.732  20.204  0.00  0.00    +0.000 C 
ATOM      9  O   UNL     1      -1.155  13.127  19.057  0.00  0.00    +0.000 OA
ATOM     10  C   UNL     1      -1.380  13.669  21.297  0.00  0.00    +0.000 A 
ATOM     11  C   UNL     1      -1.523  15.040  21.252  0.00  0.00    +0.000 A 
ATOM     12  C   UNL     1      -1.662  15.698  22.472  0.00  0.00    +0.000 A 
ATOM     13  C   UNL     1      -1.646  14.977  23.684  0.00  0.00    +0.000 A 
ATOM     14  C   UNL     1      -1.500  13.581  23.695  0.00  0.00    +0.000 A 
ATOM     15  C   UNL     1      -1.370  12.952  22.472  0.00  0.00    +0.000 A 
ATOM     16  C   UNL     1      -1.216  11.545  22.124  0.00  0.00    +0.000 C 
ATOM     17  O   UNL     1      -1.160  10.648  22.944  0.00  0.00    +0.000 OA
ENDBRANCH   4   7
BRANCH   1  19
ATOM     18  O   UNL     1       1.516   8.136  17.561  0.00  0.00    +0.000 OA
ATOM     19  C   UNL     1       2.000   8.310  18.678  0.00  0.00    +0.000 C 
ATOM     20  N   UNL     1       2.704   7.341  19.368  0.00  0.00    +0.000 N 
ATOM     21  H   UNL     1       2.623   7.357  20.380  0.00  0.00    +0.000 HD
BRANCH  20  22
ATOM     22  C   UNL     1       2.993   6.099  18.769  0.00  0.00    +0.000 A 
ATOM     23  C   UNL     1       3.948   6.023  17.746  0.00  0.00    +0.000 A 
ATOM     24  C   UNL     1       4.228   4.806  17.114  0.00  0.00    +0.000 A 
ATOM     25  C   UNL     1       3.530   3.660  17.525  0.00  0.00    +0.000 A 
ATOM     26  C   UNL     1       2.584   3.728  18.555  0.00  0.00    +0.000 A 
ATOM     27  C   UNL     1       2.329   4.943  19.189  0.00  0.00    +0.000 A 
ATOM     28 CL   UNL     1       1.110   5.009  20.413  0.00  0.00    +0.000 Cl
BRANCH  24  29
ATOM     29  C   UNL     1       5.250   4.728  16.008  0.00  0.00    +0.000 C 
ATOM     30  F   UNL     1       6.407   4.106  16.369  0.00  0.00    +0.000 F 
ATOM     31  F   UNL     1       4.784   4.043  14.928  0.00  0.00    +0.000 F 
ATOM     32  F   UNL     1       5.612   5.955  15.545  0.00  0.00    +0.000 F 
ENDBRANCH  24  29
ENDBRANCH  20  22
ENDBRANCH   1  19
TORSDOF 4
ENDMDL
MODEL 9
REMARK VINA RESULT:      -7.3      2.872      3.746
REMARK  Name = 
REMARK  4 active torsions:
REMARK  status: ('A' for Active; 'I' for Inactive)
REMARK    1  A    between atoms: C_2  and  C_15
REMARK    2  A    between atoms: N_3  and  C_4
REMARK    3  A    between atoms: C_6  and  C_7
REMARK    4  A    between atoms: C_18  and  N_19
REMARK                            x       y       z     vdW  Elec       q    Type
REMARK                         _______ _______ _______ _____ _____    ______ ____
ROOT
ATOM      1  C   UNL     1       0.393  10.682  18.435  0.00  0.00    +0.000 C 
ATOM      2  C   UNL     1      -0.613   9.978  19.362  0.00  0.00    +0.000 C 
ATOM      3  C   UNL     1      -0.273  10.121  20.844  0.00  0.00    +0.000 C 
ATOM      4  C   UNL     1       0.073  11.549  21.286  0.00  0.00    +0.000 C 
ATOM      5  C   UNL     1       1.136  12.181  20.385  0.00  0.00    +0.000 C 
ATOM      6  C   UNL     1       0.826  12.085  18.893  0.00  0.00    +0.000 C 
ENDROOT
BRANCH   4   7
ATOM      7  N   UNL     1      -1.106  12.404  21.469  0.00  0.00    +0.000 N 
ATOM      8  C   UNL     1      -2.168  12.546  20.617  0.00  0.00    +0.000 C 
ATOM      9  O   UNL     1      -2.423  12.045  19.541  0.00  0.00    +0.000 OA
ATOM     10  C   UNL     1      -3.079  13.499  21.218  0.00  0.00    +0.000 A 
ATOM     11  C   UNL     1      -4.303  13.940  20.760  0.00  0.00    +0.000 A 
ATOM     12  C   UNL     1      -4.972  14.871  21.551  0.00  0.00    +0.000 A 
ATOM     13  C   UNL     1      -4.403  15.332  22.757  0.00  0.00    +0.000 A 
ATOM     14  C   UNL     1      -3.156  14.861  23.196  0.00  0.00    +0.000 A 
ATOM     15  C   UNL     1      -2.517  13.934  22.397  0.00  0.00    +0.000 A 
ATOM     16  C   UNL     1      -1.243  13.242  22.554  0.00  0.00    +0.000 C 
ATOM     17  O   UNL     1      -0.491  13.415  23.495  0.00  0.00    +0.000 OA
ENDBRANCH   4   7
BRANCH   1  19
ATOM     18  O   UNL     1       2.739  10.248  18.080  0.00  0.00    +0.000 OA
ATOM     19  C   UNL     1       1.617   9.795  18.295  0.00  0.00    +0.000 C 
ATOM     20  N   UNL     1       1.349   8.446  18.439  0.00  0.00    +0.000 N 
ATOM     21  H   UNL     1       0.441   8.128  18.115  0.00  0.00    +0.000 HD
BRANCH  20  22
ATOM     22  C   UNL     1       2.395   7.502  18.442  0.00  0.00    +0.000 A 
ATOM     23  C   UNL     1       3.245   7.397  17.333  0.00  0.00    +0.000 A 
ATOM     24  C   UNL     1       4.270   6.445  17.300  0.00  0.00    +0.000 A 
ATOM     25  C   UNL     1       4.429   5.591  18.403  0.00  0.00    +0.000 A 
ATOM     26  C   UNL     1       3.589   5.699  19.519  0.00  0.00    +0.000 A 
ATOM     27  C   UNL     1       2.585   6.665  19.546  0.00  0.00    +0.000 A 
ATOM     28 CL   UNL     1       1.524   6.732  20.909  0.00  0.00    +0.000 Cl
BRANCH  24  29
ATOM     29  C   UNL     1       5.179   6.330  16.103  0.00  0.00    +0.000 C 
ATOM     30  F   UNL     1       5.204   5.088  15.546  0.00  0.00    +0.000 F 
ATOM     31  F   UNL     1       4.814   7.178  15.101  0.00  0.00    +0.000 F 
ATOM     32  F   UNL     1       6.472   6.636  16.398  0.00  0.00    +0.000 F 
ENDBRANCH  24  29
ENDBRANCH  20  22
ENDBRANCH   1  19
TORSDOF 4
ENDMDL
