MODEL 1
REMARK VINA RESULT:      -8.1      0.000      0.000
REMARK  Name = 
REMARK  10 active torsions:
REMARK  status: ('A' for Active; 'I' for Inactive)
REMARK    1  A    between atoms: C_1  and  O_2
REMARK    2  A    between atoms: O_2  and  C_3
REMARK    3  A    between atoms: C_9  and  N_10
REMARK    4  A    between atoms: C_11  and  C_13
REMARK    5  A    between atoms: C_13  and  O_14
REMARK    6  A    between atoms: O_14  and  C_15
REMARK    7  A    between atoms: C_15  and  C_17
REMARK    8  A    between atoms: C_17  and  C_18
REMARK    9  A    between atoms: C_18  and  C_19
REMARK   10  A    between atoms: C_19  and  C_20
REMARK                            x       y       z     vdW  Elec       q    Type
REMARK                         _______ _______ _______ _____ _____    ______ ____
ROOT
ATOM      1  C   UNL     1       1.678   5.117  18.112  0.00  0.00    +0.000 C 
ATOM      2  O   UNL     1       1.276   4.372  17.226  0.00  0.00    +0.000 OA
ENDROOT
BRANCH   1   3
ATOM      3  O   UNL     1       2.243   6.333  17.898  0.00  0.00    +0.000 OA
BRANCH   3   4
ATOM      4  C   UNL     1       2.449   7.261  18.983  0.00  0.00    +0.000 C 
BRANCH   4   6
ATOM      5  N   UNL     1       1.118   9.317  19.354  0.00  0.00    +0.000 N 
ATOM      6  C   UNL     1       1.881   8.562  18.436  0.00  0.00    +0.000 C 
ATOM      7  O   UNL     1       2.163   8.909  17.290  0.00  0.00    +0.000 OA
ATOM      8  H   UNL     1       1.138   9.013  20.305  0.00  0.00    +0.000 HD
BRANCH   5  15
ATOM      9  C   UNL     1      -0.713  10.800  18.422  0.00  0.00    +0.000 A 
ATOM     10  C   UNL     1      -1.169  12.106  18.149  0.00  0.00    +0.000 A 
ATOM     11  C   UNL     1      -0.444  13.210  18.534  0.00  0.00    +0.000 A 
ATOM     12  C   UNL     1       0.760  13.022  19.206  0.00  0.00    +0.000 A 
ATOM     13 CL   UNL     1       1.629  14.401  19.765  0.00  0.00    +0.000 Cl
ATOM     14  C   UNL     1       1.248  11.741  19.448  0.00  0.00    +0.000 A 
ATOM     15  C   UNL     1       0.547  10.600  19.070  0.00  0.00    +0.000 A 
BRANCH   9  17
ATOM     16  C   UNL     1      -2.688  10.144  17.350  0.00  0.00    +0.000 C 
ATOM     17  O   UNL     1      -1.598   9.771  18.213  0.00  0.00    +0.000 OA
ENDBRANCH   9  17
ENDBRANCH   5  15
ENDBRANCH   4   6
ENDBRANCH   3   4
ENDBRANCH   1   3
BRANCH   1  18
ATOM     18  C   UNL     1       1.693   4.793  19.609  0.00  0.00    +0.000 C 
BRANCH  18  19
ATOM     19  C   UNL     1       2.668   3.632  20.040  0.00  0.00    +0.000 C 
BRANCH  19  20
ATOM     20  C   UNL     1       4.201   3.392  19.404  0.00  0.00    +0.000 C 
BRANCH  20  21
ATOM     21  C   UNL     1       5.233   4.574  19.502  0.00  0.00    +0.000 C 
ATOM     22  N   UNL     1       6.160   5.590  19.564  0.00  0.00    +0.000 NA
ATOM     23  S   UNL     1       7.585   5.746  18.484  0.00  0.00    +0.000 S 
ATOM     24  O   UNL     1       8.548   4.763  18.965  0.00  0.00    +0.000 OA
ATOM     25  O   UNL     1       7.938   7.127  18.268  0.00  0.00    +0.000 OA
ATOM     26  C   UNL     1       6.968   5.084  16.932  0.00  0.00    +0.000 A 
ATOM     27  C   UNL     1       7.344   5.036  15.617  0.00  0.00    +0.000 A 
ATOM     28  C   UNL     1       6.443   4.436  14.689  0.00  0.00    +0.000 A 
ATOM     29  C   UNL     1       5.150   4.055  15.061  0.00  0.00    +0.000 A 
ATOM     30  C   UNL     1       4.829   4.113  16.381  0.00  0.00    +0.000 A 
ATOM     31  C   UNL     1       5.871   4.369  17.256  0.00  0.00    +0.000 A 
ATOM     32  N   UNL     1       5.944   3.859  18.546  0.00  0.00    +0.000 N 
ATOM     33  H   UNL     1       6.858   3.643  18.931  0.00  0.00    +0.000 HD
ENDBRANCH  20  21
ENDBRANCH  19  20
ENDBRANCH  18  19
ENDBRANCH   1  18
TORSDOF 9
ENDMDL
MODEL 2
REMARK VINA RESULT:      -8.0      3.710      8.627
REMARK  Name = 
REMARK  10 active torsions:
REMARK  status: ('A' for Active; 'I' for Inactive)
REMARK    1  A    between atoms: C_1  and  O_2
REMARK    2  A    between atoms: O_2  and  C_3
REMARK    3  A    between atoms: C_9  and  N_10
REMARK    4  A    between atoms: C_11  and  C_13
REMARK    5  A    between atoms: C_13  and  O_14
REMARK    6  A    between atoms: O_14  and  C_15
REMARK    7  A    between atoms: C_15  and  C_17
REMARK    8  A    between atoms: C_17  and  C_18
REMARK    9  A    between atoms: C_18  and  C_19
REMARK   10  A    between atoms: C_19  and  C_20
REMARK                            x       y       z     vdW  Elec       q    Type
REMARK                         _______ _______ _______ _____ _____    ______ ____
ROOT
ATOM      1  C   UNL     1       1.669   2.815  20.860  0.00  0.00    +0.000 C 
ATOM      2  O   UNL     1       2.012   2.539  22.004  0.00  0.00    +0.000 OA
ENDROOT
BRANCH   1   3
ATOM      3  O   UNL     1       1.881   2.019  19.780  0.00  0.00    +0.000 OA
BRANCH   3   4
ATOM      4  C   UNL     1       1.673   2.511  18.440  0.00  0.00    +0.000 C 
BRANCH   4   6
ATOM      5  N   UNL     1       3.413   3.817  17.254  0.00  0.00    +0.000 N 
ATOM      6  C   UNL     1       3.085   2.594  17.881  0.00  0.00    +0.000 C 
ATOM      7  O   UNL     1       3.860   1.655  18.058  0.00  0.00    +0.000 OA
ATOM      8  H   UNL     1       2.755   4.560  17.358  0.00  0.00    +0.000 HD
BRANCH   5  15
ATOM      9  C   UNL     1       5.795   4.649  17.486  0.00  0.00    +0.000 A 
ATOM     10  C   UNL     1       7.015   4.967  16.856  0.00  0.00    +0.000 A 
ATOM     11  C   UNL     1       7.203   4.747  15.510  0.00  0.00    +0.000 A 
ATOM     12  C   UNL     1       6.161   4.200  14.768  0.00  0.00    +0.000 A 
ATOM     13 CL   UNL     1       6.419   3.843  13.102  0.00  0.00    +0.000 Cl
ATOM     14  C   UNL     1       4.934   3.919  15.363  0.00  0.00    +0.000 A 
ATOM     15  C   UNL     1       4.704   4.131  16.719  0.00  0.00    +0.000 A 
BRANCH   9  17
ATOM     16  C   UNL     1       6.884   5.407  19.415  0.00  0.00    +0.000 C 
ATOM     17  O   UNL     1       5.772   4.682  18.859  0.00  0.00    +0.000 OA
ENDBRANCH   9  17
ENDBRANCH   5  15
ENDBRANCH   4   6
ENDBRANCH   3   4
ENDBRANCH   1   3
BRANCH   1  18
ATOM     18  C   UNL     1       1.014   4.127  20.419  0.00  0.00    +0.000 C 
BRANCH  18  19
ATOM     19  C   UNL     1       1.956   5.391  20.432  0.00  0.00    +0.000 C 
BRANCH  19  20
ATOM     20  C   UNL     1       1.502   6.910  20.978  0.00  0.00    +0.000 C 
BRANCH  20  21
ATOM     21  C   UNL     1       1.697   8.132  20.008  0.00  0.00    +0.000 C 
ATOM     22  N   UNL     1       1.831   9.210  19.164  0.00  0.00    +0.000 NA
ATOM     23  S   UNL     1       0.600  10.497  18.938  0.00  0.00    +0.000 S 
ATOM     24  O   UNL     1      -0.437   9.901  18.104  0.00  0.00    +0.000 OA
ATOM     25  O   UNL     1       1.209  11.765  18.621  0.00  0.00    +0.000 OA
ATOM     26  C   UNL     1      -0.128  10.627  20.575  0.00  0.00    +0.000 A 
ATOM     27  C   UNL     1      -0.954  11.473  21.266  0.00  0.00    +0.000 A 
ATOM     28  C   UNL     1      -1.197  11.187  22.641  0.00  0.00    +0.000 A 
ATOM     29  C   UNL     1      -0.500  10.183  23.319  0.00  0.00    +0.000 A 
ATOM     30  C   UNL     1       0.301   9.365  22.587  0.00  0.00    +0.000 A 
ATOM     31  C   UNL     1       0.208   9.485  21.210  0.00  0.00    +0.000 A 
ATOM     32  N   UNL     1       0.377   8.427  20.326  0.00  0.00    +0.000 N 
ATOM     33  H   UNL     1      -0.162   8.424  19.465  0.00  0.00    +0.000 HD
ENDBRANCH  20  21
ENDBRANCH  19  20
ENDBRANCH  18  19
ENDBRANCH   1  18
TORSDOF 9
ENDMDL
MODEL 3
REMARK VINA RESULT:      -7.9      1.989      2.492
REMARK  Name = 
REMARK  10 active torsions:
REMARK  status: ('A' for Active; 'I' for Inactive)
REMARK    1  A    between atoms: C_1  and  O_2
REMARK    2  A    between atoms: O_2  and  C_3
REMARK    3  A    between atoms: C_9  and  N_10
REMARK    4  A    between atoms: C_11  and  C_13
REMARK    5  A    between atoms: C_13  and  O_14
REMARK    6  A    between atoms: O_14  and  C_15
REMARK    7  A    between atoms: C_15  and  C_17
REMARK    8  A    between atoms: C_17  and  C_18
REMARK    9  A    between atoms: C_18  and  C_19
REMARK   10  A    between atoms: C_19  and  C_20
REMARK                            x       y       z     vdW  Elec       q    Type
REMARK                         _______ _______ _______ _____ _____    ______ ____
ROOT
ATOM      1  C   UNL     1       1.850   4.937  20.689  0.00  0.00    +0.000 C 
ATOM      2  O   UNL     1       2.190   4.231  21.632  0.00  0.00    +0.000 OA
ENDROOT
BRANCH   1   3
ATOM      3  O   UNL     1       1.617   6.272  20.772  0.00  0.00    +0.000 OA
BRANCH   3   4
ATOM      4  C   UNL     1       2.268   7.200  19.880  0.00  0.00    +0.000 C 
BRANCH   4   6
ATOM      5  N   UNL     1       1.174   9.080  18.696  0.00  0.00    +0.000 N 
ATOM      6  C   UNL     1       1.362   8.420  19.930  0.00  0.00    +0.000 C 
ATOM      7  O   UNL     1       0.807   8.716  20.987  0.00  0.00    +0.000 OA
ATOM      8  H   UNL     1       1.526   8.616  17.885  0.00  0.00    +0.000 HD
BRANCH   5  15
ATOM      9  C   UNL     1       0.653  11.555  18.844  0.00  0.00    +0.000 A 
ATOM     10  C   UNL     1      -0.285  12.592  18.655  0.00  0.00    +0.000 A 
ATOM     11  C   UNL     1      -1.521  12.344  18.103  0.00  0.00    +0.000 A 
ATOM     12  C   UNL     1      -1.840  11.044  17.728  0.00  0.00    +0.000 A 
ATOM     13 CL   UNL     1      -3.353  10.744  16.959  0.00  0.00    +0.000 Cl
ATOM     14  C   UNL     1      -0.946   9.999  17.945  0.00  0.00    +0.000 A 
ATOM     15  C   UNL     1       0.312  10.208  18.505  0.00  0.00    +0.000 A 
BRANCH   9  17
ATOM     16  C   UNL     1       2.548  12.763  18.188  0.00  0.00    +0.000 C 
ATOM     17  O   UNL     1       1.933  11.922  19.180  0.00  0.00    +0.000 OA
ENDBRANCH   9  17
ENDBRANCH   5  15
ENDBRANCH   4   6
ENDBRANCH   3   4
ENDBRANCH   1   3
BRANCH   1  18
ATOM     18  C   UNL     1       1.552   4.443  19.271  0.00  0.00    +0.000 C 
BRANCH  18  19
ATOM     19  C   UNL     1       2.309   3.130  18.838  0.00  0.00    +0.000 C 
BRANCH  19  20
ATOM     20  C   UNL     1       3.903   3.078  18.321  0.00  0.00    +0.000 C 
BRANCH  20  21
ATOM     21  C   UNL     1       4.840   4.284  18.697  0.00  0.00    +0.000 C 
ATOM     22  N   UNL     1       5.687   5.324  19.005  0.00  0.00    +0.000 NA
ATOM     23  S   UNL     1       7.259   5.640  18.199  0.00  0.00    +0.000 S 
ATOM     24  O   UNL     1       8.182   4.652  18.745  0.00  0.00    +0.000 OA
ATOM     25  O   UNL     1       7.568   7.048  18.170  0.00  0.00    +0.000 OA
ATOM     26  C   UNL     1       6.942   5.108  16.512  0.00  0.00    +0.000 A 
ATOM     27  C   UNL     1       7.532   5.203  15.280  0.00  0.00    +0.000 A 
ATOM     28  C   UNL     1       6.828   4.662  14.164  0.00  0.00    +0.000 A 
ATOM     29  C   UNL     1       5.515   4.196  14.277  0.00  0.00    +0.000 A 
ATOM     30  C   UNL     1       4.979   4.114  15.524  0.00  0.00    +0.000 A 
ATOM     31  C   UNL     1       5.848   4.323  16.582  0.00  0.00    +0.000 A 
ATOM     32  N   UNL     1       5.735   3.693  17.814  0.00  0.00    +0.000 N 
ATOM     33  H   UNL     1       6.585   3.476  18.327  0.00  0.00    +0.000 HD
ENDBRANCH  20  21
ENDBRANCH  19  20
ENDBRANCH  18  19
ENDBRANCH   1  18
TORSDOF 9
ENDMDL
MODEL 4
REMARK VINA RESULT:      -7.8      1.640      2.215
REMARK  Name = 
REMARK  10 active torsions:
REMARK  status: ('A' for Active; 'I' for Inactive)
REMARK    1  A    between atoms: C_1  and  O_2
REMARK    2  A    between atoms: O_2  and  C_3
REMARK    3  A    between atoms: C_9  and  N_10
REMARK    4  A    between atoms: C_11  and  C_13
REMARK    5  A    between atoms: C_13  and  O_14
REMARK    6  A    between atoms: O_14  and  C_15
REMARK    7  A    between atoms: C_15  and  C_17
REMARK    8  A    between atoms: C_17  and  C_18
REMARK    9  A    between atoms: C_18  and  C_19
REMARK   10  A    between atoms: C_19  and  C_20
REMARK                            x       y       z     vdW  Elec       q    Type
REMARK                         _______ _______ _______ _____ _____    ______ ____
ROOT
ATOM      1  C   UNL     1       1.739   5.746  19.951  0.00  0.00    +0.000 C 
ATOM      2  O   UNL     1       1.511   6.369  20.982  0.00  0.00    +0.000 OA
ENDROOT
BRANCH   1   3
ATOM      3  O   UNL     1       2.198   6.302  18.801  0.00  0.00    +0.000 OA
BRANCH   3   4
ATOM      4  C   UNL     1       3.000   7.501  18.821  0.00  0.00    +0.000 C 
BRANCH   4   6
ATOM      5  N   UNL     1       1.124   9.055  19.270  0.00  0.00    +0.000 N 
ATOM      6  C   UNL     1       2.040   8.566  18.313  0.00  0.00    +0.000 C 
ATOM      7  O   UNL     1       2.153   8.980  17.160  0.00  0.00    +0.000 OA
ATOM      8  H   UNL     1       1.276   8.773  20.216  0.00  0.00    +0.000 HD
BRANCH   5  15
ATOM      9  C   UNL     1       0.124  11.333  19.751  0.00  0.00    +0.000 A 
ATOM     10  C   UNL     1      -0.875  12.285  19.459  0.00  0.00    +0.000 A 
ATOM     11  C   UNL     1      -1.784  12.078  18.448  0.00  0.00    +0.000 A 
ATOM     12  C   UNL     1      -1.708  10.903  17.706  0.00  0.00    +0.000 A 
ATOM     13 CL   UNL     1      -2.791  10.678  16.385  0.00  0.00    +0.000 Cl
ATOM     14  C   UNL     1      -0.757   9.932  18.006  0.00  0.00    +0.000 A 
ATOM     15  C   UNL     1       0.178  10.102  19.024  0.00  0.00    +0.000 A 
BRANCH   9  17
ATOM     16  C   UNL     1       1.940  12.776  20.074  0.00  0.00    +0.000 C 
ATOM     17  O   UNL     1       1.124  11.718  20.610  0.00  0.00    +0.000 OA
ENDBRANCH   9  17
ENDBRANCH   5  15
ENDBRANCH   4   6
ENDBRANCH   3   4
ENDBRANCH   1   3
BRANCH   1  18
ATOM     18  C   UNL     1       1.481   4.252  19.740  0.00  0.00    +0.000 C 
BRANCH  18  19
ATOM     19  C   UNL     1       2.713   3.306  20.015  0.00  0.00    +0.000 C 
BRANCH  19  20
ATOM     20  C   UNL     1       4.123   3.294  19.108  0.00  0.00    +0.000 C 
BRANCH  20  21
ATOM     21  C   UNL     1       5.147   4.468  19.321  0.00  0.00    +0.000 C 
ATOM     22  N   UNL     1       6.067   5.479  19.484  0.00  0.00    +0.000 NA
ATOM     23  S   UNL     1       7.544   5.692  18.486  0.00  0.00    +0.000 S 
ATOM     24  O   UNL     1       8.483   4.684  18.960  0.00  0.00    +0.000 OA
ATOM     25  O   UNL     1       7.905   7.083  18.362  0.00  0.00    +0.000 OA
ATOM     26  C   UNL     1       7.006   5.115  16.872  0.00  0.00    +0.000 A 
ATOM     27  C   UNL     1       7.448   5.138  15.576  0.00  0.00    +0.000 A 
ATOM     28  C   UNL     1       6.595   4.590  14.574  0.00  0.00    +0.000 A 
ATOM     29  C   UNL     1       5.286   4.190  14.860  0.00  0.00    +0.000 A 
ATOM     30  C   UNL     1       4.899   4.177  16.163  0.00  0.00    +0.000 A 
ATOM     31  C   UNL     1       5.896   4.385  17.102  0.00  0.00    +0.000 A 
ATOM     32  N   UNL     1       5.905   3.805  18.364  0.00  0.00    +0.000 N 
ATOM     33  H   UNL     1       6.800   3.568  18.782  0.00  0.00    +0.000 HD
ENDBRANCH  20  21
ENDBRANCH  19  20
ENDBRANCH  18  19
ENDBRANCH   1  18
TORSDOF 9
ENDMDL
MODEL 5
REMARK VINA RESULT:      -7.6      1.117      1.188
REMARK  Name = 
REMARK  10 active torsions:
REMARK  status: ('A' for Active; 'I' for Inactive)
REMARK    1  A    between atoms: C_1  and  O_2
REMARK    2  A    between atoms: O_2  and  C_3
REMARK    3  A    between atoms: C_9  and  N_10
REMARK    4  A    between atoms: C_11  and  C_13
REMARK    5  A    between atoms: C_13  and  O_14
REMARK    6  A    between atoms: O_14  and  C_15
REMARK    7  A    between atoms: C_15  and  C_17
REMARK    8  A    between atoms: C_17  and  C_18
REMARK    9  A    between atoms: C_18  and  C_19
REMARK   10  A    between atoms: C_19  and  C_20
REMARK                            x       y       z     vdW  Elec       q    Type
REMARK                         _______ _______ _______ _____ _____    ______ ____
ROOT
ATOM      1  C   UNL     1       1.627   5.121  19.769  0.00  0.00    +0.000 C 
ATOM      2  O   UNL     1       1.121   4.505  20.700  0.00  0.00    +0.000 OA
ENDROOT
BRANCH   1   3
ATOM      3  O   UNL     1       2.216   6.339  19.882  0.00  0.00    +0.000 OA
BRANCH   3   4
ATOM      4  C   UNL     1       2.387   7.195  18.733  0.00  0.00    +0.000 C 
BRANCH   4   6
ATOM      5  N   UNL     1       1.616   9.484  18.184  0.00  0.00    +0.000 N 
ATOM      6  C   UNL     1       1.796   8.517  19.198  0.00  0.00    +0.000 C 
ATOM      7  O   UNL     1       1.453   8.645  20.372  0.00  0.00    +0.000 OA
ATOM      8  H   UNL     1       1.753   9.175  17.245  0.00  0.00    +0.000 HD
BRANCH   5  15
ATOM      9  C   UNL     1      -0.390  11.022  18.358  0.00  0.00    +0.000 A 
ATOM     10  C   UNL     1      -0.878  12.333  18.530  0.00  0.00    +0.000 A 
ATOM     11  C   UNL     1      -0.026  13.386  18.776  0.00  0.00    +0.000 A 
ATOM     12  C   UNL     1       1.341  13.139  18.853  0.00  0.00    +0.000 A 
ATOM     13 CL   UNL     1       2.404  14.438  19.244  0.00  0.00    +0.000 Cl
ATOM     14  C   UNL     1       1.846  11.859  18.644  0.00  0.00    +0.000 A 
ATOM     15  C   UNL     1       1.018  10.770  18.389  0.00  0.00    +0.000 A 
BRANCH   9  17
ATOM     16  C   UNL     1      -2.064   9.947  17.123  0.00  0.00    +0.000 C 
ATOM     17  O   UNL     1      -1.314  10.006  18.350  0.00  0.00    +0.000 OA
ENDBRANCH   9  17
ENDBRANCH   5  15
ENDBRANCH   4   6
ENDBRANCH   3   4
ENDBRANCH   1   3
BRANCH   1  18
ATOM     18  C   UNL     1       1.624   4.679  18.303  0.00  0.00    +0.000 C 
BRANCH  18  19
ATOM     19  C   UNL     1       2.662   3.550  17.934  0.00  0.00    +0.000 C 
BRANCH  19  20
ATOM     20  C   UNL     1       4.061   3.226  18.798  0.00  0.00    +0.000 C 
BRANCH  20  21
ATOM     21  C   UNL     1       5.044   4.420  19.085  0.00  0.00    +0.000 C 
ATOM     22  N   UNL     1       5.929   5.449  19.312  0.00  0.00    +0.000 NA
ATOM     23  S   UNL     1       7.454   5.711  18.402  0.00  0.00    +0.000 S 
ATOM     24  O   UNL     1       8.389   4.717  18.914  0.00  0.00    +0.000 OA
ATOM     25  O   UNL     1       7.789   7.111  18.318  0.00  0.00    +0.000 OA
ATOM     26  C   UNL     1       7.021   5.146  16.752  0.00  0.00    +0.000 A 
ATOM     27  C   UNL     1       7.533   5.199  15.484  0.00  0.00    +0.000 A 
ATOM     28  C   UNL     1       6.750   4.646  14.428  0.00  0.00    +0.000 A 
ATOM     29  C   UNL     1       5.438   4.213  14.635  0.00  0.00    +0.000 A 
ATOM     30  C   UNL     1       4.979   4.171  15.914  0.00  0.00    +0.000 A 
ATOM     31  C   UNL     1       5.917   4.387  16.910  0.00  0.00    +0.000 A 
ATOM     32  N   UNL     1       5.870   3.789  18.162  0.00  0.00    +0.000 N 
ATOM     33  H   UNL     1       6.745   3.566  18.627  0.00  0.00    +0.000 HD
ENDBRANCH  20  21
ENDBRANCH  19  20
ENDBRANCH  18  19
ENDBRANCH   1  18
TORSDOF 9
ENDMDL
MODEL 6
REMARK VINA RESULT:      -7.6      1.081      1.299
REMARK  Name = 
REMARK  10 active torsions:
REMARK  status: ('A' for Active; 'I' for Inactive)
REMARK    1  A    between atoms: C_1  and  O_2
REMARK    2  A    between atoms: O_2  and  C_3
REMARK    3  A    between atoms: C_9  and  N_10
REMARK    4  A    between atoms: C_11  and  C_13
REMARK    5  A    between atoms: C_13  and  O_14
REMARK    6  A    between atoms: O_14  and  C_15
REMARK    7  A    between atoms: C_15  and  C_17
REMARK    8  A    between atoms: C_17  and  C_18
REMARK    9  A    between atoms: C_18  and  C_19
REMARK   10  A    between atoms: C_19  and  C_20
REMARK                            x       y       z     vdW  Elec       q    Type
REMARK                         _______ _______ _______ _____ _____    ______ ____
ROOT
ATOM      1  C   UNL     1       1.616   4.903  18.044  0.00  0.00    +0.000 C 
ATOM      2  O   UNL     1       1.115   4.183  17.188  0.00  0.00    +0.000 OA
ENDROOT
BRANCH   1   3
ATOM      3  O   UNL     1       2.208   6.098  17.793  0.00  0.00    +0.000 OA
BRANCH   3   4
ATOM      4  C   UNL     1       2.674   6.940  18.868  0.00  0.00    +0.000 C 
BRANCH   4   6
ATOM      5  N   UNL     1       1.552   9.024  19.601  0.00  0.00    +0.000 N 
ATOM      6  C   UNL     1       2.094   8.301  18.515  0.00  0.00    +0.000 C 
ATOM      7  O   UNL     1       2.187   8.716  17.361  0.00  0.00    +0.000 OA
ATOM      8  H   UNL     1       1.722   8.652  20.512  0.00  0.00    +0.000 HD
BRANCH   5  15
ATOM      9  C   UNL     1      -0.230  10.762  20.077  0.00  0.00    +0.000 A 
ATOM     10  C   UNL     1      -0.691  12.081  19.889  0.00  0.00    +0.000 A 
ATOM     11  C   UNL     1       0.056  13.007  19.198  0.00  0.00    +0.000 A 
ATOM     12  C   UNL     1       1.289  12.624  18.680  0.00  0.00    +0.000 A 
ATOM     13 CL   UNL     1       2.265  13.803  17.889  0.00  0.00    +0.000 Cl
ATOM     14  C   UNL     1       1.743  11.315  18.818  0.00  0.00    +0.000 A 
ATOM     15  C   UNL     1       1.015  10.348  19.505  0.00  0.00    +0.000 A 
BRANCH   9  17
ATOM     16  C   UNL     1      -0.429  10.097  22.313  0.00  0.00    +0.000 C 
ATOM     17  O   UNL     1      -0.922   9.977  20.966  0.00  0.00    +0.000 OA
ENDBRANCH   9  17
ENDBRANCH   5  15
ENDBRANCH   4   6
ENDBRANCH   3   4
ENDBRANCH   1   3
BRANCH   1  18
ATOM     18  C   UNL     1       1.741   4.562  19.532  0.00  0.00    +0.000 C 
BRANCH  18  19
ATOM     19  C   UNL     1       2.672   3.336  19.870  0.00  0.00    +0.000 C 
BRANCH  19  20
ATOM     20  C   UNL     1       4.242   3.151  19.311  0.00  0.00    +0.000 C 
BRANCH  20  21
ATOM     21  C   UNL     1       5.227   4.368  19.462  0.00  0.00    +0.000 C 
ATOM     22  N   UNL     1       6.112   5.416  19.570  0.00  0.00    +0.000 NA
ATOM     23  S   UNL     1       7.530   5.675  18.501  0.00  0.00    +0.000 S 
ATOM     24  O   UNL     1       8.531   4.711  18.940  0.00  0.00    +0.000 OA
ATOM     25  O   UNL     1       7.829   7.078  18.346  0.00  0.00    +0.000 OA
ATOM     26  C   UNL     1       6.941   5.058  16.920  0.00  0.00    +0.000 A 
ATOM     27  C   UNL     1       7.319   5.082  15.605  0.00  0.00    +0.000 A 
ATOM     28  C   UNL     1       6.443   4.488  14.650  0.00  0.00    +0.000 A 
ATOM     29  C   UNL     1       5.167   4.040  15.003  0.00  0.00    +0.000 A 
ATOM     30  C   UNL     1       4.842   4.028  16.323  0.00  0.00    +0.000 A 
ATOM     31  C   UNL     1       5.873   4.287  17.211  0.00  0.00    +0.000 A 
ATOM     32  N   UNL     1       5.965   3.724  18.477  0.00  0.00    +0.000 N 
ATOM     33  H   UNL     1       6.888   3.528  18.855  0.00  0.00    +0.000 HD
ENDBRANCH  20  21
ENDBRANCH  19  20
ENDBRANCH  18  19
ENDBRANCH   1  18
TORSDOF 9
ENDMDL
MODEL 7
REMARK VINA RESULT:      -7.6      5.029      7.923
REMARK  Name = 
REMARK  10 active torsions:
REMARK  status: ('A' for Active; 'I' for Inactive)
REMARK    1  A    between atoms: C_1  and  O_2
REMARK    2  A    between atoms: O_2  and  C_3
REMARK    3  A    between atoms: C_9  and  N_10
REMARK    4  A    between atoms: C_11  and  C_13
REMARK    5  A    between atoms: C_13  and  O_14
REMARK    6  A    between atoms: O_14  and  C_15
REMARK    7  A    between atoms: C_15  and  C_17
REMARK    8  A    between atoms: C_17  and  C_18
REMARK    9  A    between atoms: C_18  and  C_19
REMARK   10  A    between atoms: C_19  and  C_20
REMARK                            x       y       z     vdW  Elec       q    Type
REMARK                         _______ _______ _______ _____ _____    ______ ____
ROOT
ATOM      1  C   UNL     1       7.688   5.603  17.876  0.00  0.00    +0.000 C 
ATOM      2  O   UNL     1       7.707   4.525  18.458  0.00  0.00    +0.000 OA
ENDROOT
BRANCH   1   3
ATOM      3  O   UNL     1       7.457   5.757  16.547  0.00  0.00    +0.000 OA
BRANCH   3   4
ATOM      4  C   UNL     1       6.574   4.865  15.836  0.00  0.00    +0.000 C 
BRANCH   4   6
ATOM      5  N   UNL     1       4.784   4.114  17.376  0.00  0.00    +0.000 N 
ATOM      6  C   UNL     1       5.225   5.122  16.490  0.00  0.00    +0.000 C 
ATOM      7  O   UNL     1       4.643   6.184  16.276  0.00  0.00    +0.000 OA
ATOM      8  H   UNL     1       5.447   3.403  17.605  0.00  0.00    +0.000 HD
BRANCH   5  15
ATOM      9  C   UNL     1       2.612   3.131  18.234  0.00  0.00    +0.000 A 
ATOM     10  C   UNL     1       1.433   3.314  18.986  0.00  0.00    +0.000 A 
ATOM     11  C   UNL     1       1.205   4.478  19.683  0.00  0.00    +0.000 A 
ATOM     12  C   UNL     1       2.162   5.486  19.638  0.00  0.00    +0.000 A 
ATOM     13 CL   UNL     1       1.920   6.911  20.578  0.00  0.00    +0.000 Cl
ATOM     14  C   UNL     1       3.313   5.343  18.867  0.00  0.00    +0.000 A 
ATOM     15  C   UNL     1       3.578   4.183  18.145  0.00  0.00    +0.000 A 
BRANCH   9  17
ATOM     16  C   UNL     1       3.736   1.116  18.630  0.00  0.00    +0.000 C 
ATOM     17  O   UNL     1       2.865   1.865  17.764  0.00  0.00    +0.000 OA
ENDBRANCH   9  17
ENDBRANCH   5  15
ENDBRANCH   4   6
ENDBRANCH   3   4
ENDBRANCH   1   3
BRANCH   1  18
ATOM     18  C   UNL     1       7.994   6.962  18.512  0.00  0.00    +0.000 C 
BRANCH  18  19
ATOM     19  C   UNL     1       7.754   8.214  17.583  0.00  0.00    +0.000 C 
BRANCH  19  20
ATOM     20  C   UNL     1       8.564   9.674  17.727  0.00  0.00    +0.000 C 
BRANCH  20  21
ATOM     21  C   UNL     1       8.980  10.148  19.168  0.00  0.00    +0.000 C 
ATOM     22  N   UNL     1       9.365  10.590  20.413  0.00  0.00    +0.000 NA
ATOM     23  S   UNL     1      10.224  12.133  20.734  0.00  0.00    +0.000 S 
ATOM     24  O   UNL     1      11.604  11.901  20.327  0.00  0.00    +0.000 OA
ATOM     25  O   UNL     1       9.883  12.671  22.027  0.00  0.00    +0.000 OA
ATOM     26  C   UNL     1       9.539  13.224  19.482  0.00  0.00    +0.000 A 
ATOM     27  C   UNL     1       9.516  14.561  19.190  0.00  0.00    +0.000 A 
ATOM     28  C   UNL     1       8.734  14.984  18.076  0.00  0.00    +0.000 A 
ATOM     29  C   UNL     1       7.886  14.106  17.396  0.00  0.00    +0.000 A 
ATOM     30  C   UNL     1       7.953  12.786  17.717  0.00  0.00    +0.000 A 
ATOM     31  C   UNL     1       8.988  12.411  18.558  0.00  0.00    +0.000 A 
ATOM     32  N   UNL     1       9.627  11.180  18.499  0.00  0.00    +0.000 N 
ATOM     33  H   UNL     1      10.615  11.134  18.733  0.00  0.00    +0.000 HD
ENDBRANCH  20  21
ENDBRANCH  19  20
ENDBRANCH  18  19
ENDBRANCH   1  18
TORSDOF 9
ENDMDL
MODEL 8
REMARK VINA RESULT:      -7.5      2.437      3.286
REMARK  Name = 
REMARK  10 active torsions:
REMARK  status: ('A' for Active; 'I' for Inactive)
REMARK    1  A    between atoms: C_1  and  O_2
REMARK    2  A    between atoms: O_2  and  C_3
REMARK    3  A    between atoms: C_9  and  N_10
REMARK    4  A    between atoms: C_11  and  C_13
REMARK    5  A    between atoms: C_13  and  O_14
REMARK    6  A    between atoms: O_14  and  C_15
REMARK    7  A    between atoms: C_15  and  C_17
REMARK    8  A    between atoms: C_17  and  C_18
REMARK    9  A    between atoms: C_18  and  C_19
REMARK   10  A    between atoms: C_19  and  C_20
REMARK                            x       y       z     vdW  Elec       q    Type
REMARK                         _______ _______ _______ _____ _____    ______ ____
ROOT
ATOM      1  C   UNL     1       2.510   5.785  18.823  0.00  0.00    +0.000 C 
ATOM      2  O   UNL     1       3.422   5.922  19.631  0.00  0.00    +0.000 OA
ENDROOT
BRANCH   1   3
ATOM      3  O   UNL     1       1.991   6.789  18.071  0.00  0.00    +0.000 OA
BRANCH   3   4
ATOM      4  C   UNL     1       2.628   8.082  18.010  0.00  0.00    +0.000 C 
BRANCH   4   6
ATOM      5  N   UNL     1       1.090  10.024  18.007  0.00  0.00    +0.000 N 
ATOM      6  C   UNL     1       1.661   8.978  18.767  0.00  0.00    +0.000 C 
ATOM      7  O   UNL     1       1.383   8.715  19.936  0.00  0.00    +0.000 OA
ATOM      8  H   UNL     1       1.254   9.998  17.023  0.00  0.00    +0.000 HD
BRANCH   5  15
ATOM      9  C   UNL     1       0.410  12.120  19.257  0.00  0.00    +0.000 A 
ATOM     10  C   UNL     1      -0.633  12.939  19.737  0.00  0.00    +0.000 A 
ATOM     11  C   UNL     1      -1.950  12.655  19.456  0.00  0.00    +0.000 A 
ATOM     12  C   UNL     1      -2.246  11.537  18.684  0.00  0.00    +0.000 A 
ATOM     13 CL   UNL     1      -3.887  11.225  18.259  0.00  0.00    +0.000 Cl
ATOM     14  C   UNL     1      -1.234  10.692  18.237  0.00  0.00    +0.000 A 
ATOM     15  C   UNL     1       0.109  10.942  18.503  0.00  0.00    +0.000 A 
BRANCH   9  17
ATOM     16  C   UNL     1       2.053  13.504  18.326  0.00  0.00    +0.000 C 
ATOM     17  O   UNL     1       1.691  12.599  19.385  0.00  0.00    +0.000 OA
ENDBRANCH   9  17
ENDBRANCH   5  15
ENDBRANCH   4   6
ENDBRANCH   3   4
ENDBRANCH   1   3
BRANCH   1  18
ATOM     18  C   UNL     1       1.737   4.488  18.565  0.00  0.00    +0.000 C 
BRANCH  18  19
ATOM     19  C   UNL     1       2.453   3.451  17.617  0.00  0.00    +0.000 C 
BRANCH  19  20
ATOM     20  C   UNL     1       4.100   3.139  17.620  0.00  0.00    +0.000 C 
BRANCH  20  21
ATOM     21  C   UNL     1       4.930   3.547  16.348  0.00  0.00    +0.000 C 
ATOM     22  N   UNL     1       5.657   3.939  15.248  0.00  0.00    +0.000 NA
ATOM     23  S   UNL     1       6.441   5.543  15.055  0.00  0.00    +0.000 S 
ATOM     24  O   UNL     1       5.361   6.470  14.742  0.00  0.00    +0.000 OA
ATOM     25  O   UNL     1       7.637   5.456  14.253  0.00  0.00    +0.000 OA
ATOM     26  C   UNL     1       6.931   5.938  16.737  0.00  0.00    +0.000 A 
ATOM     27  C   UNL     1       7.726   6.844  17.387  0.00  0.00    +0.000 A 
ATOM     28  C   UNL     1       7.871   6.708  18.799  0.00  0.00    +0.000 A 
ATOM     29  C   UNL     1       7.362   5.603  19.487  0.00  0.00    +0.000 A 
ATOM     30  C   UNL     1       6.572   4.737  18.799  0.00  0.00    +0.000 A 
ATOM     31  C   UNL     1       6.193   5.131  17.526  0.00  0.00    +0.000 A 
ATOM     32  N   UNL     1       4.976   4.802  16.943  0.00  0.00    +0.000 N 
ATOM     33  H   UNL     1       4.549   5.467  16.305  0.00  0.00    +0.000 HD
ENDBRANCH  20  21
ENDBRANCH  19  20
ENDBRANCH  18  19
ENDBRANCH   1  18
TORSDOF 9
ENDMDL
MODEL 9
REMARK VINA RESULT:      -7.5      1.576      1.684
REMARK  Name = 
REMARK  10 active torsions:
REMARK  status: ('A' for Active; 'I' for Inactive)
REMARK    1  A    between atoms: C_1  and  O_2
REMARK    2  A    between atoms: O_2  and  C_3
REMARK    3  A    between atoms: C_9  and  N_10
REMARK    4  A    between atoms: C_11  and  C_13
REMARK    5  A    between atoms: C_13  and  O_14
REMARK    6  A    between atoms: O_14  and  C_15
REMARK    7  A    between atoms: C_15  and  C_17
REMARK    8  A    between atoms: C_17  and  C_18
REMARK    9  A    between atoms: C_18  and  C_19
REMARK   10  A    between atoms: C_19  and  C_20
REMARK                            x       y       z     vdW  Elec       q    Type
REMARK                         _______ _______ _______ _____ _____    ______ ____
ROOT
ATOM      1  C   UNL     1       1.421   4.565  20.082  0.00  0.00    +0.000 C 
ATOM      2  O   UNL     1       1.091   4.527  18.903  0.00  0.00    +0.000 OA
ENDROOT
BRANCH   1   3
ATOM      3  O   UNL     1       1.493   5.699  20.825  0.00  0.00    +0.000 OA
BRANCH   3   4
ATOM      4  C   UNL     1       2.151   6.880  20.321  0.00  0.00    +0.000 C 
BRANCH   4   6
ATOM      5  N   UNL     1       1.144   9.070  19.751  0.00  0.00    +0.000 N 
ATOM      6  C   UNL     1       1.171   7.992  20.662  0.00  0.00    +0.000 C 
ATOM      7  O   UNL     1       0.432   7.866  21.638  0.00  0.00    +0.000 OA
ATOM      8  H   UNL     1       1.653   8.947  18.901  0.00  0.00    +0.000 HD
BRANCH   5  15
ATOM      9  C   UNL     1      -0.628  10.612  18.800  0.00  0.00    +0.000 A 
ATOM     10  C   UNL     1      -1.437  11.753  18.977  0.00  0.00    +0.000 A 
ATOM     11  C   UNL     1      -1.435  12.453  20.162  0.00  0.00    +0.000 A 
ATOM     12  C   UNL     1      -0.616  12.018  21.197  0.00  0.00    +0.000 A 
ATOM     13 CL   UNL     1      -0.674  12.840  22.711  0.00  0.00    +0.000 Cl
ATOM     14  C   UNL     1       0.223  10.919  21.029  0.00  0.00    +0.000 A 
ATOM     15  C   UNL     1       0.253  10.188  19.845  0.00  0.00    +0.000 A 
BRANCH   9  17
ATOM     16  C   UNL     1      -2.198   9.998  17.176  0.00  0.00    +0.000 C 
ATOM     17  O   UNL     1      -0.860   9.846  17.685  0.00  0.00    +0.000 OA
ENDBRANCH   9  17
ENDBRANCH   5  15
ENDBRANCH   4   6
ENDBRANCH   3   4
ENDBRANCH   1   3
BRANCH   1  18
ATOM     18  C   UNL     1       1.886   3.367  20.915  0.00  0.00    +0.000 C 
BRANCH  18  19
ATOM     19  C   UNL     1       3.314   2.804  20.554  0.00  0.00    +0.000 C 
BRANCH  19  20
ATOM     20  C   UNL     1       4.214   3.280  19.223  0.00  0.00    +0.000 C 
BRANCH  20  21
ATOM     21  C   UNL     1       5.167   4.521  19.383  0.00  0.00    +0.000 C 
ATOM     22  N   UNL     1       6.026   5.590  19.501  0.00  0.00    +0.000 NA
ATOM     23  S   UNL     1       7.499   5.838  18.505  0.00  0.00    +0.000 S 
ATOM     24  O   UNL     1       8.489   4.911  19.038  0.00  0.00    +0.000 OA
ATOM     25  O   UNL     1       7.781   7.239  18.314  0.00  0.00    +0.000 OA
ATOM     26  C   UNL     1       7.013   5.149  16.919  0.00  0.00    +0.000 A 
ATOM     27  C   UNL     1       7.466   5.132  15.627  0.00  0.00    +0.000 A 
ATOM     28  C   UNL     1       6.657   4.485  14.648  0.00  0.00    +0.000 A 
ATOM     29  C   UNL     1       5.371   4.025  14.944  0.00  0.00    +0.000 A 
ATOM     30  C   UNL     1       4.971   4.056  16.243  0.00  0.00    +0.000 A 
ATOM     31  C   UNL     1       5.944   4.368  17.177  0.00  0.00    +0.000 A 
ATOM     32  N   UNL     1       5.973   3.856  18.468  0.00  0.00    +0.000 N 
ATOM     33  H   UNL     1       6.875   3.692  18.904  0.00  0.00    +0.000 HD
ENDBRANCH  20  21
ENDBRANCH  19  20
ENDBRANCH  18  19
ENDBRANCH   1  18
TORSDOF 9
ENDMDL
