MODEL 1
REMARK VINA RESULT:      -8.1      0.000      0.000
REMARK  Name = 
REMARK  5 active torsions:
REMARK  status: ('A' for Active; 'I' for Inactive)
REMARK    1  A    between atoms: C_2  and  C_16
REMARK    2  A    between atoms: N_3  and  C_4
REMARK    3  A    between atoms: C_9  and  N_10
REMARK    4  A    between atoms: C_19  and  C_20
REMARK    5  A    between atoms: C_23  and  C_24
REMARK                            x       y       z     vdW  Elec       q    Type
REMARK                         _______ _______ _______ _____ _____    ______ ____
ROOT
ATOM      1  O   UNL     1       2.377   6.165  20.536  0.00  0.00    +0.000 OA
ATOM      2  C   UNL     1       2.226   6.623  19.408  0.00  0.00    +0.000 C 
ATOM      3  N   UNL     1       2.244   5.897  18.237  0.00  0.00    +0.000 N 
ATOM      4  H   UNL     1       2.095   6.405  17.378  0.00  0.00    +0.000 HD
ENDROOT
BRANCH   3   5
ATOM      5  C   UNL     1       2.564   4.527  18.172  0.00  0.00    +0.000 A 
ATOM      6  C   UNL     1       1.513   3.626  18.409  0.00  0.00    +0.000 A 
ATOM      7  C   UNL     1       1.718   2.254  18.339  0.00  0.00    +0.000 A 
ATOM      8  C   UNL     1       2.979   1.774  18.017  0.00  0.00    +0.000 A 
ATOM      9  C   UNL     1       4.030   2.667  17.780  0.00  0.00    +0.000 A 
ATOM     10  C   UNL     1       3.869   4.069  17.850  0.00  0.00    +0.000 A 
BRANCH  10  11
ATOM     11  N   UNL     1       4.912   4.908  17.486  0.00  0.00    +0.000 N 
ATOM     12  C   UNL     1       5.797   5.520  18.491  0.00  0.00    +0.000 C 
ATOM     13  C   UNL     1       7.253   5.502  17.965  0.00  0.00    +0.000 C 
ATOM     14  N   UNL     1       7.419   6.143  16.643  0.00  0.00    +0.000 NA
ATOM     15  C   UNL     1       6.450   5.568  15.685  0.00  0.00    +0.000 C 
ATOM     16  C   UNL     1       4.986   5.589  16.189  0.00  0.00    +0.000 C 
ATOM     17  H   UNL     1       8.362   5.951  16.308  0.00  0.00    +0.000 HD
ENDBRANCH  10  11
ENDBRANCH   3   5
BRANCH   2  18
ATOM     18  C   UNL     1       1.961   8.050  19.180  0.00  0.00    +0.000 A 
ATOM     19  C   UNL     1       2.260   8.708  18.003  0.00  0.00    +0.000 A 
ATOM     20  S   UNL     1       1.773  10.346  18.100  0.00  0.00    +0.000 S 
ATOM     21  C   UNL     1       1.205  10.084  19.699  0.00  0.00    +0.000 A 
ATOM     22  N   UNL     1       1.365   8.853  20.153  0.00  0.00    +0.000 NA
BRANCH  21  23
ATOM     23  C   UNL     1       0.596  11.095  20.534  0.00  0.00    +0.000 A 
ATOM     24  C   UNL     1       1.060  12.390  20.676  0.00  0.00    +0.000 A 
ATOM     25  C   UNL     1       0.269  13.169  21.562  0.00  0.00    +0.000 A 
ATOM     26  C   UNL     1      -0.796  12.459  22.089  0.00  0.00    +0.000 A 
ATOM     27  S   UNL     1      -0.802  10.850  21.496  0.00  0.00    +0.000 S 
BRANCH  26  28
ATOM     28  C   UNL     1      -1.801  12.942  23.006  0.00  0.00    +0.000 A 
ATOM     29  C   UNL     1      -2.974  12.318  23.387  0.00  0.00    +0.000 A 
ATOM     30  C   UNL     1      -3.735  13.100  24.311  0.00  0.00    +0.000 A 
ATOM     31  C   UNL     1      -3.128  14.292  24.600  0.00  0.00    +0.000 A 
ATOM     32  S   UNL     1      -1.636  14.467  23.785  0.00  0.00    +0.000 S 
ENDBRANCH  26  28
ENDBRANCH  21  23
ENDBRANCH   2  18
TORSDOF 5
ENDMDL
MODEL 2
REMARK VINA RESULT:      -7.9      0.547      1.037
REMARK  Name = 
REMARK  5 active torsions:
REMARK  status: ('A' for Active; 'I' for Inactive)
REMARK    1  A    between atoms: C_2  and  C_16
REMARK    2  A    between atoms: N_3  and  C_4
REMARK    3  A    between atoms: C_9  and  N_10
REMARK    4  A    between atoms: C_19  and  C_20
REMARK    5  A    between atoms: C_23  and  C_24
REMARK                            x       y       z     vdW  Elec       q    Type
REMARK                         _______ _______ _______ _____ _____    ______ ____
ROOT
ATOM      1  O   UNL     1       2.902   6.124  20.445  0.00  0.00    +0.000 OA
ATOM      2  C   UNL     1       2.421   6.482  19.375  0.00  0.00    +0.000 C 
ATOM      3  N   UNL     1       2.088   5.651  18.327  0.00  0.00    +0.000 N 
ATOM      4  H   UNL     1       1.689   6.083  17.506  0.00  0.00    +0.000 HD
ENDROOT
BRANCH   3   5
ATOM      5  C   UNL     1       2.374   4.273  18.301  0.00  0.00    +0.000 A 
ATOM      6  C   UNL     1       1.331   3.410  18.677  0.00  0.00    +0.000 A 
ATOM      7  C   UNL     1       1.502   2.031  18.656  0.00  0.00    +0.000 A 
ATOM      8  C   UNL     1       2.718   1.506  18.245  0.00  0.00    +0.000 A 
ATOM      9  C   UNL     1       3.760   2.362  17.869  0.00  0.00    +0.000 A 
ATOM     10  C   UNL     1       3.634   3.768  17.884  0.00  0.00    +0.000 A 
BRANCH  10  11
ATOM     11  N   UNL     1       4.655   4.564  17.385  0.00  0.00    +0.000 N 
ATOM     12  C   UNL     1       5.032   4.532  15.961  0.00  0.00    +0.000 C 
ATOM     13  C   UNL     1       5.337   5.973  15.483  0.00  0.00    +0.000 C 
ATOM     14  N   UNL     1       6.358   6.668  16.294  0.00  0.00    +0.000 NA
ATOM     15  C   UNL     1       5.992   6.598  17.725  0.00  0.00    +0.000 C 
ATOM     16  C   UNL     1       5.697   5.163  18.225  0.00  0.00    +0.000 C 
ATOM     17  H   UNL     1       6.383   7.647  16.011  0.00  0.00    +0.000 HD
ENDBRANCH  10  11
ENDBRANCH   3   5
BRANCH   2  18
ATOM     18  C   UNL     1       2.100   7.889  19.101  0.00  0.00    +0.000 A 
ATOM     19  C   UNL     1       2.335   8.508  17.889  0.00  0.00    +0.000 A 
ATOM     20  S   UNL     1       1.797  10.132  17.939  0.00  0.00    +0.000 S 
ATOM     21  C   UNL     1       1.295   9.917  19.567  0.00  0.00    +0.000 A 
ATOM     22  N   UNL     1       1.513   8.712  20.062  0.00  0.00    +0.000 NA
BRANCH  21  23
ATOM     23  C   UNL     1       0.682  10.941  20.383  0.00  0.00    +0.000 A 
ATOM     24  C   UNL     1       1.113  12.252  20.465  0.00  0.00    +0.000 A 
ATOM     25  C   UNL     1       0.327  13.041  21.345  0.00  0.00    +0.000 A 
ATOM     26  C   UNL     1      -0.702  12.322  21.929  0.00  0.00    +0.000 A 
ATOM     27  S   UNL     1      -0.680  10.693  21.394  0.00  0.00    +0.000 S 
BRANCH  26  28
ATOM     28  C   UNL     1      -1.693  12.811  22.857  0.00  0.00    +0.000 A 
ATOM     29  C   UNL     1      -2.863  12.192  23.256  0.00  0.00    +0.000 A 
ATOM     30  C   UNL     1      -3.610  12.979  24.187  0.00  0.00    +0.000 A 
ATOM     31  C   UNL     1      -2.995  14.170  24.465  0.00  0.00    +0.000 A 
ATOM     32  S   UNL     1      -1.513  14.338  23.630  0.00  0.00    +0.000 S 
ENDBRANCH  26  28
ENDBRANCH  21  23
ENDBRANCH   2  18
TORSDOF 5
ENDMDL
MODEL 3
REMARK VINA RESULT:      -7.9      2.139      3.561
REMARK  Name = 
REMARK  5 active torsions:
REMARK  status: ('A' for Active; 'I' for Inactive)
REMARK    1  A    between atoms: C_2  and  C_16
REMARK    2  A    between atoms: N_3  and  C_4
REMARK    3  A    between atoms: C_9  and  N_10
REMARK    4  A    between atoms: C_19  and  C_20
REMARK    5  A    between atoms: C_23  and  C_24
REMARK                            x       y       z     vdW  Elec       q    Type
REMARK                         _______ _______ _______ _____ _____    ______ ____
ROOT
ATOM      1  O   UNL     1       2.277   8.584  17.347  0.00  0.00    +0.000 OA
ATOM      2  C   UNL     1       2.279   8.014  18.433  0.00  0.00    +0.000 C 
ATOM      3  N   UNL     1       2.975   6.863  18.734  0.00  0.00    +0.000 N 
ATOM      4  H   UNL     1       2.892   6.508  19.675  0.00  0.00    +0.000 HD
ENDROOT
BRANCH   3   5
ATOM      5  C   UNL     1       3.693   6.113  17.784  0.00  0.00    +0.000 A 
ATOM      6  C   UNL     1       4.540   6.833  16.927  0.00  0.00    +0.000 A 
ATOM      7  C   UNL     1       5.314   6.182  15.973  0.00  0.00    +0.000 A 
ATOM      8  C   UNL     1       5.253   4.799  15.881  0.00  0.00    +0.000 A 
ATOM      9  C   UNL     1       4.410   4.076  16.733  0.00  0.00    +0.000 A 
ATOM     10  C   UNL     1       3.599   4.698  17.709  0.00  0.00    +0.000 A 
BRANCH  10  11
ATOM     11  N   UNL     1       2.877   3.925  18.607  0.00  0.00    +0.000 N 
ATOM     12  C   UNL     1       3.525   2.887  19.427  0.00  0.00    +0.000 C 
ATOM     13  C   UNL     1       2.921   2.914  20.853  0.00  0.00    +0.000 C 
ATOM     14  N   UNL     1       1.449   2.779  20.881  0.00  0.00    +0.000 NA
ATOM     15  C   UNL     1       0.839   3.777  19.975  0.00  0.00    +0.000 C 
ATOM     16  C   UNL     1       1.422   3.756  18.540  0.00  0.00    +0.000 C 
ATOM     17  H   UNL     1       1.127   2.961  21.830  0.00  0.00    +0.000 HD
ENDBRANCH  10  11
ENDBRANCH   3   5
BRANCH   2  18
ATOM     18  C   UNL     1       1.538   8.540  19.587  0.00  0.00    +0.000 A 
ATOM     19  C   UNL     1       1.613   8.004  20.858  0.00  0.00    +0.000 A 
ATOM     20  S   UNL     1       0.641   8.905  21.939  0.00  0.00    +0.000 S 
ATOM     21  C   UNL     1       0.172   9.945  20.655  0.00  0.00    +0.000 A 
ATOM     22  N   UNL     1       0.697   9.648  19.479  0.00  0.00    +0.000 NA
BRANCH  21  23
ATOM     23  C   UNL     1      -0.729  11.067  20.789  0.00  0.00    +0.000 A 
ATOM     24  C   UNL     1      -1.375  11.694  19.739  0.00  0.00    +0.000 A 
ATOM     25  C   UNL     1      -2.200  12.771  20.158  0.00  0.00    +0.000 A 
ATOM     26  C   UNL     1      -2.175  12.958  21.530  0.00  0.00    +0.000 A 
ATOM     27  S   UNL     1      -1.137  11.815  22.277  0.00  0.00    +0.000 S 
BRANCH  26  28
ATOM     28  C   UNL     1      -2.900  13.947  22.291  0.00  0.00    +0.000 A 
ATOM     29  C   UNL     1      -2.890  15.321  22.128  0.00  0.00    +0.000 A 
ATOM     30  C   UNL     1      -3.728  15.990  23.073  0.00  0.00    +0.000 A 
ATOM     31  C   UNL     1      -4.342  15.115  23.928  0.00  0.00    +0.000 A 
ATOM     32  S   UNL     1      -3.936  13.490  23.586  0.00  0.00    +0.000 S 
ENDBRANCH  26  28
ENDBRANCH  21  23
ENDBRANCH   2  18
TORSDOF 5
ENDMDL
MODEL 4
REMARK VINA RESULT:      -7.7      2.492      4.002
REMARK  Name = 
REMARK  5 active torsions:
REMARK  status: ('A' for Active; 'I' for Inactive)
REMARK    1  A    between atoms: C_2  and  C_16
REMARK    2  A    between atoms: N_3  and  C_4
REMARK    3  A    between atoms: C_9  and  N_10
REMARK    4  A    between atoms: C_19  and  C_20
REMARK    5  A    between atoms: C_23  and  C_24
REMARK                            x       y       z     vdW  Elec       q    Type
REMARK                         _______ _______ _______ _____ _____    ______ ____
ROOT
ATOM      1  O   UNL     1       2.322   8.456  17.262  0.00  0.00    +0.000 OA
ATOM      2  C   UNL     1       2.376   7.951  18.378  0.00  0.00    +0.000 C 
ATOM      3  N   UNL     1       3.077   6.812  18.710  0.00  0.00    +0.000 N 
ATOM      4  H   UNL     1       3.040   6.513  19.674  0.00  0.00    +0.000 HD
ENDROOT
BRANCH   3   5
ATOM      5  C   UNL     1       3.738   5.999  17.770  0.00  0.00    +0.000 A 
ATOM      6  C   UNL     1       4.600   6.652  16.874  0.00  0.00    +0.000 A 
ATOM      7  C   UNL     1       5.322   5.936  15.926  0.00  0.00    +0.000 A 
ATOM      8  C   UNL     1       5.194   4.555  15.879  0.00  0.00    +0.000 A 
ATOM      9  C   UNL     1       4.336   3.900  16.770  0.00  0.00    +0.000 A 
ATOM     10  C   UNL     1       3.576   4.589  17.742  0.00  0.00    +0.000 A 
BRANCH  10  11
ATOM     11  N   UNL     1       2.838   3.879  18.678  0.00  0.00    +0.000 N 
ATOM     12  C   UNL     1       3.439   2.795  19.473  0.00  0.00    +0.000 C 
ATOM     13  C   UNL     1       2.907   2.874  20.925  0.00  0.00    +0.000 C 
ATOM     14  N   UNL     1       1.432   2.858  21.024  0.00  0.00    +0.000 NA
ATOM     15  C   UNL     1       0.862   3.899  20.141  0.00  0.00    +0.000 C 
ATOM     16  C   UNL     1       1.372   3.827  18.680  0.00  0.00    +0.000 C 
ATOM     17  H   UNL     1       1.171   3.068  21.986  0.00  0.00    +0.000 HD
ENDBRANCH  10  11
ENDBRANCH   3   5
BRANCH   2  18
ATOM     18  C   UNL     1       1.699   8.551  19.535  0.00  0.00    +0.000 A 
ATOM     19  C   UNL     1       1.547   7.915  20.752  0.00  0.00    +0.000 A 
ATOM     20  S   UNL     1       0.743   8.941  21.861  0.00  0.00    +0.000 S 
ATOM     21  C   UNL     1       0.638  10.162  20.658  0.00  0.00    +0.000 A 
ATOM     22  N   UNL     1       1.163   9.838  19.489  0.00  0.00    +0.000 NA
BRANCH  21  23
ATOM     23  C   UNL     1       0.030  11.458  20.850  0.00  0.00    +0.000 A 
ATOM     24  C   UNL     1      -0.608  11.871  22.006  0.00  0.00    +0.000 A 
ATOM     25  C   UNL     1      -1.116  13.194  21.918  0.00  0.00    +0.000 A 
ATOM     26  C   UNL     1      -0.860  13.782  20.691  0.00  0.00    +0.000 A 
ATOM     27  S   UNL     1      -0.009  12.700  19.668  0.00  0.00    +0.000 S 
BRANCH  26  28
ATOM     28  C   UNL     1      -1.221  15.114  20.268  0.00  0.00    +0.000 A 
ATOM     29  C   UNL     1      -2.290  15.881  20.692  0.00  0.00    +0.000 A 
ATOM     30  C   UNL     1      -2.340  17.155  20.046  0.00  0.00    +0.000 A 
ATOM     31  C   UNL     1      -1.320  17.319  19.149  0.00  0.00    +0.000 A 
ATOM     32  S   UNL     1      -0.287  15.958  19.096  0.00  0.00    +0.000 S 
ENDBRANCH  26  28
ENDBRANCH  21  23
ENDBRANCH   2  18
TORSDOF 5
ENDMDL
MODEL 5
REMARK VINA RESULT:      -7.7      1.504      3.208
REMARK  Name = 
REMARK  5 active torsions:
REMARK  status: ('A' for Active; 'I' for Inactive)
REMARK    1  A    between atoms: C_2  and  C_16
REMARK    2  A    between atoms: N_3  and  C_4
REMARK    3  A    between atoms: C_9  and  N_10
REMARK    4  A    between atoms: C_19  and  C_20
REMARK    5  A    between atoms: C_23  and  C_24
REMARK                            x       y       z     vdW  Elec       q    Type
REMARK                         _______ _______ _______ _____ _____    ______ ____
ROOT
ATOM      1  O   UNL     1       3.676   6.387  19.734  0.00  0.00    +0.000 OA
ATOM      2  C   UNL     1       3.287   6.996  18.743  0.00  0.00    +0.000 C 
ATOM      3  N   UNL     1       3.733   6.801  17.454  0.00  0.00    +0.000 N 
ATOM      4  H   UNL     1       3.316   7.369  16.731  0.00  0.00    +0.000 HD
ENDROOT
BRANCH   3   5
ATOM      5  C   UNL     1       4.798   5.944  17.117  0.00  0.00    +0.000 A 
ATOM      6  C   UNL     1       5.975   6.558  16.657  0.00  0.00    +0.000 A 
ATOM      7  C   UNL     1       7.094   5.802  16.327  0.00  0.00    +0.000 A 
ATOM      8  C   UNL     1       7.044   4.423  16.468  0.00  0.00    +0.000 A 
ATOM      9  C   UNL     1       5.874   3.807  16.926  0.00  0.00    +0.000 A 
ATOM     10  C   UNL     1       4.711   4.535  17.263  0.00  0.00    +0.000 A 
BRANCH  10  11
ATOM     11  N   UNL     1       3.623   3.885  17.828  0.00  0.00    +0.000 N 
ATOM     12  C   UNL     1       3.781   2.961  18.965  0.00  0.00    +0.000 C 
ATOM     13  C   UNL     1       2.611   3.172  19.957  0.00  0.00    +0.000 C 
ATOM     14  N   UNL     1       1.274   3.042  19.341  0.00  0.00    +0.000 NA
ATOM     15  C   UNL     1       1.186   3.913  18.149  0.00  0.00    +0.000 C 
ATOM     16  C   UNL     1       2.341   3.707  17.138  0.00  0.00    +0.000 C 
ATOM     17  H   UNL     1       0.576   3.345  20.019  0.00  0.00    +0.000 HD
ENDBRANCH  10  11
ENDBRANCH   3   5
BRANCH   2  18
ATOM     18  C   UNL     1       2.233   8.016  18.824  0.00  0.00    +0.000 A 
ATOM     19  C   UNL     1       1.671   8.629  17.721  0.00  0.00    +0.000 A 
ATOM     20  S   UNL     1       0.455   9.730  18.211  0.00  0.00    +0.000 S 
ATOM     21  C   UNL     1       0.756   9.334  19.855  0.00  0.00    +0.000 A 
ATOM     22  N   UNL     1       1.708   8.438  20.046  0.00  0.00    +0.000 NA
BRANCH  21  23
ATOM     23  C   UNL     1       0.058   9.909  20.982  0.00  0.00    +0.000 A 
ATOM     24  C   UNL     1      -0.044   9.325  22.232  0.00  0.00    +0.000 A 
ATOM     25  C   UNL     1      -0.788  10.109  23.152  0.00  0.00    +0.000 A 
ATOM     26  C   UNL     1      -1.250  11.289  22.595  0.00  0.00    +0.000 A 
ATOM     27  S   UNL     1      -0.769  11.410  20.953  0.00  0.00    +0.000 S 
BRANCH  26  28
ATOM     28  C   UNL     1      -2.024  12.319  23.245  0.00  0.00    +0.000 A 
ATOM     29  C   UNL     1      -3.302  12.223  23.765  0.00  0.00    +0.000 A 
ATOM     30  C   UNL     1      -3.758  13.454  24.330  0.00  0.00    +0.000 A 
ATOM     31  C   UNL     1      -2.824  14.449  24.219  0.00  0.00    +0.000 A 
ATOM     32  S   UNL     1      -1.392  13.904  23.460  0.00  0.00    +0.000 S 
ENDBRANCH  26  28
ENDBRANCH  21  23
ENDBRANCH   2  18
TORSDOF 5
ENDMDL
MODEL 6
REMARK VINA RESULT:      -7.7      3.850      5.102
REMARK  Name = 
REMARK  5 active torsions:
REMARK  status: ('A' for Active; 'I' for Inactive)
REMARK    1  A    between atoms: C_2  and  C_16
REMARK    2  A    between atoms: N_3  and  C_4
REMARK    3  A    between atoms: C_9  and  N_10
REMARK    4  A    between atoms: C_19  and  C_20
REMARK    5  A    between atoms: C_23  and  C_24
REMARK                            x       y       z     vdW  Elec       q    Type
REMARK                         _______ _______ _______ _____ _____    ______ ____
ROOT
ATOM      1  O   UNL     1       2.659   8.964  16.980  0.00  0.00    +0.000 OA
ATOM      2  C   UNL     1       2.126   8.534  17.997  0.00  0.00    +0.000 C 
ATOM      3  N   UNL     1       2.488   7.388  18.671  0.00  0.00    +0.000 N 
ATOM      4  H   UNL     1       1.966   7.158  19.504  0.00  0.00    +0.000 HD
ENDROOT
BRANCH   3   5
ATOM      5  C   UNL     1       3.459   6.481  18.204  0.00  0.00    +0.000 A 
ATOM      6  C   UNL     1       4.509   7.023  17.445  0.00  0.00    +0.000 A 
ATOM      7  C   UNL     1       5.533   6.217  16.963  0.00  0.00    +0.000 A 
ATOM      8  C   UNL     1       5.518   4.860  17.250  0.00  0.00    +0.000 A 
ATOM      9  C   UNL     1       4.473   4.315  18.006  0.00  0.00    +0.000 A 
ATOM     10  C   UNL     1       3.408   5.095  18.507  0.00  0.00    +0.000 A 
BRANCH  10  11
ATOM     11  N   UNL     1       2.467   4.526  19.353  0.00  0.00    +0.000 N 
ATOM     12  C   UNL     1       1.222   3.933  18.835  0.00  0.00    +0.000 C 
ATOM     13  C   UNL     1       0.911   2.635  19.620  0.00  0.00    +0.000 C 
ATOM     14  N   UNL     1       0.846   2.824  21.085  0.00  0.00    +0.000 NA
ATOM     15  C   UNL     1       2.072   3.506  21.555  0.00  0.00    +0.000 C 
ATOM     16  C   UNL     1       2.392   4.814  20.789  0.00  0.00    +0.000 C 
ATOM     17  H   UNL     1       0.794   1.907  21.526  0.00  0.00    +0.000 HD
ENDBRANCH  10  11
ENDBRANCH   3   5
BRANCH   2  18
ATOM     18  C   UNL     1       1.021   9.245  18.654  0.00  0.00    +0.000 A 
ATOM     19  C   UNL     1       1.053   9.670  19.968  0.00  0.00    +0.000 A 
ATOM     20  S   UNL     1      -0.397  10.489  20.362  0.00  0.00    +0.000 S 
ATOM     21  C   UNL     1      -0.983  10.222  18.770  0.00  0.00    +0.000 A 
ATOM     22  N   UNL     1      -0.159   9.558  17.978  0.00  0.00    +0.000 NA
BRANCH  21  23
ATOM     23  C   UNL     1      -2.269  10.662  18.280  0.00  0.00    +0.000 A 
ATOM     24  C   UNL     1      -2.818  10.303  17.062  0.00  0.00    +0.000 A 
ATOM     25  C   UNL     1      -4.094  10.881  16.835  0.00  0.00    +0.000 A 
ATOM     26  C   UNL     1      -4.511  11.680  17.887  0.00  0.00    +0.000 A 
ATOM     27  S   UNL     1      -3.327  11.711  19.127  0.00  0.00    +0.000 S 
BRANCH  26  28
ATOM     28  C   UNL     1      -5.754  12.405  17.995  0.00  0.00    +0.000 A 
ATOM     29  C   UNL     1      -6.478  13.008  16.983  0.00  0.00    +0.000 A 
ATOM     30  C   UNL     1      -7.663  13.647  17.462  0.00  0.00    +0.000 A 
ATOM     31  C   UNL     1      -7.805  13.520  18.818  0.00  0.00    +0.000 A 
ATOM     32  S   UNL     1      -6.532  12.617  19.515  0.00  0.00    +0.000 S 
ENDBRANCH  26  28
ENDBRANCH  21  23
ENDBRANCH   2  18
TORSDOF 5
ENDMDL
MODEL 7
REMARK VINA RESULT:      -7.7      1.610      1.955
REMARK  Name = 
REMARK  5 active torsions:
REMARK  status: ('A' for Active; 'I' for Inactive)
REMARK    1  A    between atoms: C_2  and  C_16
REMARK    2  A    between atoms: N_3  and  C_4
REMARK    3  A    between atoms: C_9  and  N_10
REMARK    4  A    between atoms: C_19  and  C_20
REMARK    5  A    between atoms: C_23  and  C_24
REMARK                            x       y       z     vdW  Elec       q    Type
REMARK                         _______ _______ _______ _____ _____    ______ ____
ROOT
ATOM      1  O   UNL     1       1.955   5.916  17.784  0.00  0.00    +0.000 OA
ATOM      2  C   UNL     1       2.291   6.592  18.751  0.00  0.00    +0.000 C 
ATOM      3  N   UNL     1       3.021   6.142  19.830  0.00  0.00    +0.000 N 
ATOM      4  H   UNL     1       3.236   6.814  20.553  0.00  0.00    +0.000 HD
ENDROOT
BRANCH   3   5
ATOM      5  C   UNL     1       3.381   4.795  20.023  0.00  0.00    +0.000 A 
ATOM      6  C   UNL     1       2.588   4.057  20.917  0.00  0.00    +0.000 A 
ATOM      7  C   UNL     1       2.842   2.711  21.155  0.00  0.00    +0.000 A 
ATOM      8  C   UNL     1       3.887   2.092  20.486  0.00  0.00    +0.000 A 
ATOM      9  C   UNL     1       4.680   2.823  19.594  0.00  0.00    +0.000 A 
ATOM     10  C   UNL     1       4.464   4.194  19.330  0.00  0.00    +0.000 A 
BRANCH  10  11
ATOM     11  N   UNL     1       5.201   4.837  18.346  0.00  0.00    +0.000 N 
ATOM     12  C   UNL     1       5.058   4.487  16.922  0.00  0.00    +0.000 C 
ATOM     13  C   UNL     1       5.096   5.781  16.074  0.00  0.00    +0.000 C 
ATOM     14  N   UNL     1       6.297   6.612  16.304  0.00  0.00    +0.000 NA
ATOM     15  C   UNL     1       6.458   6.864  17.753  0.00  0.00    +0.000 C 
ATOM     16  C   UNL     1       6.436   5.580  18.617  0.00  0.00    +0.000 C 
ATOM     17  H   UNL     1       6.167   7.505  15.831  0.00  0.00    +0.000 HD
ENDBRANCH  10  11
ENDBRANCH   3   5
BRANCH   2  18
ATOM     18  C   UNL     1       1.969   8.022  18.847  0.00  0.00    +0.000 A 
ATOM     19  C   UNL     1       2.276   8.947  17.869  0.00  0.00    +0.000 A 
ATOM     20  S   UNL     1       1.712  10.498  18.321  0.00  0.00    +0.000 S 
ATOM     21  C   UNL     1       1.104   9.850  19.791  0.00  0.00    +0.000 A 
ATOM     22  N   UNL     1       1.306   8.554  19.954  0.00  0.00    +0.000 NA
BRANCH  21  23
ATOM     23  C   UNL     1       0.423  10.615  20.810  0.00  0.00    +0.000 A 
ATOM     24  C   UNL     1      -0.167  10.081  21.940  0.00  0.00    +0.000 A 
ATOM     25  C   UNL     1      -0.768  11.063  22.771  0.00  0.00    +0.000 A 
ATOM     26  C   UNL     1      -0.630  12.344  22.266  0.00  0.00    +0.000 A 
ATOM     27  S   UNL     1       0.226  12.319  20.780  0.00  0.00    +0.000 S 
BRANCH  26  28
ATOM     28  C   UNL     1      -1.105  13.573  22.856  0.00  0.00    +0.000 A 
ATOM     29  C   UNL     1      -2.241  13.765  23.621  0.00  0.00    +0.000 A 
ATOM     30  C   UNL     1      -2.401  15.125  24.031  0.00  0.00    +0.000 A 
ATOM     31  C   UNL     1      -1.395  15.927  23.563  0.00  0.00    +0.000 A 
ATOM     32  S   UNL     1      -0.244  15.048  22.654  0.00  0.00    +0.000 S 
ENDBRANCH  26  28
ENDBRANCH  21  23
ENDBRANCH   2  18
TORSDOF 5
ENDMDL
MODEL 8
REMARK VINA RESULT:      -7.7      1.133      1.486
REMARK  Name = 
REMARK  5 active torsions:
REMARK  status: ('A' for Active; 'I' for Inactive)
REMARK    1  A    between atoms: C_2  and  C_16
REMARK    2  A    between atoms: N_3  and  C_4
REMARK    3  A    between atoms: C_9  and  N_10
REMARK    4  A    between atoms: C_19  and  C_20
REMARK    5  A    between atoms: C_23  and  C_24
REMARK                            x       y       z     vdW  Elec       q    Type
REMARK                         _______ _______ _______ _____ _____    ______ ____
ROOT
ATOM      1  O   UNL     1       2.392   5.846  20.803  0.00  0.00    +0.000 OA
ATOM      2  C   UNL     1       2.206   6.361  19.706  0.00  0.00    +0.000 C 
ATOM      3  N   UNL     1       2.277   5.713  18.492  0.00  0.00    +0.000 N 
ATOM      4  H   UNL     1       2.090   6.262  17.665  0.00  0.00    +0.000 HD
ENDROOT
BRANCH   3   5
ATOM      5  C   UNL     1       2.697   4.378  18.342  0.00  0.00    +0.000 A 
ATOM      6  C   UNL     1       1.693   3.397  18.384  0.00  0.00    +0.000 A 
ATOM      7  C   UNL     1       2.000   2.051  18.217  0.00  0.00    +0.000 A 
ATOM      8  C   UNL     1       3.318   1.681  17.993  0.00  0.00    +0.000 A 
ATOM      9  C   UNL     1       4.322   2.655  17.951  0.00  0.00    +0.000 A 
ATOM     10  C   UNL     1       4.056   4.031  18.125  0.00  0.00    +0.000 A 
BRANCH  10  11
ATOM     11  N   UNL     1       5.070   4.963  17.950  0.00  0.00    +0.000 N 
ATOM     12  C   UNL     1       5.828   5.502  19.093  0.00  0.00    +0.000 C 
ATOM     13  C   UNL     1       7.320   5.625  18.700  0.00  0.00    +0.000 C 
ATOM     14  N   UNL     1       7.553   6.422  17.478  0.00  0.00    +0.000 NA
ATOM     15  C   UNL     1       6.706   5.909  16.379  0.00  0.00    +0.000 C 
ATOM     16  C   UNL     1       5.207   5.792  16.748  0.00  0.00    +0.000 C 
ATOM     17  H   UNL     1       8.531   6.322  17.209  0.00  0.00    +0.000 HD
ENDBRANCH  10  11
ENDBRANCH   3   5
BRANCH   2  18
ATOM     18  C   UNL     1       1.836   7.776  19.566  0.00  0.00    +0.000 A 
ATOM     19  C   UNL     1       2.070   8.523  18.428  0.00  0.00    +0.000 A 
ATOM     20  S   UNL     1       1.469  10.112  18.628  0.00  0.00    +0.000 S 
ATOM     21  C   UNL     1       0.944   9.716  20.214  0.00  0.00    +0.000 A 
ATOM     22  N   UNL     1       1.198   8.476  20.591  0.00  0.00    +0.000 NA
BRANCH  21  23
ATOM     23  C   UNL     1       0.276  10.629  21.114  0.00  0.00    +0.000 A 
ATOM     24  C   UNL     1      -0.511  10.251  22.186  0.00  0.00    +0.000 A 
ATOM     25  C   UNL     1      -1.046  11.355  22.900  0.00  0.00    +0.000 A 
ATOM     26  C   UNL     1      -0.660  12.572  22.365  0.00  0.00    +0.000 A 
ATOM     27  S   UNL     1       0.343  12.338  20.994  0.00  0.00    +0.000 S 
BRANCH  26  28
ATOM     28  C   UNL     1      -1.008  13.888  22.845  0.00  0.00    +0.000 A 
ATOM     29  C   UNL     1      -0.259  15.048  22.764  0.00  0.00    +0.000 A 
ATOM     30  C   UNL     1      -0.919  16.168  23.357  0.00  0.00    +0.000 A 
ATOM     31  C   UNL     1      -2.141  15.832  23.875  0.00  0.00    +0.000 A 
ATOM     32  S   UNL     1      -2.509  14.181  23.632  0.00  0.00    +0.000 S 
ENDBRANCH  26  28
ENDBRANCH  21  23
ENDBRANCH   2  18
TORSDOF 5
ENDMDL
MODEL 9
REMARK VINA RESULT:      -7.6      1.505      1.736
REMARK  Name = 
REMARK  5 active torsions:
REMARK  status: ('A' for Active; 'I' for Inactive)
REMARK    1  A    between atoms: C_2  and  C_16
REMARK    2  A    between atoms: N_3  and  C_4
REMARK    3  A    between atoms: C_9  and  N_10
REMARK    4  A    between atoms: C_19  and  C_20
REMARK    5  A    between atoms: C_23  and  C_24
REMARK                            x       y       z     vdW  Elec       q    Type
REMARK                         _______ _______ _______ _____ _____    ______ ____
ROOT
ATOM      1  O   UNL     1       1.871   6.068  17.768  0.00  0.00    +0.000 OA
ATOM      2  C   UNL     1       2.234   6.703  18.752  0.00  0.00    +0.000 C 
ATOM      3  N   UNL     1       3.030   6.222  19.769  0.00  0.00    +0.000 N 
ATOM      4  H   UNL     1       3.259   6.862  20.516  0.00  0.00    +0.000 HD
ENDROOT
BRANCH   3   5
ATOM      5  C   UNL     1       3.441   4.880  19.872  0.00  0.00    +0.000 A 
ATOM      6  C   UNL     1       2.651   4.043  20.676  0.00  0.00    +0.000 A 
ATOM      7  C   UNL     1       2.954   2.694  20.819  0.00  0.00    +0.000 A 
ATOM      8  C   UNL     1       4.048   2.171  20.144  0.00  0.00    +0.000 A 
ATOM      9  C   UNL     1       4.839   3.002  19.341  0.00  0.00    +0.000 A 
ATOM     10  C   UNL     1       4.572   4.379  19.176  0.00  0.00    +0.000 A 
BRANCH  10  11
ATOM     11  N   UNL     1       5.314   5.127  18.273  0.00  0.00    +0.000 N 
ATOM     12  C   UNL     1       6.244   6.178  18.721  0.00  0.00    +0.000 C 
ATOM     13  C   UNL     1       7.525   6.127  17.854  0.00  0.00    +0.000 C 
ATOM     14  N   UNL     1       7.268   6.221  16.401  0.00  0.00    +0.000 NA
ATOM     15  C   UNL     1       6.261   5.212  16.006  0.00  0.00    +0.000 C 
ATOM     16  C   UNL     1       4.966   5.257  16.854  0.00  0.00    +0.000 C 
ATOM     17  H   UNL     1       8.138   6.025  15.907  0.00  0.00    +0.000 HD
ENDBRANCH  10  11
ENDBRANCH   3   5
BRANCH   2  18
ATOM     18  C   UNL     1       1.872   8.114  18.942  0.00  0.00    +0.000 A 
ATOM     19  C   UNL     1       2.177   9.113  18.038  0.00  0.00    +0.000 A 
ATOM     20  S   UNL     1       1.562  10.614  18.585  0.00  0.00    +0.000 S 
ATOM     21  C   UNL     1       0.939   9.849  19.990  0.00  0.00    +0.000 A 
ATOM     22  N   UNL     1       1.171   8.550  20.066  0.00  0.00    +0.000 NA
BRANCH  21  23
ATOM     23  C   UNL     1       0.215  10.523  21.044  0.00  0.00    +0.000 A 
ATOM     24  C   UNL     1      -0.290   9.910  22.176  0.00  0.00    +0.000 A 
ATOM     25  C   UNL     1      -0.960  10.811  23.044  0.00  0.00    +0.000 A 
ATOM     26  C   UNL     1      -0.960  12.110  22.566  0.00  0.00    +0.000 A 
ATOM     27  S   UNL     1      -0.146  12.199  21.059  0.00  0.00    +0.000 S 
BRANCH  26  28
ATOM     28  C   UNL     1      -1.535  13.274  23.196  0.00  0.00    +0.000 A 
ATOM     29  C   UNL     1      -0.920  14.480  23.479  0.00  0.00    +0.000 A 
ATOM     30  C   UNL     1      -1.799  15.407  24.120  0.00  0.00    +0.000 A 
ATOM     31  C   UNL     1      -3.050  14.883  24.311  0.00  0.00    +0.000 A 
ATOM     32  S   UNL     1      -3.179  13.290  23.704  0.00  0.00    +0.000 S 
ENDBRANCH  26  28
ENDBRANCH  21  23
ENDBRANCH   2  18
TORSDOF 5
ENDMDL
