MODEL 1
REMARK VINA RESULT:      -7.6      0.000      0.000
REMARK  Name = 
REMARK  2 active torsions:
REMARK  status: ('A' for Active; 'I' for Inactive)
REMARK    1  A    between atoms: C_1  and  C_2
REMARK    2  A    between atoms: N_5  and  C_6
REMARK                            x       y       z     vdW  Elec       q    Type
REMARK                         _______ _______ _______ _____ _____    ______ ____
ROOT
ATOM      1  C   UNL     1       7.835   8.436  17.884  0.00  0.00    +0.000 C 
ATOM      2  C   UNL     1       7.049   7.324  17.261  0.00  0.00    +0.000 A 
ATOM      3  N   UNL     1       5.750   7.244  17.608  0.00  0.00    +0.000 NA
ATOM      4  C   UNL     1       4.953   6.276  17.089  0.00  0.00    +0.000 A 
ATOM      5  N   UNL     1       3.608   6.179  17.478  0.00  0.00    +0.000 N 
ATOM      6  C   UNL     1       5.545   5.373  16.189  0.00  0.00    +0.000 A 
ATOM      7  C   UNL     1       5.129   4.251  15.413  0.00  0.00    +0.000 A 
ATOM      8  C   UNL     1       6.225   3.796  14.706  0.00  0.00    +0.000 A 
ATOM      9  N   UNL     1       7.290   4.600  15.028  0.00  0.00    +0.000 N 
ATOM     10  C   UNL     1       6.891   5.561  15.916  0.00  0.00    +0.000 A 
ATOM     11  N   UNL     1       7.699   6.506  16.413  0.00  0.00    +0.000 NA
ATOM     12  H   UNL     1       3.158   5.318  17.206  0.00  0.00    +0.000 HD
ATOM     13  H   UNL     1       8.232   4.522  14.674  0.00  0.00    +0.000 HD
ENDROOT
BRANCH   5  14
ATOM     14  C   UNL     1       2.820   7.072  18.224  0.00  0.00    +0.000 A 
ATOM     15  C   UNL     1       2.375   8.301  17.715  0.00  0.00    +0.000 A 
ATOM     16  C   UNL     1       1.658   9.203  18.505  0.00  0.00    +0.000 A 
ATOM     17  C   UNL     1       1.376   8.888  19.828  0.00  0.00    +0.000 A 
ATOM     18  I   UNL     1       0.327  10.236  21.009  0.00  0.00    +0.000 I 
ATOM     19  C   UNL     1       1.801   7.673  20.361  0.00  0.00    +0.000 A 
ATOM     20  C   UNL     1       2.519   6.774  19.561  0.00  0.00    +0.000 A 
ENDBRANCH   5  14
TORSDOF 1
ENDMDL
MODEL 2
REMARK VINA RESULT:      -7.2      1.204      1.655
REMARK  Name = 
REMARK  2 active torsions:
REMARK  status: ('A' for Active; 'I' for Inactive)
REMARK    1  A    between atoms: C_1  and  C_2
REMARK    2  A    between atoms: N_5  and  C_6
REMARK                            x       y       z     vdW  Elec       q    Type
REMARK                         _______ _______ _______ _____ _____    ______ ____
ROOT
ATOM      1  C   UNL     1       7.954   5.774  19.373  0.00  0.00    +0.000 C 
ATOM      2  C   UNL     1       7.090   5.487  18.185  0.00  0.00    +0.000 A 
ATOM      3  N   UNL     1       5.790   5.821  18.299  0.00  0.00    +0.000 NA
ATOM      4  C   UNL     1       4.928   5.610  17.272  0.00  0.00    +0.000 A 
ATOM      5  N   UNL     1       3.569   5.933  17.407  0.00  0.00    +0.000 N 
ATOM      6  C   UNL     1       5.453   5.027  16.104  0.00  0.00    +0.000 A 
ATOM      7  C   UNL     1       4.965   4.643  14.821  0.00  0.00    +0.000 A 
ATOM      8  C   UNL     1       6.024   4.122  14.104  0.00  0.00    +0.000 A 
ATOM      9  N   UNL     1       7.135   4.175  14.908  0.00  0.00    +0.000 N 
ATOM     10  C   UNL     1       6.806   4.727  16.115  0.00  0.00    +0.000 A 
ATOM     11  N   UNL     1       7.677   4.926  17.113  0.00  0.00    +0.000 NA
ATOM     12  H   UNL     1       2.978   5.552  16.683  0.00  0.00    +0.000 HD
ATOM     13  H   UNL     1       8.067   3.868  14.668  0.00  0.00    +0.000 HD
ENDROOT
BRANCH   5  14
ATOM     14  C   UNL     1       2.911   6.655  18.417  0.00  0.00    +0.000 A 
ATOM     15  C   UNL     1       2.548   6.085  19.646  0.00  0.00    +0.000 A 
ATOM     16  C   UNL     1       1.827   6.804  20.601  0.00  0.00    +0.000 A 
ATOM     17  C   UNL     1       1.452   8.116  20.339  0.00  0.00    +0.000 A 
ATOM     18  I   UNL     1       0.363   9.181  21.750  0.00  0.00    +0.000 I 
ATOM     19  C   UNL     1       1.801   8.711  19.128  0.00  0.00    +0.000 A 
ATOM     20  C   UNL     1       2.525   7.981  18.175  0.00  0.00    +0.000 A 
ENDBRANCH   5  14
TORSDOF 1
ENDMDL
MODEL 3
REMARK VINA RESULT:      -7.2      1.206      1.242
REMARK  Name = 
REMARK  2 active torsions:
REMARK  status: ('A' for Active; 'I' for Inactive)
REMARK    1  A    between atoms: C_1  and  C_2
REMARK    2  A    between atoms: N_5  and  C_6
REMARK                            x       y       z     vdW  Elec       q    Type
REMARK                         _______ _______ _______ _____ _____    ______ ____
ROOT
ATOM      1  C   UNL     1       7.790   5.795  19.665  0.00  0.00    +0.000 C 
ATOM      2  C   UNL     1       7.032   5.539  18.400  0.00  0.00    +0.000 A 
ATOM      3  N   UNL     1       5.728   5.875  18.407  0.00  0.00    +0.000 NA
ATOM      4  C   UNL     1       4.958   5.690  17.304  0.00  0.00    +0.000 A 
ATOM      5  N   UNL     1       3.593   6.015  17.327  0.00  0.00    +0.000 N 
ATOM      6  C   UNL     1       5.583   5.134  16.173  0.00  0.00    +0.000 A 
ATOM      7  C   UNL     1       5.208   4.781  14.844  0.00  0.00    +0.000 A 
ATOM      8  C   UNL     1       6.325   4.274  14.210  0.00  0.00    +0.000 A 
ATOM      9  N   UNL     1       7.362   4.304  15.109  0.00  0.00    +0.000 N 
ATOM     10  C   UNL     1       6.930   4.829  16.295  0.00  0.00    +0.000 A 
ATOM     11  N   UNL     1       7.710   5.001  17.369  0.00  0.00    +0.000 NA
ATOM     12  H   UNL     1       3.067   5.654  16.546  0.00  0.00    +0.000 HD
ATOM     13  H   UNL     1       8.310   3.999  14.944  0.00  0.00    +0.000 HD
ENDROOT
BRANCH   5  14
ATOM     14  C   UNL     1       2.851   6.716  18.293  0.00  0.00    +0.000 A 
ATOM     15  C   UNL     1       2.460   8.053  18.127  0.00  0.00    +0.000 A 
ATOM     16  C   UNL     1       1.789   8.749  19.136  0.00  0.00    +0.000 A 
ATOM     17  C   UNL     1       1.499   8.113  20.337  0.00  0.00    +0.000 A 
ATOM     18  I   UNL     1       0.520   9.152  21.845  0.00  0.00    +0.000 I 
ATOM     19  C   UNL     1       1.872   6.784  20.529  0.00  0.00    +0.000 A 
ATOM     20  C   UNL     1       2.544   6.094  19.512  0.00  0.00    +0.000 A 
ENDBRANCH   5  14
TORSDOF 1
ENDMDL
MODEL 4
REMARK VINA RESULT:      -7.1      1.926      3.259
REMARK  Name = 
REMARK  2 active torsions:
REMARK  status: ('A' for Active; 'I' for Inactive)
REMARK    1  A    between atoms: C_1  and  C_2
REMARK    2  A    between atoms: N_5  and  C_6
REMARK                            x       y       z     vdW  Elec       q    Type
REMARK                         _______ _______ _______ _____ _____    ______ ____
ROOT
ATOM      1  C   UNL     1       1.409   2.803  18.708  0.00  0.00    +0.000 C 
ATOM      2  C   UNL     1       2.539   3.573  18.099  0.00  0.00    +0.000 A 
ATOM      3  N   UNL     1       2.462   4.915  18.187  0.00  0.00    +0.000 NA
ATOM      4  C   UNL     1       3.443   5.700  17.673  0.00  0.00    +0.000 A 
ATOM      5  N   UNL     1       3.344   7.098  17.741  0.00  0.00    +0.000 N 
ATOM      6  C   UNL     1       4.524   5.050  17.050  0.00  0.00    +0.000 A 
ATOM      7  C   UNL     1       5.738   5.430  16.406  0.00  0.00    +0.000 A 
ATOM      8  C   UNL     1       6.385   4.277  16.008  0.00  0.00    +0.000 A 
ATOM      9  N   UNL     1       5.605   3.212  16.386  0.00  0.00    +0.000 N 
ATOM     10  C   UNL     1       4.483   3.665  17.023  0.00  0.00    +0.000 A 
ATOM     11  N   UNL     1       3.529   2.868  17.522  0.00  0.00    +0.000 NA
ATOM     12  H   UNL     1       4.004   7.590  17.158  0.00  0.00    +0.000 HD
ATOM     13  H   UNL     1       5.808   2.235  16.236  0.00  0.00    +0.000 HD
ENDROOT
BRANCH   5  14
ATOM     14  C   UNL     1       2.437   7.903  18.453  0.00  0.00    +0.000 A 
ATOM     15  C   UNL     1       1.838   9.044  17.900  0.00  0.00    +0.000 A 
ATOM     16  C   UNL     1       1.000   9.868  18.655  0.00  0.00    +0.000 A 
ATOM     17  C   UNL     1       0.751   9.563  19.987  0.00  0.00    +0.000 A 
ATOM     18  I   UNL     1      -0.478  10.798  21.117  0.00  0.00    +0.000 I 
ATOM     19  C   UNL     1       1.329   8.434  20.564  0.00  0.00    +0.000 A 
ATOM     20  C   UNL     1       2.167   7.612  19.798  0.00  0.00    +0.000 A 
ENDBRANCH   5  14
TORSDOF 1
ENDMDL
MODEL 5
REMARK VINA RESULT:      -6.9      2.321      3.827
REMARK  Name = 
REMARK  2 active torsions:
REMARK  status: ('A' for Active; 'I' for Inactive)
REMARK    1  A    between atoms: C_1  and  C_2
REMARK    2  A    between atoms: N_5  and  C_6
REMARK                            x       y       z     vdW  Elec       q    Type
REMARK                         _______ _______ _______ _____ _____    ______ ____
ROOT
ATOM      1  C   UNL     1       1.176   3.252  20.292  0.00  0.00    +0.000 C 
ATOM      2  C   UNL     1       2.138   3.827  19.300  0.00  0.00    +0.000 A 
ATOM      3  N   UNL     1       2.077   5.160  19.113  0.00  0.00    +0.000 NA
ATOM      4  C   UNL     1       2.915   5.777  18.241  0.00  0.00    +0.000 A 
ATOM      5  N   UNL     1       2.827   7.161  18.029  0.00  0.00    +0.000 N 
ATOM      6  C   UNL     1       3.832   4.964  17.550  0.00  0.00    +0.000 A 
ATOM      7  C   UNL     1       4.870   5.148  16.590  0.00  0.00    +0.000 A 
ATOM      8  C   UNL     1       5.416   3.910  16.316  0.00  0.00    +0.000 A 
ATOM      9  N   UNL     1       4.745   2.983  17.073  0.00  0.00    +0.000 N 
ATOM     10  C   UNL     1       3.792   3.607  17.830  0.00  0.00    +0.000 A 
ATOM     11  N   UNL     1       2.977   2.974  18.684  0.00  0.00    +0.000 NA
ATOM     12  H   UNL     1       3.338   7.491  17.224  0.00  0.00    +0.000 HD
ATOM     13  H   UNL     1       4.913   1.987  17.095  0.00  0.00    +0.000 HD
ENDROOT
BRANCH   5  14
ATOM     14  C   UNL     1       2.099   8.135  18.734  0.00  0.00    +0.000 A 
ATOM     15  C   UNL     1       1.814   8.027  20.103  0.00  0.00    +0.000 A 
ATOM     16  C   UNL     1       1.023   8.972  20.762  0.00  0.00    +0.000 A 
ATOM     17  C   UNL     1       0.499  10.046  20.054  0.00  0.00    +0.000 A 
ATOM     18  I   UNL     1      -0.693  11.441  21.026  0.00  0.00    +0.000 I 
ATOM     19  C   UNL     1       0.768  10.182  18.693  0.00  0.00    +0.000 A 
ATOM     20  C   UNL     1       1.563   9.230  18.041  0.00  0.00    +0.000 A 
ENDBRANCH   5  14
TORSDOF 1
ENDMDL
MODEL 6
REMARK VINA RESULT:      -6.9      2.513      3.946
REMARK  Name = 
REMARK  2 active torsions:
REMARK  status: ('A' for Active; 'I' for Inactive)
REMARK    1  A    between atoms: C_1  and  C_2
REMARK    2  A    between atoms: N_5  and  C_6
REMARK                            x       y       z     vdW  Elec       q    Type
REMARK                         _______ _______ _______ _____ _____    ______ ____
ROOT
ATOM      1  C   UNL     1       1.053   3.536  20.455  0.00  0.00    +0.000 C 
ATOM      2  C   UNL     1       2.243   4.185  19.819  0.00  0.00    +0.000 A 
ATOM      3  N   UNL     1       2.106   5.482  19.481  0.00  0.00    +0.000 NA
ATOM      4  C   UNL     1       3.132   6.161  18.908  0.00  0.00    +0.000 A 
ATOM      5  N   UNL     1       2.973   7.504  18.532  0.00  0.00    +0.000 N 
ATOM      6  C   UNL     1       4.325   5.451  18.685  0.00  0.00    +0.000 A 
ATOM      7  C   UNL     1       5.616   5.726  18.147  0.00  0.00    +0.000 A 
ATOM      8  C   UNL     1       6.361   4.566  18.222  0.00  0.00    +0.000 A 
ATOM      9  N   UNL     1       5.567   3.598  18.783  0.00  0.00    +0.000 N 
ATOM     10  C   UNL     1       4.337   4.120  19.074  0.00  0.00    +0.000 A 
ATOM     11  N   UNL     1       3.341   3.428  19.641  0.00  0.00    +0.000 NA
ATOM     12  H   UNL     1       3.705   7.857  17.934  0.00  0.00    +0.000 HD
ATOM     13  H   UNL     1       5.826   2.640  18.970  0.00  0.00    +0.000 HD
ENDROOT
BRANCH   5  14
ATOM     14  C   UNL     1       1.931   8.402  18.819  0.00  0.00    +0.000 A 
ATOM     15  C   UNL     1       1.274   9.146  17.828  0.00  0.00    +0.000 A 
ATOM     16  C   UNL     1       0.294  10.088  18.149  0.00  0.00    +0.000 A 
ATOM     17  C   UNL     1      -0.044  10.305  19.479  0.00  0.00    +0.000 A 
ATOM     18  I   UNL     1      -1.485  11.720  19.960  0.00  0.00    +0.000 I 
ATOM     19  C   UNL     1       0.589   9.579  20.486  0.00  0.00    +0.000 A 
ATOM     20  C   UNL     1       1.570   8.635  20.154  0.00  0.00    +0.000 A 
ENDBRANCH   5  14
TORSDOF 1
ENDMDL
MODEL 7
REMARK VINA RESULT:      -6.8      3.517      3.907
REMARK  Name = 
REMARK  2 active torsions:
REMARK  status: ('A' for Active; 'I' for Inactive)
REMARK    1  A    between atoms: C_1  and  C_2
REMARK    2  A    between atoms: N_5  and  C_6
REMARK                            x       y       z     vdW  Elec       q    Type
REMARK                         _______ _______ _______ _____ _____    ______ ____
ROOT
ATOM      1  C   UNL     1       7.557   6.733  17.812  0.00  0.00    +0.000 C 
ATOM      2  C   UNL     1       7.087   5.854  16.695  0.00  0.00    +0.000 A 
ATOM      3  N   UNL     1       6.128   4.960  17.002  0.00  0.00    +0.000 NA
ATOM      4  C   UNL     1       5.630   4.125  16.055  0.00  0.00    +0.000 A 
ATOM      5  N   UNL     1       4.651   3.176  16.388  0.00  0.00    +0.000 N 
ATOM      6  C   UNL     1       6.162   4.237  14.758  0.00  0.00    +0.000 A 
ATOM      7  C   UNL     1       5.959   3.616  13.491  0.00  0.00    +0.000 A 
ATOM      8  C   UNL     1       6.821   4.206  12.588  0.00  0.00    +0.000 A 
ATOM      9  N   UNL     1       7.541   5.160  13.263  0.00  0.00    +0.000 N 
ATOM     10  C   UNL     1       7.147   5.195  14.573  0.00  0.00    +0.000 A 
ATOM     11  N   UNL     1       7.655   6.030  15.488  0.00  0.00    +0.000 NA
ATOM     12  H   UNL     1       4.498   2.473  15.681  0.00  0.00    +0.000 HD
ATOM     13  H   UNL     1       8.252   5.763  12.876  0.00  0.00    +0.000 HD
ENDROOT
BRANCH   5  14
ATOM     14  C   UNL     1       3.901   3.032  17.568  0.00  0.00    +0.000 A 
ATOM     15  C   UNL     1       2.572   3.466  17.680  0.00  0.00    +0.000 A 
ATOM     16  C   UNL     1       1.874   3.380  18.888  0.00  0.00    +0.000 A 
ATOM     17  C   UNL     1       2.503   2.858  20.011  0.00  0.00    +0.000 A 
ATOM     18  I   UNL     1       1.474   2.748  21.812  0.00  0.00    +0.000 I 
ATOM     19  C   UNL     1       3.821   2.415  19.929  0.00  0.00    +0.000 A 
ATOM     20  C   UNL     1       4.513   2.504  18.714  0.00  0.00    +0.000 A 
ENDBRANCH   5  14
TORSDOF 1
ENDMDL
MODEL 8
REMARK VINA RESULT:      -6.7      2.343      3.351
REMARK  Name = 
REMARK  2 active torsions:
REMARK  status: ('A' for Active; 'I' for Inactive)
REMARK    1  A    between atoms: C_1  and  C_2
REMARK    2  A    between atoms: N_5  and  C_6
REMARK                            x       y       z     vdW  Elec       q    Type
REMARK                         _______ _______ _______ _____ _____    ______ ____
ROOT
ATOM      1  C   UNL     1       5.290   6.304  16.032  0.00  0.00    +0.000 C 
ATOM      2  C   UNL     1       4.761   5.616  17.253  0.00  0.00    +0.000 A 
ATOM      3  N   UNL     1       3.912   6.329  18.018  0.00  0.00    +0.000 NA
ATOM      4  C   UNL     1       3.371   5.789  19.140  0.00  0.00    +0.000 A 
ATOM      5  N   UNL     1       2.510   6.547  19.949  0.00  0.00    +0.000 N 
ATOM      6  C   UNL     1       3.742   4.471  19.460  0.00  0.00    +0.000 A 
ATOM      7  C   UNL     1       3.441   3.522  20.481  0.00  0.00    +0.000 A 
ATOM      8  C   UNL     1       4.148   2.368  20.207  0.00  0.00    +0.000 A 
ATOM      9  N   UNL     1       4.868   2.585  19.059  0.00  0.00    +0.000 N 
ATOM     10  C   UNL     1       4.626   3.847  18.593  0.00  0.00    +0.000 A 
ATOM     11  N   UNL     1       5.173   4.356  17.481  0.00  0.00    +0.000 NA
ATOM     12  H   UNL     1       2.329   6.142  20.855  0.00  0.00    +0.000 HD
ATOM     13  H   UNL     1       5.484   1.928  18.602  0.00  0.00    +0.000 HD
ENDROOT
BRANCH   5  14
ATOM     14  C   UNL     1       1.913   7.795  19.706  0.00  0.00    +0.000 A 
ATOM     15  C   UNL     1       1.987   8.444  18.464  0.00  0.00    +0.000 A 
ATOM     16  C   UNL     1       1.449   9.719  18.272  0.00  0.00    +0.000 A 
ATOM     17  C   UNL     1       0.828  10.372  19.330  0.00  0.00    +0.000 A 
ATOM     18  I   UNL     1       0.046  12.275  19.052  0.00  0.00    +0.000 I 
ATOM     19  C   UNL     1       0.735   9.751  20.574  0.00  0.00    +0.000 A 
ATOM     20  C   UNL     1       1.277   8.471  20.757  0.00  0.00    +0.000 A 
ENDBRANCH   5  14
TORSDOF 1
ENDMDL
MODEL 9
REMARK VINA RESULT:      -6.7      2.326      3.461
REMARK  Name = 
REMARK  2 active torsions:
REMARK  status: ('A' for Active; 'I' for Inactive)
REMARK    1  A    between atoms: C_1  and  C_2
REMARK    2  A    between atoms: N_5  and  C_6
REMARK                            x       y       z     vdW  Elec       q    Type
REMARK                         _______ _______ _______ _____ _____    ______ ____
ROOT
ATOM      1  C   UNL     1       5.249   6.457  16.062  0.00  0.00    +0.000 C 
ATOM      2  C   UNL     1       4.733   5.728  17.264  0.00  0.00    +0.000 A 
ATOM      3  N   UNL     1       3.892   6.414  18.062  0.00  0.00    +0.000 NA
ATOM      4  C   UNL     1       3.363   5.836  19.171  0.00  0.00    +0.000 A 
ATOM      5  N   UNL     1       2.510   6.565  20.014  0.00  0.00    +0.000 N 
ATOM      6  C   UNL     1       3.737   4.508  19.441  0.00  0.00    +0.000 A 
ATOM      7  C   UNL     1       3.446   3.525  20.432  0.00  0.00    +0.000 A 
ATOM      8  C   UNL     1       4.150   2.381  20.112  0.00  0.00    +0.000 A 
ATOM      9  N   UNL     1       4.859   2.637  18.965  0.00  0.00    +0.000 N 
ATOM     10  C   UNL     1       4.612   3.915  18.544  0.00  0.00    +0.000 A 
ATOM     11  N   UNL     1       5.147   4.461  17.445  0.00  0.00    +0.000 NA
ATOM     12  H   UNL     1       2.338   6.129  20.907  0.00  0.00    +0.000 HD
ATOM     13  H   UNL     1       5.470   1.996  18.479  0.00  0.00    +0.000 HD
ENDROOT
BRANCH   5  14
ATOM     14  C   UNL     1       1.910   7.821  19.820  0.00  0.00    +0.000 A 
ATOM     15  C   UNL     1       1.214   8.495  20.835  0.00  0.00    +0.000 A 
ATOM     16  C   UNL     1       0.562   9.707  20.593  0.00  0.00    +0.000 A 
ATOM     17  C   UNL     1       0.593  10.265  19.321  0.00  0.00    +0.000 A 
ATOM     18  I   UNL     1      -0.392  12.056  18.956  0.00  0.00    +0.000 I 
ATOM     19  C   UNL     1       1.280   9.621  18.294  0.00  0.00    +0.000 A 
ATOM     20  C   UNL     1       1.932   8.406  18.546  0.00  0.00    +0.000 A 
ENDBRANCH   5  14
TORSDOF 1
ENDMDL
