MODEL 1
REMARK VINA RESULT:      -5.8      0.000      0.000
REMARK  Name = 
REMARK  13 active torsions:
REMARK  status: ('A' for Active; 'I' for Inactive)
REMARK    1  A    between atoms: C_1  and  O_2
REMARK    2  A    between atoms: O_2  and  C_3
REMARK    3  A    between atoms: C_3  and  C_5
REMARK    4  A    between atoms: C_5  and  C_6
REMARK    5  A    between atoms: C_6  and  C_7
REMARK    6  A    between atoms: C_7  and  C_8
REMARK    7  A    between atoms: C_8  and  C_9
REMARK    8  A    between atoms: C_9  and  C_10
REMARK    9  A    between atoms: C_10  and  C_11
REMARK   10  A    between atoms: C_11  and  C_12
REMARK   11  A    between atoms: C_12  and  C_13
REMARK   12  A    between atoms: C_13  and  C_14
REMARK   13  A    between atoms: C_14  and  N_15
REMARK                            x       y       z     vdW  Elec       q    Type
REMARK                         _______ _______ _______ _____ _____    ______ ____
ROOT
ATOM      1  C   UNL     1       7.436   5.760  18.223  0.00  0.00    +0.000 C 
ENDROOT
BRANCH   1   2
ATOM      2  C   UNL     1       7.281   4.710  17.133  0.00  0.00    +0.000 C 
BRANCH   2   3
ATOM      3  C   UNL     1       6.691   5.347  15.884  0.00  0.00    +0.000 C 
BRANCH   3   4
ATOM      4  C   UNL     1       5.332   4.746  15.549  0.00  0.00    +0.000 C 
BRANCH   4   5
ATOM      5  C   UNL     1       4.871   3.858  16.695  0.00  0.00    +0.000 C 
BRANCH   5   6
ATOM      6  C   UNL     1       3.650   4.428  17.402  0.00  0.00    +0.000 C 
BRANCH   6   7
ATOM      7  C   UNL     1       3.812   4.304  18.896  0.00  0.00    +0.000 C 
ATOM      8  O   UNL     1       3.137   4.888  19.739  0.00  0.00    +0.000 OA
BRANCH   7  10
ATOM      9  C   UNL     1       4.386   2.298  19.933  0.00  0.00    +0.000 C 
ATOM     10  O   UNL     1       4.821   3.431  19.185  0.00  0.00    +0.000 OA
ENDBRANCH   7  10
ENDBRANCH   6   7
ENDBRANCH   5   6
ENDBRANCH   4   5
ENDBRANCH   3   4
ENDBRANCH   2   3
ENDBRANCH   1   2
BRANCH   1  11
ATOM     11  C   UNL     1       7.620   7.133  17.604  0.00  0.00    +0.000 C 
BRANCH  11  12
ATOM     12  C   UNL     1       8.402   8.052  18.534  0.00  0.00    +0.000 C 
BRANCH  12  13
ATOM     13  C   UNL     1       8.363   9.471  17.971  0.00  0.00    +0.000 C 
BRANCH  13  14
ATOM     14  C   UNL     1       8.869  10.532  18.952  0.00  0.00    +0.000 C 
BRANCH  14  15
ATOM     15  N   UNL     1      10.164  11.120  18.574  0.00  0.00    +0.000 NA
ATOM     16  C   UNL     1       9.991  12.300  17.717  0.00  0.00    +0.000 C 
ATOM     17  C   UNL     1      11.337  12.879  17.286  0.00  0.00    +0.000 C 
ATOM     18  C   UNL     1      12.195  13.226  18.491  0.00  0.00    +0.000 C 
ATOM     19  C   UNL     1      12.328  12.015  19.408  0.00  0.00    +0.000 C 
ATOM     20  C   UNL     1      10.953  11.452  19.775  0.00  0.00    +0.000 C 
ENDBRANCH  14  15
ENDBRANCH  13  14
ENDBRANCH  12  13
ENDBRANCH  11  12
ENDBRANCH   1  11
TORSDOF 12
ENDMDL
MODEL 2
REMARK VINA RESULT:      -5.8      4.224      9.314
REMARK  Name = 
REMARK  13 active torsions:
REMARK  status: ('A' for Active; 'I' for Inactive)
REMARK    1  A    between atoms: C_1  and  O_2
REMARK    2  A    between atoms: O_2  and  C_3
REMARK    3  A    between atoms: C_3  and  C_5
REMARK    4  A    between atoms: C_5  and  C_6
REMARK    5  A    between atoms: C_6  and  C_7
REMARK    6  A    between atoms: C_7  and  C_8
REMARK    7  A    between atoms: C_8  and  C_9
REMARK    8  A    between atoms: C_9  and  C_10
REMARK    9  A    between atoms: C_10  and  C_11
REMARK   10  A    between atoms: C_11  and  C_12
REMARK   11  A    between atoms: C_12  and  C_13
REMARK   12  A    between atoms: C_13  and  C_14
REMARK   13  A    between atoms: C_14  and  N_15
REMARK                            x       y       z     vdW  Elec       q    Type
REMARK                         _______ _______ _______ _____ _____    ______ ____
ROOT
ATOM      1  C   UNL     1       5.668   6.112  18.167  0.00  0.00    +0.000 C 
ENDROOT
BRANCH   1   2
ATOM      2  C   UNL     1       7.096   5.892  17.691  0.00  0.00    +0.000 C 
BRANCH   2   3
ATOM      3  C   UNL     1       8.025   6.883  18.375  0.00  0.00    +0.000 C 
BRANCH   3   4
ATOM      4  C   UNL     1       7.888   8.274  17.770  0.00  0.00    +0.000 C 
BRANCH   4   5
ATOM      5  C   UNL     1       8.706   9.266  18.584  0.00  0.00    +0.000 C 
BRANCH   5   6
ATOM      6  C   UNL     1       8.673  10.662  17.980  0.00  0.00    +0.000 C 
BRANCH   6   7
ATOM      7  C   UNL     1       9.432  11.624  18.859  0.00  0.00    +0.000 C 
ATOM      8  O   UNL     1       9.107  12.785  19.095  0.00  0.00    +0.000 OA
BRANCH   7  10
ATOM      9  C   UNL     1      11.749  11.714  19.088  0.00  0.00    +0.000 C 
ATOM     10  O   UNL     1      10.540  11.013  19.373  0.00  0.00    +0.000 OA
ENDBRANCH   7  10
ENDBRANCH   6   7
ENDBRANCH   5   6
ENDBRANCH   4   5
ENDBRANCH   3   4
ENDBRANCH   2   3
ENDBRANCH   1   2
BRANCH   1  11
ATOM     11  C   UNL     1       4.695   5.874  17.026  0.00  0.00    +0.000 C 
BRANCH  11  12
ATOM     12  C   UNL     1       5.012   4.572  16.301  0.00  0.00    +0.000 C 
BRANCH  12  13
ATOM     13  C   UNL     1       4.395   3.413  17.080  0.00  0.00    +0.000 C 
BRANCH  13  14
ATOM     14  C   UNL     1       2.880   3.538  17.264  0.00  0.00    +0.000 C 
BRANCH  14  15
ATOM     15  N   UNL     1       2.417   3.188  18.616  0.00  0.00    +0.000 NA
ATOM     16  C   UNL     1       3.542   3.008  19.543  0.00  0.00    +0.000 C 
ATOM     17  C   UNL     1       3.060   2.597  20.932  0.00  0.00    +0.000 C 
ATOM     18  C   UNL     1       2.075   3.609  21.493  0.00  0.00    +0.000 C 
ATOM     19  C   UNL     1       0.936   3.836  20.505  0.00  0.00    +0.000 C 
ATOM     20  C   UNL     1       1.475   4.204  19.121  0.00  0.00    +0.000 C 
ENDBRANCH  14  15
ENDBRANCH  13  14
ENDBRANCH  12  13
ENDBRANCH  11  12
ENDBRANCH   1  11
TORSDOF 12
ENDMDL
MODEL 3
REMARK VINA RESULT:      -5.7      5.502      8.016
REMARK  Name = 
REMARK  13 active torsions:
REMARK  status: ('A' for Active; 'I' for Inactive)
REMARK    1  A    between atoms: C_1  and  O_2
REMARK    2  A    between atoms: O_2  and  C_3
REMARK    3  A    between atoms: C_3  and  C_5
REMARK    4  A    between atoms: C_5  and  C_6
REMARK    5  A    between atoms: C_6  and  C_7
REMARK    6  A    between atoms: C_7  and  C_8
REMARK    7  A    between atoms: C_8  and  C_9
REMARK    8  A    between atoms: C_9  and  C_10
REMARK    9  A    between atoms: C_10  and  C_11
REMARK   10  A    between atoms: C_11  and  C_12
REMARK   11  A    between atoms: C_12  and  C_13
REMARK   12  A    between atoms: C_13  and  C_14
REMARK   13  A    between atoms: C_14  and  N_15
REMARK                            x       y       z     vdW  Elec       q    Type
REMARK                         _______ _______ _______ _____ _____    ______ ____
ROOT
ATOM      1  C   UNL     1       2.090   4.033  20.420  0.00  0.00    +0.000 C 
ENDROOT
BRANCH   1   2
ATOM      2  C   UNL     1       0.971   3.332  19.662  0.00  0.00    +0.000 C 
BRANCH   2   3
ATOM      3  C   UNL     1       1.514   2.746  18.369  0.00  0.00    +0.000 C 
BRANCH   3   4
ATOM      4  C   UNL     1       2.062   3.837  17.457  0.00  0.00    +0.000 C 
BRANCH   4   5
ATOM      5  C   UNL     1       3.497   3.507  17.074  0.00  0.00    +0.000 C 
BRANCH   5   6
ATOM      6  C   UNL     1       4.430   4.689  17.292  0.00  0.00    +0.000 C 
BRANCH   6   7
ATOM      7  C   UNL     1       5.537   4.306  18.242  0.00  0.00    +0.000 C 
ATOM      8  O   UNL     1       5.385   3.880  19.383  0.00  0.00    +0.000 OA
BRANCH   7  10
ATOM      9  C   UNL     1       6.690   5.354  16.509  0.00  0.00    +0.000 C 
ATOM     10  O   UNL     1       6.750   4.494  17.644  0.00  0.00    +0.000 OA
ENDBRANCH   7  10
ENDBRANCH   6   7
ENDBRANCH   5   6
ENDBRANCH   4   5
ENDBRANCH   3   4
ENDBRANCH   2   3
ENDBRANCH   1   2
BRANCH   1  11
ATOM     11  C   UNL     1       1.679   5.453  20.761  0.00  0.00    +0.000 C 
BRANCH  11  12
ATOM     12  C   UNL     1       2.405   6.459  19.878  0.00  0.00    +0.000 C 
BRANCH  12  13
ATOM     13  C   UNL     1       1.800   7.843  20.106  0.00  0.00    +0.000 C 
BRANCH  13  14
ATOM     14  C   UNL     1       1.187   8.019  21.498  0.00  0.00    +0.000 C 
BRANCH  14  15
ATOM     15  N   UNL     1       0.223   9.128  21.585  0.00  0.00    +0.000 NA
ATOM     16  C   UNL     1       0.017   9.556  22.975  0.00  0.00    +0.000 C 
ATOM     17  C   UNL     1      -1.021  10.672  23.066  0.00  0.00    +0.000 C 
ATOM     18  C   UNL     1      -0.626  11.860  22.204  0.00  0.00    +0.000 C 
ATOM     19  C   UNL     1      -0.358  11.406  20.774  0.00  0.00    +0.000 C 
ATOM     20  C   UNL     1       0.656  10.259  20.744  0.00  0.00    +0.000 C 
ENDBRANCH  14  15
ENDBRANCH  13  14
ENDBRANCH  12  13
ENDBRANCH  11  12
ENDBRANCH   1  11
TORSDOF 12
ENDMDL
MODEL 4
REMARK VINA RESULT:      -5.7      4.313      9.530
REMARK  Name = 
REMARK  13 active torsions:
REMARK  status: ('A' for Active; 'I' for Inactive)
REMARK    1  A    between atoms: C_1  and  O_2
REMARK    2  A    between atoms: O_2  and  C_3
REMARK    3  A    between atoms: C_3  and  C_5
REMARK    4  A    between atoms: C_5  and  C_6
REMARK    5  A    between atoms: C_6  and  C_7
REMARK    6  A    between atoms: C_7  and  C_8
REMARK    7  A    between atoms: C_8  and  C_9
REMARK    8  A    between atoms: C_9  and  C_10
REMARK    9  A    between atoms: C_10  and  C_11
REMARK   10  A    between atoms: C_11  and  C_12
REMARK   11  A    between atoms: C_12  and  C_13
REMARK   12  A    between atoms: C_13  and  C_14
REMARK   13  A    between atoms: C_14  and  N_15
REMARK                            x       y       z     vdW  Elec       q    Type
REMARK                         _______ _______ _______ _____ _____    ______ ____
ROOT
ATOM      1  C   UNL     1       7.911   6.603  18.609  0.00  0.00    +0.000 C 
ENDROOT
BRANCH   1   2
ATOM      2  C   UNL     1       7.276   7.521  17.575  0.00  0.00    +0.000 C 
BRANCH   2   3
ATOM      3  C   UNL     1       8.017   8.848  17.539  0.00  0.00    +0.000 C 
BRANCH   3   4
ATOM      4  C   UNL     1       8.804   9.074  18.824  0.00  0.00    +0.000 C 
BRANCH   4   5
ATOM      5  C   UNL     1       9.016  10.565  19.035  0.00  0.00    +0.000 C 
BRANCH   5   6
ATOM      6  C   UNL     1      10.387  11.018  18.558  0.00  0.00    +0.000 C 
BRANCH   6   7
ATOM      7  C   UNL     1      10.819  12.248  19.317  0.00  0.00    +0.000 C 
ATOM      8  O   UNL     1      11.783  12.319  20.075  0.00  0.00    +0.000 OA
BRANCH   7  10
ATOM      9  C   UNL     1      10.586  14.287  18.215  0.00  0.00    +0.000 C 
ATOM     10  O   UNL     1       9.983  13.290  19.034  0.00  0.00    +0.000 OA
ENDBRANCH   7  10
ENDBRANCH   6   7
ENDBRANCH   5   6
ENDBRANCH   4   5
ENDBRANCH   3   4
ENDBRANCH   2   3
ENDBRANCH   1   2
BRANCH   1  11
ATOM     11  C   UNL     1       7.661   5.151  18.242  0.00  0.00    +0.000 C 
BRANCH  11  12
ATOM     12  C   UNL     1       6.877   5.044  16.940  0.00  0.00    +0.000 C 
BRANCH  12  13
ATOM     13  C   UNL     1       5.551   4.340  17.220  0.00  0.00    +0.000 C 
BRANCH  13  14
ATOM     14  C   UNL     1       5.119   4.411  18.687  0.00  0.00    +0.000 C 
BRANCH  14  15
ATOM     15  N   UNL     1       3.676   4.210  18.890  0.00  0.00    +0.000 NA
ATOM     16  C   UNL     1       2.945   4.215  17.616  0.00  0.00    +0.000 C 
ATOM     17  C   UNL     1       1.442   4.056  17.834  0.00  0.00    +0.000 C 
ATOM     18  C   UNL     1       1.132   2.788  18.612  0.00  0.00    +0.000 C 
ATOM     19  C   UNL     1       1.933   2.759  19.909  0.00  0.00    +0.000 C 
ATOM     20  C   UNL     1       3.425   2.963  19.637  0.00  0.00    +0.000 C 
ENDBRANCH  14  15
ENDBRANCH  13  14
ENDBRANCH  12  13
ENDBRANCH  11  12
ENDBRANCH   1  11
TORSDOF 12
ENDMDL
MODEL 5
REMARK VINA RESULT:      -5.6      6.294      9.489
REMARK  Name = 
REMARK  13 active torsions:
REMARK  status: ('A' for Active; 'I' for Inactive)
REMARK    1  A    between atoms: C_1  and  O_2
REMARK    2  A    between atoms: O_2  and  C_3
REMARK    3  A    between atoms: C_3  and  C_5
REMARK    4  A    between atoms: C_5  and  C_6
REMARK    5  A    between atoms: C_6  and  C_7
REMARK    6  A    between atoms: C_7  and  C_8
REMARK    7  A    between atoms: C_8  and  C_9
REMARK    8  A    between atoms: C_9  and  C_10
REMARK    9  A    between atoms: C_10  and  C_11
REMARK   10  A    between atoms: C_11  and  C_12
REMARK   11  A    between atoms: C_12  and  C_13
REMARK   12  A    between atoms: C_13  and  C_14
REMARK   13  A    between atoms: C_14  and  N_15
REMARK                            x       y       z     vdW  Elec       q    Type
REMARK                         _______ _______ _______ _____ _____    ______ ____
ROOT
ATOM      1  C   UNL     1       2.866   6.513  17.802  0.00  0.00    +0.000 C 
ENDROOT
BRANCH   1   2
ATOM      2  C   UNL     1       2.475   7.515  18.879  0.00  0.00    +0.000 C 
BRANCH   2   3
ATOM      3  C   UNL     1       2.245   6.792  20.197  0.00  0.00    +0.000 C 
BRANCH   3   4
ATOM      4  C   UNL     1       1.005   7.321  20.907  0.00  0.00    +0.000 C 
BRANCH   4   5
ATOM      5  C   UNL     1       1.339   8.630  21.607  0.00  0.00    +0.000 C 
BRANCH   5   6
ATOM      6  C   UNL     1       0.166   9.597  21.594  0.00  0.00    +0.000 C 
BRANCH   6   7
ATOM      7  C   UNL     1      -0.213   9.970  23.006  0.00  0.00    +0.000 C 
ATOM      8  O   UNL     1       0.350   9.578  24.024  0.00  0.00    +0.000 OA
BRANCH   7  10
ATOM      9  C   UNL     1      -1.306  11.672  21.849  0.00  0.00    +0.000 C 
ATOM     10  O   UNL     1      -1.280  10.823  22.994  0.00  0.00    +0.000 OA
ENDBRANCH   7  10
ENDBRANCH   6   7
ENDBRANCH   5   6
ENDBRANCH   4   5
ENDBRANCH   3   4
ENDBRANCH   2   3
ENDBRANCH   1   2
BRANCH   1  11
ATOM     11  C   UNL     1       4.257   6.823  17.281  0.00  0.00    +0.000 C 
BRANCH  11  12
ATOM     12  C   UNL     1       4.968   5.552  16.833  0.00  0.00    +0.000 C 
BRANCH  12  13
ATOM     13  C   UNL     1       4.890   4.522  17.957  0.00  0.00    +0.000 C 
BRANCH  13  14
ATOM     14  C   UNL     1       4.127   3.251  17.571  0.00  0.00    +0.000 C 
BRANCH  14  15
ATOM     15  N   UNL     1       3.168   2.802  18.592  0.00  0.00    +0.000 NA
ATOM     16  C   UNL     1       3.465   3.388  19.906  0.00  0.00    +0.000 C 
ATOM     17  C   UNL     1       2.498   2.880  20.974  0.00  0.00    +0.000 C 
ATOM     18  C   UNL     1       1.056   3.162  20.586  0.00  0.00    +0.000 C 
ATOM     19  C   UNL     1       0.765   2.601  19.199  0.00  0.00    +0.000 C 
ATOM     20  C   UNL     1       1.787   3.108  18.178  0.00  0.00    +0.000 C 
ENDBRANCH  14  15
ENDBRANCH  13  14
ENDBRANCH  12  13
ENDBRANCH  11  12
ENDBRANCH   1  11
TORSDOF 12
ENDMDL
MODEL 6
REMARK VINA RESULT:      -5.6      4.395      9.554
REMARK  Name = 
REMARK  13 active torsions:
REMARK  status: ('A' for Active; 'I' for Inactive)
REMARK    1  A    between atoms: C_1  and  O_2
REMARK    2  A    between atoms: O_2  and  C_3
REMARK    3  A    between atoms: C_3  and  C_5
REMARK    4  A    between atoms: C_5  and  C_6
REMARK    5  A    between atoms: C_6  and  C_7
REMARK    6  A    between atoms: C_7  and  C_8
REMARK    7  A    between atoms: C_8  and  C_9
REMARK    8  A    between atoms: C_9  and  C_10
REMARK    9  A    between atoms: C_10  and  C_11
REMARK   10  A    between atoms: C_11  and  C_12
REMARK   11  A    between atoms: C_12  and  C_13
REMARK   12  A    between atoms: C_13  and  C_14
REMARK   13  A    between atoms: C_14  and  N_15
REMARK                            x       y       z     vdW  Elec       q    Type
REMARK                         _______ _______ _______ _____ _____    ______ ____
ROOT
ATOM      1  C   UNL     1       7.727   6.409  17.997  0.00  0.00    +0.000 C 
ENDROOT
BRANCH   1   2
ATOM      2  C   UNL     1       6.921   7.576  17.447  0.00  0.00    +0.000 C 
BRANCH   2   3
ATOM      3  C   UNL     1       7.692   8.872  17.641  0.00  0.00    +0.000 C 
BRANCH   3   4
ATOM      4  C   UNL     1       8.772   8.717  18.704  0.00  0.00    +0.000 C 
BRANCH   4   5
ATOM      5  C   UNL     1       9.209  10.090  19.191  0.00  0.00    +0.000 C 
BRANCH   5   6
ATOM      6  C   UNL     1       9.724  10.960  18.055  0.00  0.00    +0.000 C 
BRANCH   6   7
ATOM      7  C   UNL     1      10.802  11.886  18.559  0.00  0.00    +0.000 C 
ATOM      8  O   UNL     1      12.004  11.637  18.586  0.00  0.00    +0.000 OA
BRANCH   7  10
ATOM      9  C   UNL     1       9.669  13.819  17.920  0.00  0.00    +0.000 C 
ATOM     10  O   UNL     1      10.248  13.062  18.979  0.00  0.00    +0.000 OA
ENDBRANCH   7  10
ENDBRANCH   6   7
ENDBRANCH   5   6
ENDBRANCH   4   5
ENDBRANCH   3   4
ENDBRANCH   2   3
ENDBRANCH   1   2
BRANCH   1  11
ATOM     11  C   UNL     1       6.847   5.179  18.121  0.00  0.00    +0.000 C 
BRANCH  11  12
ATOM     12  C   UNL     1       6.443   4.656  16.748  0.00  0.00    +0.000 C 
BRANCH  12  13
ATOM     13  C   UNL     1       4.993   4.182  16.808  0.00  0.00    +0.000 C 
BRANCH  13  14
ATOM     14  C   UNL     1       4.615   3.541  18.146  0.00  0.00    +0.000 C 
BRANCH  14  15
ATOM     15  N   UNL     1       3.214   3.769  18.537  0.00  0.00    +0.000 NA
ATOM     16  C   UNL     1       2.466   2.507  18.620  0.00  0.00    +0.000 C 
ATOM     17  C   UNL     1       1.001   2.751  18.977  0.00  0.00    +0.000 C 
ATOM     18  C   UNL     1       0.875   3.523  20.280  0.00  0.00    +0.000 C 
ATOM     19  C   UNL     1       1.697   4.805  20.212  0.00  0.00    +0.000 C 
ATOM     20  C   UNL     1       3.144   4.508  19.811  0.00  0.00    +0.000 C 
ENDBRANCH  14  15
ENDBRANCH  13  14
ENDBRANCH  12  13
ENDBRANCH  11  12
ENDBRANCH   1  11
TORSDOF 12
ENDMDL
MODEL 7
REMARK VINA RESULT:      -5.6      1.170      1.459
REMARK  Name = 
REMARK  13 active torsions:
REMARK  status: ('A' for Active; 'I' for Inactive)
REMARK    1  A    between atoms: C_1  and  O_2
REMARK    2  A    between atoms: O_2  and  C_3
REMARK    3  A    between atoms: C_3  and  C_5
REMARK    4  A    between atoms: C_5  and  C_6
REMARK    5  A    between atoms: C_6  and  C_7
REMARK    6  A    between atoms: C_7  and  C_8
REMARK    7  A    between atoms: C_8  and  C_9
REMARK    8  A    between atoms: C_9  and  C_10
REMARK    9  A    between atoms: C_10  and  C_11
REMARK   10  A    between atoms: C_11  and  C_12
REMARK   11  A    between atoms: C_12  and  C_13
REMARK   12  A    between atoms: C_13  and  C_14
REMARK   13  A    between atoms: C_14  and  N_15
REMARK                            x       y       z     vdW  Elec       q    Type
REMARK                         _______ _______ _______ _____ _____    ______ ____
ROOT
ATOM      1  C   UNL     1       6.751   6.199  17.960  0.00  0.00    +0.000 C 
ENDROOT
BRANCH   1   2
ATOM      2  C   UNL     1       6.826   5.847  16.481  0.00  0.00    +0.000 C 
BRANCH   2   3
ATOM      3  C   UNL     1       5.423   5.742  15.905  0.00  0.00    +0.000 C 
BRANCH   3   4
ATOM      4  C   UNL     1       4.762   4.427  16.301  0.00  0.00    +0.000 C 
BRANCH   4   5
ATOM      5  C   UNL     1       3.642   4.699  17.293  0.00  0.00    +0.000 C 
BRANCH   5   6
ATOM      6  C   UNL     1       2.766   3.475  17.513  0.00  0.00    +0.000 C 
BRANCH   6   7
ATOM      7  C   UNL     1       3.114   2.819  18.826  0.00  0.00    +0.000 C 
ATOM      8  O   UNL     1       3.853   1.849  18.967  0.00  0.00    +0.000 OA
BRANCH   7  10
ATOM      9  C   UNL     1       1.447   2.703  20.450  0.00  0.00    +0.000 C 
ATOM     10  O   UNL     1       2.489   3.469  19.852  0.00  0.00    +0.000 OA
ENDBRANCH   7  10
ENDBRANCH   6   7
ENDBRANCH   5   6
ENDBRANCH   4   5
ENDBRANCH   3   4
ENDBRANCH   2   3
ENDBRANCH   1   2
BRANCH   1  11
ATOM     11  C   UNL     1       7.954   7.034  18.359  0.00  0.00    +0.000 C 
BRANCH  11  12
ATOM     12  C   UNL     1       7.864   8.437  17.771  0.00  0.00    +0.000 C 
BRANCH  12  13
ATOM     13  C   UNL     1       8.791   9.361  18.558  0.00  0.00    +0.000 C 
BRANCH  13  14
ATOM     14  C   UNL     1       8.930  10.756  17.944  0.00  0.00    +0.000 C 
BRANCH  14  15
ATOM     15  N   UNL     1      10.283  11.323  18.059  0.00  0.00    +0.000 NA
ATOM     16  C   UNL     1      10.347  12.684  17.510  0.00  0.00    +0.000 C 
ATOM     17  C   UNL     1      11.763  13.250  17.586  0.00  0.00    +0.000 C 
ATOM     18  C   UNL     1      12.283  13.235  19.014  0.00  0.00    +0.000 C 
ATOM     19  C   UNL     1      12.165  11.833  19.602  0.00  0.00    +0.000 C 
ATOM     20  C   UNL     1      10.738  11.299  19.462  0.00  0.00    +0.000 C 
ENDBRANCH  14  15
ENDBRANCH  13  14
ENDBRANCH  12  13
ENDBRANCH  11  12
ENDBRANCH   1  11
TORSDOF 12
ENDMDL
MODEL 8
REMARK VINA RESULT:      -5.6      1.485      1.742
REMARK  Name = 
REMARK  13 active torsions:
REMARK  status: ('A' for Active; 'I' for Inactive)
REMARK    1  A    between atoms: C_1  and  O_2
REMARK    2  A    between atoms: O_2  and  C_3
REMARK    3  A    between atoms: C_3  and  C_5
REMARK    4  A    between atoms: C_5  and  C_6
REMARK    5  A    between atoms: C_6  and  C_7
REMARK    6  A    between atoms: C_7  and  C_8
REMARK    7  A    between atoms: C_8  and  C_9
REMARK    8  A    between atoms: C_9  and  C_10
REMARK    9  A    between atoms: C_10  and  C_11
REMARK   10  A    between atoms: C_11  and  C_12
REMARK   11  A    between atoms: C_12  and  C_13
REMARK   12  A    between atoms: C_13  and  C_14
REMARK   13  A    between atoms: C_14  and  N_15
REMARK                            x       y       z     vdW  Elec       q    Type
REMARK                         _______ _______ _______ _____ _____    ______ ____
ROOT
ATOM      1  C   UNL     1       6.841   5.912  18.261  0.00  0.00    +0.000 C 
ENDROOT
BRANCH   1   2
ATOM      2  C   UNL     1       7.413   4.678  17.578  0.00  0.00    +0.000 C 
BRANCH   2   3
ATOM      3  C   UNL     1       6.829   4.546  16.180  0.00  0.00    +0.000 C 
BRANCH   3   4
ATOM      4  C   UNL     1       5.361   4.951  16.155  0.00  0.00    +0.000 C 
BRANCH   4   5
ATOM      5  C   UNL     1       4.508   3.807  16.683  0.00  0.00    +0.000 C 
BRANCH   5   6
ATOM      6  C   UNL     1       3.347   4.306  17.530  0.00  0.00    +0.000 C 
BRANCH   6   7
ATOM      7  C   UNL     1       2.382   3.179  17.800  0.00  0.00    +0.000 C 
ATOM      8  O   UNL     1       2.580   1.993  17.554  0.00  0.00    +0.000 OA
BRANCH   7  10
ATOM      9  C   UNL     1       0.773   2.869  19.457  0.00  0.00    +0.000 C 
ATOM     10  O   UNL     1       1.243   3.668  18.374  0.00  0.00    +0.000 OA
ENDBRANCH   7  10
ENDBRANCH   6   7
ENDBRANCH   5   6
ENDBRANCH   4   5
ENDBRANCH   3   4
ENDBRANCH   2   3
ENDBRANCH   1   2
BRANCH   1  11
ATOM     11  C   UNL     1       7.933   6.946  18.470  0.00  0.00    +0.000 C 
BRANCH  11  12
ATOM     12  C   UNL     1       7.942   7.966  17.338  0.00  0.00    +0.000 C 
BRANCH  12  13
ATOM     13  C   UNL     1       7.943   9.369  17.940  0.00  0.00    +0.000 C 
BRANCH  13  14
ATOM     14  C   UNL     1       9.034   9.582  18.993  0.00  0.00    +0.000 C 
BRANCH  14  15
ATOM     15  N   UNL     1       9.828  10.804  18.784  0.00  0.00    +0.000 NA
ATOM     16  C   UNL     1       9.100  11.789  17.973  0.00  0.00    +0.000 C 
ATOM     17  C   UNL     1       9.945  13.035  17.717  0.00  0.00    +0.000 C 
ATOM     18  C   UNL     1      10.404  13.664  19.022  0.00  0.00    +0.000 C 
ATOM     19  C   UNL     1      11.111  12.626  19.886  0.00  0.00    +0.000 C 
ATOM     20  C   UNL     1      10.237  11.384  20.076  0.00  0.00    +0.000 C 
ENDBRANCH  14  15
ENDBRANCH  13  14
ENDBRANCH  12  13
ENDBRANCH  11  12
ENDBRANCH   1  11
TORSDOF 12
ENDMDL
MODEL 9
REMARK VINA RESULT:      -5.6      4.370      9.538
REMARK  Name = 
REMARK  13 active torsions:
REMARK  status: ('A' for Active; 'I' for Inactive)
REMARK    1  A    between atoms: C_1  and  O_2
REMARK    2  A    between atoms: O_2  and  C_3
REMARK    3  A    between atoms: C_3  and  C_5
REMARK    4  A    between atoms: C_5  and  C_6
REMARK    5  A    between atoms: C_6  and  C_7
REMARK    6  A    between atoms: C_7  and  C_8
REMARK    7  A    between atoms: C_8  and  C_9
REMARK    8  A    between atoms: C_9  and  C_10
REMARK    9  A    between atoms: C_10  and  C_11
REMARK   10  A    between atoms: C_11  and  C_12
REMARK   11  A    between atoms: C_12  and  C_13
REMARK   12  A    between atoms: C_13  and  C_14
REMARK   13  A    between atoms: C_14  and  N_15
REMARK                            x       y       z     vdW  Elec       q    Type
REMARK                         _______ _______ _______ _____ _____    ______ ____
ROOT
ATOM      1  C   UNL     1       7.008   7.038  16.840  0.00  0.00    +0.000 C 
ENDROOT
BRANCH   1   2
ATOM      2  C   UNL     1       7.757   7.508  18.078  0.00  0.00    +0.000 C 
BRANCH   2   3
ATOM      3  C   UNL     1       8.200   8.951  17.896  0.00  0.00    +0.000 C 
BRANCH   3   4
ATOM      4  C   UNL     1       8.985   9.443  19.105  0.00  0.00    +0.000 C 
BRANCH   4   5
ATOM      5  C   UNL     1       9.585  10.807  18.802  0.00  0.00    +0.000 C 
BRANCH   5   6
ATOM      6  C   UNL     1       8.702  11.623  17.870  0.00  0.00    +0.000 C 
BRANCH   6   7
ATOM      7  C   UNL     1       9.302  12.990  17.652  0.00  0.00    +0.000 C 
ATOM      8  O   UNL     1       8.745  14.060  17.880  0.00  0.00    +0.000 OA
BRANCH   7  10
ATOM      9  C   UNL     1      11.260  14.115  17.079  0.00  0.00    +0.000 C 
ATOM     10  O   UNL     1      10.573  12.870  17.168  0.00  0.00    +0.000 OA
ENDBRANCH   7  10
ENDBRANCH   6   7
ENDBRANCH   5   6
ENDBRANCH   4   5
ENDBRANCH   3   4
ENDBRANCH   2   3
ENDBRANCH   1   2
BRANCH   1  11
ATOM     11  C   UNL     1       5.570   6.705  17.195  0.00  0.00    +0.000 C 
BRANCH  11  12
ATOM     12  C   UNL     1       5.089   5.478  16.431  0.00  0.00    +0.000 C 
BRANCH  12  13
ATOM     13  C   UNL     1       5.037   4.291  17.390  0.00  0.00    +0.000 C 
BRANCH  13  14
ATOM     14  C   UNL     1       4.926   4.698  18.861  0.00  0.00    +0.000 C 
BRANCH  14  15
ATOM     15  N   UNL     1       3.752   4.132  19.546  0.00  0.00    +0.000 NA
ATOM     16  C   UNL     1       2.875   5.185  20.074  0.00  0.00    +0.000 C 
ATOM     17  C   UNL     1       1.685   4.594  20.827  0.00  0.00    +0.000 C 
ATOM     18  C   UNL     1       0.893   3.646  19.942  0.00  0.00    +0.000 C 
ATOM     19  C   UNL     1       1.815   2.586  19.351  0.00  0.00    +0.000 C 
ATOM     20  C   UNL     1       3.010   3.231  18.645  0.00  0.00    +0.000 C 
ENDBRANCH  14  15
ENDBRANCH  13  14
ENDBRANCH  12  13
ENDBRANCH  11  12
ENDBRANCH   1  11
TORSDOF 12
ENDMDL
