MODEL 1
REMARK VINA RESULT:      -9.3      0.000      0.000
REMARK  Name = 
REMARK  5 active torsions:
REMARK  status: ('A' for Active; 'I' for Inactive)
REMARK    1  A    between atoms: N_7  and  C_8
REMARK    2  A    between atoms: C_10  and  C_11
REMARK    3  A    between atoms: C_14  and  C_15
REMARK    4  A    between atoms: C_15  and  C_16
REMARK    5  A    between atoms: C_24  and  O_25
REMARK                            x       y       z     vdW  Elec       q    Type
REMARK                         _______ _______ _______ _____ _____    ______ ____
ROOT
ATOM      1  C   UNL     1       4.309   5.596  17.669  0.00  0.00    +0.000 A 
ATOM      2  N   UNL     1       3.638   6.771  17.526  0.00  0.00    +0.000 NA
ATOM      3  C   UNL     1       2.749   7.097  18.497  0.00  0.00    +0.000 A 
ATOM      4  C   UNL     1       2.417   6.230  19.544  0.00  0.00    +0.000 A 
ATOM      5  C   UNL     1       3.045   4.991  19.647  0.00  0.00    +0.000 A 
ATOM      6  N   UNL     1       2.701   4.148  20.651  0.00  0.00    +0.000 NA
ATOM      7  C   UNL     1       3.328   2.962  20.765  0.00  0.00    +0.000 A 
ATOM      8  C   UNL     1       4.297   2.534  19.892  0.00  0.00    +0.000 A 
ATOM      9  C   UNL     1       4.632   3.379  18.845  0.00  0.00    +0.000 A 
ATOM     10  C   UNL     1       4.029   4.659  18.703  0.00  0.00    +0.000 A 
ENDROOT
BRANCH   1  17
ATOM     11  O   UNL     1       6.882   6.742  17.627  0.00  0.00    +0.000 OA
ATOM     12  C   UNL     1       6.544   5.922  16.776  0.00  0.00    +0.000 C 
ATOM     13  N   UNL     1       7.472   5.542  15.848  0.00  0.00    +0.000 N 
ATOM     14  C   UNL     1       7.194   4.775  14.664  0.00  0.00    +0.000 C 
ATOM     15  C   UNL     1       6.043   3.821  14.894  0.00  0.00    +0.000 C 
ATOM     16  C   UNL     1       4.886   4.621  15.480  0.00  0.00    +0.000 C 
ATOM     17  N   UNL     1       5.307   5.301  16.696  0.00  0.00    +0.000 N 
ATOM     18  H   UNL     1       8.342   6.055  15.921  0.00  0.00    +0.000 HD
ENDBRANCH   1  17
BRANCH   3  19
ATOM     19  C   UNL     1       2.158   8.436  18.455  0.00  0.00    +0.000 A 
ATOM     20  N   UNL     1       2.566   9.478  17.752  0.00  0.00    +0.000 NA
ATOM     21  N   UNL     1       1.719  10.516  18.043  0.00  0.00    +0.000 NA
ATOM     22  C   UNL     1       0.839  10.046  18.903  0.00  0.00    +0.000 A 
ATOM     23  O   UNL     1       1.051   8.723  19.219  0.00  0.00    +0.000 OA
BRANCH  22  24
ATOM     24  C   UNL     1      -0.213  10.783  19.643  0.00  0.00    +0.000 C 
BRANCH  24  25
ATOM     25  C   UNL     1      -1.539  10.888  18.922  0.00  0.00    +0.000 A 
ATOM     26  C   UNL     1      -1.847  10.005  17.874  0.00  0.00    +0.000 A 
ATOM     27  C   UNL     1      -3.099  10.049  17.258  0.00  0.00    +0.000 A 
ATOM     28  C   UNL     1      -4.040  10.981  17.677  0.00  0.00    +0.000 A 
ATOM     29  F   UNL     1      -5.249  11.005  17.100  0.00  0.00    +0.000 F 
ATOM     30  C   UNL     1      -3.748  11.884  18.692  0.00  0.00    +0.000 A 
ATOM     31  C   UNL     1      -2.497  11.843  19.310  0.00  0.00    +0.000 A 
ENDBRANCH  24  25
ENDBRANCH  22  24
ENDBRANCH   3  19
BRANCH   4  32
ATOM     32  O   UNL     1       1.471   6.545  20.502  0.00  0.00    +0.000 OA
ATOM     33  H   UNL     1       0.581   6.245  20.234  0.00  0.00    +0.000 HD
ENDBRANCH   4  32
TORSDOF 5
ENDMDL
MODEL 2
REMARK VINA RESULT:      -9.0      1.434      1.474
REMARK  Name = 
REMARK  5 active torsions:
REMARK  status: ('A' for Active; 'I' for Inactive)
REMARK    1  A    between atoms: N_7  and  C_8
REMARK    2  A    between atoms: C_10  and  C_11
REMARK    3  A    between atoms: C_14  and  C_15
REMARK    4  A    between atoms: C_15  and  C_16
REMARK    5  A    between atoms: C_24  and  O_25
REMARK                            x       y       z     vdW  Elec       q    Type
REMARK                         _______ _______ _______ _____ _____    ______ ____
ROOT
ATOM      1  C   UNL     1       4.074   4.998  17.939  0.00  0.00    +0.000 A 
ATOM      2  N   UNL     1       3.516   6.209  18.210  0.00  0.00    +0.000 NA
ATOM      3  C   UNL     1       2.477   6.228  19.083  0.00  0.00    +0.000 A 
ATOM      4  C   UNL     1       1.899   5.063  19.601  0.00  0.00    +0.000 A 
ATOM      5  C   UNL     1       2.421   3.817  19.259  0.00  0.00    +0.000 A 
ATOM      6  N   UNL     1       1.841   2.693  19.746  0.00  0.00    +0.000 NA
ATOM      7  C   UNL     1       2.362   1.490  19.437  0.00  0.00    +0.000 A 
ATOM      8  C   UNL     1       3.453   1.328  18.620  0.00  0.00    +0.000 A 
ATOM      9  C   UNL     1       4.033   2.474  18.094  0.00  0.00    +0.000 A 
ATOM     10  C   UNL     1       3.546   3.768  18.421  0.00  0.00    +0.000 A 
ENDROOT
BRANCH   1  17
ATOM     11  O   UNL     1       6.729   4.777  18.854  0.00  0.00    +0.000 OA
ATOM     12  C   UNL     1       6.483   4.874  17.654  0.00  0.00    +0.000 C 
ATOM     13  N   UNL     1       7.531   4.811  16.779  0.00  0.00    +0.000 N 
ATOM     14  C   UNL     1       7.458   5.125  15.376  0.00  0.00    +0.000 C 
ATOM     15  C   UNL     1       6.093   4.794  14.817  0.00  0.00    +0.000 C 
ATOM     16  C   UNL     1       5.051   5.443  15.719  0.00  0.00    +0.000 C 
ATOM     17  N   UNL     1       5.221   4.994  17.093  0.00  0.00    +0.000 N 
ATOM     18  H   UNL     1       8.432   4.770  17.237  0.00  0.00    +0.000 HD
ENDBRANCH   1  17
BRANCH   3  19
ATOM     19  C   UNL     1       1.987   7.534  19.527  0.00  0.00    +0.000 A 
ATOM     20  N   UNL     1       1.667   7.903  20.755  0.00  0.00    +0.000 NA
ATOM     21  N   UNL     1       1.244   9.205  20.687  0.00  0.00    +0.000 NA
ATOM     22  C   UNL     1       1.333   9.557  19.421  0.00  0.00    +0.000 A 
ATOM     23  O   UNL     1       1.800   8.544  18.613  0.00  0.00    +0.000 OA
BRANCH  22  24
ATOM     24  C   UNL     1       0.874  10.812  18.777  0.00  0.00    +0.000 C 
BRANCH  24  25
ATOM     25  C   UNL     1      -0.605  10.855  18.458  0.00  0.00    +0.000 A 
ATOM     26  C   UNL     1      -1.164   9.929  17.563  0.00  0.00    +0.000 A 
ATOM     27  C   UNL     1      -2.539   9.918  17.325  0.00  0.00    +0.000 A 
ATOM     28  C   UNL     1      -3.357  10.836  17.971  0.00  0.00    +0.000 A 
ATOM     29  F   UNL     1      -4.680  10.807  17.760  0.00  0.00    +0.000 F 
ATOM     30  C   UNL     1      -2.822  11.780  18.840  0.00  0.00    +0.000 A 
ATOM     31  C   UNL     1      -1.448  11.796  19.079  0.00  0.00    +0.000 A 
ENDBRANCH  24  25
ENDBRANCH  22  24
ENDBRANCH   3  19
BRANCH   4  32
ATOM     32  O   UNL     1       0.808   5.084  20.449  0.00  0.00    +0.000 OA
ATOM     33  H   UNL     1       0.252   4.289  20.331  0.00  0.00    +0.000 HD
ENDBRANCH   4  32
TORSDOF 5
ENDMDL
MODEL 3
REMARK VINA RESULT:      -9.0      0.623      1.132
REMARK  Name = 
REMARK  5 active torsions:
REMARK  status: ('A' for Active; 'I' for Inactive)
REMARK    1  A    between atoms: N_7  and  C_8
REMARK    2  A    between atoms: C_10  and  C_11
REMARK    3  A    between atoms: C_14  and  C_15
REMARK    4  A    between atoms: C_15  and  C_16
REMARK    5  A    between atoms: C_24  and  O_25
REMARK                            x       y       z     vdW  Elec       q    Type
REMARK                         _______ _______ _______ _____ _____    ______ ____
ROOT
ATOM      1  C   UNL     1       4.303   5.559  17.747  0.00  0.00    +0.000 A 
ATOM      2  N   UNL     1       3.621   6.728  17.617  0.00  0.00    +0.000 NA
ATOM      3  C   UNL     1       2.715   7.025  18.582  0.00  0.00    +0.000 A 
ATOM      4  C   UNL     1       2.379   6.135  19.608  0.00  0.00    +0.000 A 
ATOM      5  C   UNL     1       3.021   4.902  19.696  0.00  0.00    +0.000 A 
ATOM      6  N   UNL     1       2.674   4.035  20.679  0.00  0.00    +0.000 NA
ATOM      7  C   UNL     1       3.314   2.854  20.779  0.00  0.00    +0.000 A 
ATOM      8  C   UNL     1       4.300   2.455  19.911  0.00  0.00    +0.000 A 
ATOM      9  C   UNL     1       4.638   3.324  18.884  0.00  0.00    +0.000 A 
ATOM     10  C   UNL     1       4.021   4.598  18.759  0.00  0.00    +0.000 A 
ENDROOT
BRANCH   1  17
ATOM     11  O   UNL     1       6.834   6.796  17.713  0.00  0.00    +0.000 OA
ATOM     12  C   UNL     1       6.531   5.960  16.865  0.00  0.00    +0.000 C 
ATOM     13  N   UNL     1       7.478   5.608  15.946  0.00  0.00    +0.000 N 
ATOM     14  C   UNL     1       7.234   4.824  14.764  0.00  0.00    +0.000 C 
ATOM     15  C   UNL     1       6.117   3.832  14.992  0.00  0.00    +0.000 C 
ATOM     16  C   UNL     1       4.928   4.593  15.566  0.00  0.00    +0.000 C 
ATOM     17  N   UNL     1       5.317   5.294  16.782  0.00  0.00    +0.000 N 
ATOM     18  H   UNL     1       8.328   6.152  16.020  0.00  0.00    +0.000 HD
ENDBRANCH   1  17
BRANCH   3  19
ATOM     19  C   UNL     1       2.108   8.358  18.558  0.00  0.00    +0.000 A 
ATOM     20  N   UNL     1       2.188   9.265  17.600  0.00  0.00    +0.000 NA
ATOM     21  N   UNL     1       1.479  10.360  18.023  0.00  0.00    +0.000 NA
ATOM     22  C   UNL     1       1.004  10.055  19.213  0.00  0.00    +0.000 A 
ATOM     23  O   UNL     1       1.362   8.792  19.627  0.00  0.00    +0.000 OA
BRANCH  22  24
ATOM     24  C   UNL     1       0.284  10.930  20.171  0.00  0.00    +0.000 C 
BRANCH  24  25
ATOM     25  C   UNL     1      -1.134  11.274  19.771  0.00  0.00    +0.000 A 
ATOM     26  C   UNL     1      -1.885  12.182  20.535  0.00  0.00    +0.000 A 
ATOM     27  C   UNL     1      -3.166  12.560  20.127  0.00  0.00    +0.000 A 
ATOM     28  C   UNL     1      -3.703  12.025  18.963  0.00  0.00    +0.000 A 
ATOM     29  F   UNL     1      -4.922  12.408  18.561  0.00  0.00    +0.000 F 
ATOM     30  C   UNL     1      -2.990  11.103  18.206  0.00  0.00    +0.000 A 
ATOM     31  C   UNL     1      -1.710  10.722  18.611  0.00  0.00    +0.000 A 
ENDBRANCH  24  25
ENDBRANCH  22  24
ENDBRANCH   3  19
BRANCH   4  32
ATOM     32  O   UNL     1       1.418   6.419  20.560  0.00  0.00    +0.000 OA
ATOM     33  H   UNL     1       1.737   6.212  21.459  0.00  0.00    +0.000 HD
ENDBRANCH   4  32
TORSDOF 5
ENDMDL
MODEL 4
REMARK VINA RESULT:      -8.9      1.243      1.545
REMARK  Name = 
REMARK  5 active torsions:
REMARK  status: ('A' for Active; 'I' for Inactive)
REMARK    1  A    between atoms: N_7  and  C_8
REMARK    2  A    between atoms: C_10  and  C_11
REMARK    3  A    between atoms: C_14  and  C_15
REMARK    4  A    between atoms: C_15  and  C_16
REMARK    5  A    between atoms: C_24  and  O_25
REMARK                            x       y       z     vdW  Elec       q    Type
REMARK                         _______ _______ _______ _____ _____    ______ ____
ROOT
ATOM      1  C   UNL     1       4.062   5.082  17.572  0.00  0.00    +0.000 A 
ATOM      2  N   UNL     1       3.469   6.273  17.858  0.00  0.00    +0.000 NA
ATOM      3  C   UNL     1       2.506   6.269  18.814  0.00  0.00    +0.000 A 
ATOM      4  C   UNL     1       2.029   5.094  19.408  0.00  0.00    +0.000 A 
ATOM      5  C   UNL     1       2.581   3.865  19.056  0.00  0.00    +0.000 A 
ATOM      6  N   UNL     1       2.099   2.730  19.618  0.00  0.00    +0.000 NA
ATOM      7  C   UNL     1       2.652   1.544  19.299  0.00  0.00    +0.000 A 
ATOM      8  C   UNL     1       3.679   1.409  18.398  0.00  0.00    +0.000 A 
ATOM      9  C   UNL     1       4.157   2.564  17.796  0.00  0.00    +0.000 A 
ATOM     10  C   UNL     1       3.636   3.844  18.129  0.00  0.00    +0.000 A 
ENDROOT
BRANCH   1  17
ATOM     11  O   UNL     1       6.596   6.205  18.077  0.00  0.00    +0.000 OA
ATOM     12  C   UNL     1       6.343   5.682  16.994  0.00  0.00    +0.000 C 
ATOM     13  N   UNL     1       7.346   5.610  16.068  0.00  0.00    +0.000 N 
ATOM     14  C   UNL     1       7.174   5.239  14.688  0.00  0.00    +0.000 C 
ATOM     15  C   UNL     1       6.039   4.253  14.530  0.00  0.00    +0.000 C 
ATOM     16  C   UNL     1       4.820   4.827  15.241  0.00  0.00    +0.000 C 
ATOM     17  N   UNL     1       5.134   5.106  16.635  0.00  0.00    +0.000 N 
ATOM     18  H   UNL     1       8.192   6.083  16.359  0.00  0.00    +0.000 HD
ENDBRANCH   1  17
BRANCH   3  19
ATOM     19  C   UNL     1       1.990   7.564  19.263  0.00  0.00    +0.000 A 
ATOM     20  N   UNL     1       1.722   7.942  20.501  0.00  0.00    +0.000 NA
ATOM     21  N   UNL     1       1.246   9.226  20.435  0.00  0.00    +0.000 NA
ATOM     22  C   UNL     1       1.255   9.559  19.161  0.00  0.00    +0.000 A 
ATOM     23  O   UNL     1       1.716   8.550  18.346  0.00  0.00    +0.000 OA
BRANCH  22  24
ATOM     24  C   UNL     1       0.715  10.784  18.523  0.00  0.00    +0.000 C 
BRANCH  24  25
ATOM     25  C   UNL     1      -0.788  10.796  18.348  0.00  0.00    +0.000 A 
ATOM     26  C   UNL     1      -1.575  11.727  19.046  0.00  0.00    +0.000 A 
ATOM     27  C   UNL     1      -2.952  11.792  18.828  0.00  0.00    +0.000 A 
ATOM     28  C   UNL     1      -3.548  10.922  17.925  0.00  0.00    +0.000 A 
ATOM     29  F   UNL     1      -4.867  11.002  17.700  0.00  0.00    +0.000 F 
ATOM     30  C   UNL     1      -2.794   9.973  17.244  0.00  0.00    +0.000 A 
ATOM     31  C   UNL     1      -1.417   9.905  17.459  0.00  0.00    +0.000 A 
ENDBRANCH  24  25
ENDBRANCH  22  24
ENDBRANCH   3  19
BRANCH   4  32
ATOM     32  O   UNL     1       1.012   5.090  20.343  0.00  0.00    +0.000 OA
ATOM     33  H   UNL     1       0.240   4.582  20.026  0.00  0.00    +0.000 HD
ENDBRANCH   4  32
TORSDOF 5
ENDMDL
MODEL 5
REMARK VINA RESULT:      -8.7      2.233      2.740
REMARK  Name = 
REMARK  5 active torsions:
REMARK  status: ('A' for Active; 'I' for Inactive)
REMARK    1  A    between atoms: N_7  and  C_8
REMARK    2  A    between atoms: C_10  and  C_11
REMARK    3  A    between atoms: C_14  and  C_15
REMARK    4  A    between atoms: C_15  and  C_16
REMARK    5  A    between atoms: C_24  and  O_25
REMARK                            x       y       z     vdW  Elec       q    Type
REMARK                         _______ _______ _______ _____ _____    ______ ____
ROOT
ATOM      1  C   UNL     1       4.276   5.453  17.755  0.00  0.00    +0.000 A 
ATOM      2  N   UNL     1       3.572   6.611  17.642  0.00  0.00    +0.000 NA
ATOM      3  C   UNL     1       2.670   6.884  18.618  0.00  0.00    +0.000 A 
ATOM      4  C   UNL     1       2.361   5.979  19.641  0.00  0.00    +0.000 A 
ATOM      5  C   UNL     1       3.026   4.757  19.712  0.00  0.00    +0.000 A 
ATOM      6  N   UNL     1       2.705   3.877  20.691  0.00  0.00    +0.000 NA
ATOM      7  C   UNL     1       3.368   2.707  20.776  0.00  0.00    +0.000 A 
ATOM      8  C   UNL     1       4.352   2.333  19.895  0.00  0.00    +0.000 A 
ATOM      9  C   UNL     1       4.664   3.216  18.871  0.00  0.00    +0.000 A 
ATOM     10  C   UNL     1       4.023   4.480  18.762  0.00  0.00    +0.000 A 
ENDROOT
BRANCH   1  17
ATOM     11  O   UNL     1       6.849   6.600  17.808  0.00  0.00    +0.000 OA
ATOM     12  C   UNL     1       6.521   5.831  16.908  0.00  0.00    +0.000 C 
ATOM     13  N   UNL     1       7.460   5.505  15.970  0.00  0.00    +0.000 N 
ATOM     14  C   UNL     1       7.195   4.808  14.740  0.00  0.00    +0.000 C 
ATOM     15  C   UNL     1       6.043   3.843  14.901  0.00  0.00    +0.000 C 
ATOM     16  C   UNL     1       4.879   4.607  15.520  0.00  0.00    +0.000 C 
ATOM     17  N   UNL     1       5.285   5.216  16.778  0.00  0.00    +0.000 N 
ATOM     18  H   UNL     1       8.329   6.013  16.082  0.00  0.00    +0.000 HD
ENDBRANCH   1  17
BRANCH   3  19
ATOM     19  C   UNL     1       2.039   8.205  18.611  0.00  0.00    +0.000 A 
ATOM     20  N   UNL     1       1.847   9.003  17.575  0.00  0.00    +0.000 NA
ATOM     21  N   UNL     1       1.237  10.137  18.048  0.00  0.00    +0.000 NA
ATOM     22  C   UNL     1       1.088   9.962  19.345  0.00  0.00    +0.000 A 
ATOM     23  O   UNL     1       1.576   8.752  19.784  0.00  0.00    +0.000 OA
BRANCH  22  24
ATOM     24  C   UNL     1       0.610  10.934  20.358  0.00  0.00    +0.000 C 
BRANCH  24  25
ATOM     25  C   UNL     1       0.738  12.386  19.953  0.00  0.00    +0.000 A 
ATOM     26  C   UNL     1       1.972  13.047  20.067  0.00  0.00    +0.000 A 
ATOM     27  C   UNL     1       2.113  14.363  19.623  0.00  0.00    +0.000 A 
ATOM     28  C   UNL     1       1.022  15.025  19.075  0.00  0.00    +0.000 A 
ATOM     29  F   UNL     1       1.166  16.279  18.628  0.00  0.00    +0.000 F 
ATOM     30  C   UNL     1      -0.217  14.401  18.979  0.00  0.00    +0.000 A 
ATOM     31  C   UNL     1      -0.362  13.086  19.423  0.00  0.00    +0.000 A 
ENDBRANCH  24  25
ENDBRANCH  22  24
ENDBRANCH   3  19
BRANCH   4  32
ATOM     32  O   UNL     1       1.404   6.239  20.604  0.00  0.00    +0.000 OA
ATOM     33  H   UNL     1       0.567   6.538  20.200  0.00  0.00    +0.000 HD
ENDBRANCH   4  32
TORSDOF 5
ENDMDL
MODEL 6
REMARK VINA RESULT:      -8.6      4.093      8.658
REMARK  Name = 
REMARK  5 active torsions:
REMARK  status: ('A' for Active; 'I' for Inactive)
REMARK    1  A    between atoms: N_7  and  C_8
REMARK    2  A    between atoms: C_10  and  C_11
REMARK    3  A    between atoms: C_14  and  C_15
REMARK    4  A    between atoms: C_15  and  C_16
REMARK    5  A    between atoms: C_24  and  O_25
REMARK                            x       y       z     vdW  Elec       q    Type
REMARK                         _______ _______ _______ _____ _____    ______ ____
ROOT
ATOM      1  C   UNL     1       2.984   5.809  18.488  0.00  0.00    +0.000 A 
ATOM      2  N   UNL     1       4.112   5.985  17.749  0.00  0.00    +0.000 NA
ATOM      3  C   UNL     1       4.653   4.881  17.176  0.00  0.00    +0.000 A 
ATOM      4  C   UNL     1       4.174   3.588  17.417  0.00  0.00    +0.000 A 
ATOM      5  C   UNL     1       3.065   3.400  18.239  0.00  0.00    +0.000 A 
ATOM      6  N   UNL     1       2.621   2.144  18.487  0.00  0.00    +0.000 NA
ATOM      7  C   UNL     1       1.533   1.964  19.260  0.00  0.00    +0.000 A 
ATOM      8  C   UNL     1       0.847   2.998  19.847  0.00  0.00    +0.000 A 
ATOM      9  C   UNL     1       1.315   4.285  19.623  0.00  0.00    +0.000 A 
ATOM     10  C   UNL     1       2.434   4.530  18.782  0.00  0.00    +0.000 A 
ENDROOT
BRANCH   1  17
ATOM     11  O   UNL     1       2.563   8.179  17.023  0.00  0.00    +0.000 OA
ATOM     12  C   UNL     1       2.207   8.092  18.196  0.00  0.00    +0.000 C 
ATOM     13  N   UNL     1       1.551   9.157  18.746  0.00  0.00    +0.000 N 
ATOM     14  C   UNL     1       1.263   9.319  20.147  0.00  0.00    +0.000 C 
ATOM     15  C   UNL     1       1.051   7.979  20.815  0.00  0.00    +0.000 C 
ATOM     16  C   UNL     1       2.234   7.089  20.457  0.00  0.00    +0.000 C 
ATOM     17  N   UNL     1       2.369   6.983  19.012  0.00  0.00    +0.000 N 
ATOM     18  H   UNL     1       1.498   9.957  18.128  0.00  0.00    +0.000 HD
ENDBRANCH   1  17
BRANCH   3  19
ATOM     19  C   UNL     1       5.755   5.076  16.230  0.00  0.00    +0.000 A 
ATOM     20  N   UNL     1       6.978   5.499  16.492  0.00  0.00    +0.000 NA
ATOM     21  N   UNL     1       7.653   5.540  15.299  0.00  0.00    +0.000 NA
ATOM     22  C   UNL     1       6.803   5.135  14.379  0.00  0.00    +0.000 A 
ATOM     23  O   UNL     1       5.565   4.820  14.893  0.00  0.00    +0.000 OA
BRANCH  22  24
ATOM     24  C   UNL     1       6.975   5.120  12.906  0.00  0.00    +0.000 C 
BRANCH  24  25
ATOM     25  C   UNL     1       6.664   3.794  12.246  0.00  0.00    +0.000 A 
ATOM     26  C   UNL     1       7.705   2.973  11.781  0.00  0.00    +0.000 A 
ATOM     27  C   UNL     1       7.426   1.717  11.242  0.00  0.00    +0.000 A 
ATOM     28  C   UNL     1       6.110   1.281  11.154  0.00  0.00    +0.000 A 
ATOM     29  F   UNL     1       5.848   0.065  10.658  0.00  0.00    +0.000 F 
ATOM     30  C   UNL     1       5.062   2.088  11.581  0.00  0.00    +0.000 A 
ATOM     31  C   UNL     1       5.337   3.346  12.120  0.00  0.00    +0.000 A 
ENDBRANCH  24  25
ENDBRANCH  22  24
ENDBRANCH   3  19
BRANCH   4  32
ATOM     32  O   UNL     1       4.759   2.460  16.873  0.00  0.00    +0.000 OA
ATOM     33  H   UNL     1       5.479   2.697  16.256  0.00  0.00    +0.000 HD
ENDBRANCH   4  32
TORSDOF 5
ENDMDL
MODEL 7
REMARK VINA RESULT:      -8.6      2.261      2.487
REMARK  Name = 
REMARK  5 active torsions:
REMARK  status: ('A' for Active; 'I' for Inactive)
REMARK    1  A    between atoms: N_7  and  C_8
REMARK    2  A    between atoms: C_10  and  C_11
REMARK    3  A    between atoms: C_14  and  C_15
REMARK    4  A    between atoms: C_15  and  C_16
REMARK    5  A    between atoms: C_24  and  O_25
REMARK                            x       y       z     vdW  Elec       q    Type
REMARK                         _______ _______ _______ _____ _____    ______ ____
ROOT
ATOM      1  C   UNL     1       4.100   5.461  18.263  0.00  0.00    +0.000 A 
ATOM      2  N   UNL     1       3.456   6.638  18.039  0.00  0.00    +0.000 NA
ATOM      3  C   UNL     1       2.504   7.001  18.936  0.00  0.00    +0.000 A 
ATOM      4  C   UNL     1       2.089   6.169  19.982  0.00  0.00    +0.000 A 
ATOM      5  C   UNL     1       2.694   4.927  20.163  0.00  0.00    +0.000 A 
ATOM      6  N   UNL     1       2.270   4.117  21.164  0.00  0.00    +0.000 NA
ATOM      7  C   UNL     1       2.874   2.928  21.356  0.00  0.00    +0.000 A 
ATOM      8  C   UNL     1       3.896   2.465  20.566  0.00  0.00    +0.000 A 
ATOM      9  C   UNL     1       4.314   3.277  19.520  0.00  0.00    +0.000 A 
ATOM     10  C   UNL     1       3.738   4.557  19.301  0.00  0.00    +0.000 A 
ENDROOT
BRANCH   1  17
ATOM     11  O   UNL     1       6.830   5.917  18.790  0.00  0.00    +0.000 OA
ATOM     12  C   UNL     1       6.471   5.394  17.738  0.00  0.00    +0.000 C 
ATOM     13  N   UNL     1       7.438   4.988  16.862  0.00  0.00    +0.000 N 
ATOM     14  C   UNL     1       7.204   4.566  15.506  0.00  0.00    +0.000 C 
ATOM     15  C   UNL     1       5.852   3.903  15.371  0.00  0.00    +0.000 C 
ATOM     16  C   UNL     1       4.814   4.831  15.989  0.00  0.00    +0.000 C 
ATOM     17  N   UNL     1       5.160   5.128  17.371  0.00  0.00    +0.000 N 
ATOM     18  H   UNL     1       8.373   5.244  17.153  0.00  0.00    +0.000 HD
ENDBRANCH   1  17
BRANCH   3  19
ATOM     19  C   UNL     1       1.934   8.345  18.814  0.00  0.00    +0.000 A 
ATOM     20  N   UNL     1       1.426   8.912  17.735  0.00  0.00    +0.000 NA
ATOM     21  N   UNL     1       1.031  10.176  18.093  0.00  0.00    +0.000 NA
ATOM     22  C   UNL     1       1.317  10.304  19.372  0.00  0.00    +0.000 A 
ATOM     23  O   UNL     1       1.898   9.177  19.908  0.00  0.00    +0.000 OA
BRANCH  22  24
ATOM     24  C   UNL     1       1.222  11.515  20.222  0.00  0.00    +0.000 C 
BRANCH  24  25
ATOM     25  C   UNL     1       0.042  11.533  21.169  0.00  0.00    +0.000 A 
ATOM     26  C   UNL     1      -0.088  10.544  22.158  0.00  0.00    +0.000 A 
ATOM     27  C   UNL     1      -1.133  10.601  23.081  0.00  0.00    +0.000 A 
ATOM     28  C   UNL     1      -2.056  11.636  23.013  0.00  0.00    +0.000 A 
ATOM     29  F   UNL     1      -3.045  11.701  23.916  0.00  0.00    +0.000 F 
ATOM     30  C   UNL     1      -1.965  12.610  22.026  0.00  0.00    +0.000 A 
ATOM     31  C   UNL     1      -0.921  12.556  21.101  0.00  0.00    +0.000 A 
ENDBRANCH  24  25
ENDBRANCH  22  24
ENDBRANCH   3  19
BRANCH   4  32
ATOM     32  O   UNL     1       1.083   6.520  20.862  0.00  0.00    +0.000 OA
ATOM     33  H   UNL     1       1.448   6.826  21.714  0.00  0.00    +0.000 HD
ENDBRANCH   4  32
TORSDOF 5
ENDMDL
MODEL 8
REMARK VINA RESULT:      -8.4      3.632      9.455
REMARK  Name = 
REMARK  5 active torsions:
REMARK  status: ('A' for Active; 'I' for Inactive)
REMARK    1  A    between atoms: N_7  and  C_8
REMARK    2  A    between atoms: C_10  and  C_11
REMARK    3  A    between atoms: C_14  and  C_15
REMARK    4  A    between atoms: C_15  and  C_16
REMARK    5  A    between atoms: C_24  and  O_25
REMARK                            x       y       z     vdW  Elec       q    Type
REMARK                         _______ _______ _______ _____ _____    ______ ____
ROOT
ATOM      1  C   UNL     1      -1.724  11.855  20.261  0.00  0.00    +0.000 A 
ATOM      2  N   UNL     1      -0.646  11.052  20.055  0.00  0.00    +0.000 NA
ATOM      3  C   UNL     1      -0.622  10.334  18.903  0.00  0.00    +0.000 A 
ATOM      4  C   UNL     1      -1.697  10.299  18.008  0.00  0.00    +0.000 A 
ATOM      5  C   UNL     1      -2.836  11.059  18.259  0.00  0.00    +0.000 A 
ATOM      6  N   UNL     1      -3.883  11.002  17.400  0.00  0.00    +0.000 NA
ATOM      7  C   UNL     1      -4.973  11.759  17.629  0.00  0.00    +0.000 A 
ATOM      8  C   UNL     1      -5.103  12.583  18.719  0.00  0.00    +0.000 A 
ATOM      9  C   UNL     1      -4.048  12.624  19.619  0.00  0.00    +0.000 A 
ATOM     10  C   UNL     1      -2.859  11.876  19.402  0.00  0.00    +0.000 A 
ENDROOT
BRANCH   1  17
ATOM     11  O   UNL     1      -0.526  14.401  20.396  0.00  0.00    +0.000 OA
ATOM     12  C   UNL     1      -1.087  13.916  21.376  0.00  0.00    +0.000 C 
ATOM     13  N   UNL     1      -1.163  14.674  22.511  0.00  0.00    +0.000 N 
ATOM     14  C   UNL     1      -1.579  14.194  23.802  0.00  0.00    +0.000 C 
ATOM     15  C   UNL     1      -2.596  13.084  23.665  0.00  0.00    +0.000 C 
ATOM     16  C   UNL     1      -2.031  12.050  22.699  0.00  0.00    +0.000 C 
ATOM     17  N   UNL     1      -1.703  12.675  21.426  0.00  0.00    +0.000 N 
ATOM     18  H   UNL     1      -0.661  15.550  22.440  0.00  0.00    +0.000 HD
ENDBRANCH   1  17
BRANCH   3  19
ATOM     19  C   UNL     1       0.609   9.611  18.580  0.00  0.00    +0.000 A 
ATOM     20  N   UNL     1       1.373   9.753  17.511  0.00  0.00    +0.000 NA
ATOM     21  N   UNL     1       2.404   8.856  17.630  0.00  0.00    +0.000 NA
ATOM     22  C   UNL     1       2.211   8.222  18.768  0.00  0.00    +0.000 A 
ATOM     23  O   UNL     1       1.084   8.645  19.435  0.00  0.00    +0.000 OA
BRANCH  22  24
ATOM     24  C   UNL     1       2.954   7.060  19.314  0.00  0.00    +0.000 C 
BRANCH  24  25
ATOM     25  C   UNL     1       2.239   5.733  19.184  0.00  0.00    +0.000 A 
ATOM     26  C   UNL     1       2.124   5.111  17.930  0.00  0.00    +0.000 A 
ATOM     27  C   UNL     1       1.532   3.851  17.818  0.00  0.00    +0.000 A 
ATOM     28  C   UNL     1       1.044   3.217  18.953  0.00  0.00    +0.000 A 
ATOM     29  F   UNL     1       0.498   1.998  18.846  0.00  0.00    +0.000 F 
ATOM     30  C   UNL     1       1.120   3.826  20.200  0.00  0.00    +0.000 A 
ATOM     31  C   UNL     1       1.710   5.085  20.316  0.00  0.00    +0.000 A 
ENDBRANCH  24  25
ENDBRANCH  22  24
ENDBRANCH   3  19
BRANCH   4  32
ATOM     32  O   UNL     1      -1.690   9.525  16.862  0.00  0.00    +0.000 OA
ATOM     33  H   UNL     1      -2.509   9.649  16.345  0.00  0.00    +0.000 HD
ENDBRANCH   4  32
TORSDOF 5
ENDMDL
MODEL 9
REMARK VINA RESULT:      -8.4      1.697      2.268
REMARK  Name = 
REMARK  5 active torsions:
REMARK  status: ('A' for Active; 'I' for Inactive)
REMARK    1  A    between atoms: N_7  and  C_8
REMARK    2  A    between atoms: C_10  and  C_11
REMARK    3  A    between atoms: C_14  and  C_15
REMARK    4  A    between atoms: C_15  and  C_16
REMARK    5  A    between atoms: C_24  and  O_25
REMARK                            x       y       z     vdW  Elec       q    Type
REMARK                         _______ _______ _______ _____ _____    ______ ____
ROOT
ATOM      1  C   UNL     1       4.325   5.666  17.557  0.00  0.00    +0.000 A 
ATOM      2  N   UNL     1       3.642   6.831  17.396  0.00  0.00    +0.000 NA
ATOM      3  C   UNL     1       2.745   7.159  18.359  0.00  0.00    +0.000 A 
ATOM      4  C   UNL     1       2.419   6.302  19.417  0.00  0.00    +0.000 A 
ATOM      5  C   UNL     1       3.061   5.072  19.537  0.00  0.00    +0.000 A 
ATOM      6  N   UNL     1       2.723   4.237  20.550  0.00  0.00    +0.000 NA
ATOM      7  C   UNL     1       3.364   3.059  20.682  0.00  0.00    +0.000 A 
ATOM      8  C   UNL     1       4.341   2.632  19.818  0.00  0.00    +0.000 A 
ATOM      9  C   UNL     1       4.670   3.468  18.761  0.00  0.00    +0.000 A 
ATOM     10  C   UNL     1       4.053   4.739  18.601  0.00  0.00    +0.000 A 
ENDROOT
BRANCH   1  17
ATOM     11  O   UNL     1       6.894   6.822  17.525  0.00  0.00    +0.000 OA
ATOM     12  C   UNL     1       6.564   5.997  16.676  0.00  0.00    +0.000 C 
ATOM     13  N   UNL     1       7.500   5.616  15.756  0.00  0.00    +0.000 N 
ATOM     14  C   UNL     1       7.232   4.843  14.573  0.00  0.00    +0.000 C 
ATOM     15  C   UNL     1       6.083   3.886  14.800  0.00  0.00    +0.000 C 
ATOM     16  C   UNL     1       4.919   4.684  15.375  0.00  0.00    +0.000 C 
ATOM     17  N   UNL     1       5.330   5.371  16.591  0.00  0.00    +0.000 N 
ATOM     18  H   UNL     1       8.367   6.134  15.831  0.00  0.00    +0.000 HD
ENDBRANCH   1  17
BRANCH   3  19
ATOM     19  C   UNL     1       2.138   8.491  18.299  0.00  0.00    +0.000 A 
ATOM     20  N   UNL     1       2.752   9.653  18.166  0.00  0.00    +0.000 NA
ATOM     21  N   UNL     1       1.783  10.623  18.176  0.00  0.00    +0.000 NA
ATOM     22  C   UNL     1       0.633   9.996  18.309  0.00  0.00    +0.000 A 
ATOM     23  O   UNL     1       0.774   8.629  18.395  0.00  0.00    +0.000 OA
BRANCH  22  24
ATOM     24  C   UNL     1      -0.717  10.576  18.512  0.00  0.00    +0.000 C 
BRANCH  24  25
ATOM     25  C   UNL     1      -0.966  11.128  19.898  0.00  0.00    +0.000 A 
ATOM     26  C   UNL     1      -1.815  12.233  20.079  0.00  0.00    +0.000 A 
ATOM     27  C   UNL     1      -2.107  12.697  21.362  0.00  0.00    +0.000 A 
ATOM     28  C   UNL     1      -1.546  12.069  22.466  0.00  0.00    +0.000 A 
ATOM     29  F   UNL     1      -1.847  12.502  23.698  0.00  0.00    +0.000 F 
ATOM     30  C   UNL     1      -0.680  10.993  22.311  0.00  0.00    +0.000 A 
ATOM     31  C   UNL     1      -0.384  10.526  21.029  0.00  0.00    +0.000 A 
ENDBRANCH  24  25
ENDBRANCH  22  24
ENDBRANCH   3  19
BRANCH   4  32
ATOM     32  O   UNL     1       1.466   6.617  20.367  0.00  0.00    +0.000 OA
ATOM     33  H   UNL     1       0.787   5.918  20.434  0.00  0.00    +0.000 HD
ENDBRANCH   4  32
TORSDOF 5
ENDMDL
