MODEL 1
REMARK VINA RESULT:      -7.3      0.000      0.000
REMARK  Name = 
REMARK  11 active torsions:
REMARK  status: ('A' for Active; 'I' for Inactive)
REMARK    1  A    between atoms: C_1  and  C_2
REMARK    2  A    between atoms: C_2  and  C_3
REMARK    3  A    between atoms: C_2  and  C_4
REMARK    4  A    between atoms: C_4  and  C_5
REMARK    5  A    between atoms: C_5  and  N_6
REMARK    6  A    between atoms: C_5  and  P_7
REMARK    7  A    between atoms: P_7  and  O_9
REMARK    8  A    between atoms: P_7  and  C_10
REMARK    9  A    between atoms: C_10  and  N_11
REMARK   10  A    between atoms: C_10  and  C_12
REMARK   11  A    between atoms: C_12  and  C_13
REMARK                            x       y       z     vdW  Elec       q    Type
REMARK                         _______ _______ _______ _____ _____    ______ ____
ROOT
ATOM      1  P   UNL     1       6.188   4.428  16.580  0.00  0.00    +0.000 P 
ATOM      2  O   UNL     1       7.658   4.633  17.007  0.00  0.00    +0.000 OA
ENDROOT
BRANCH   1   3
ATOM      3  O   UNL     1       5.540   5.942  16.279  0.00  0.00    +0.000 OA
ATOM      4  H   UNL     1       4.588   5.941  16.554  0.00  0.00    +0.000 HD
ENDBRANCH   1   3
BRANCH   1   5
ATOM      5  C   UNL     1       6.752   4.329  14.842  0.00  0.00    +0.000 C 
BRANCH   5   6
ATOM      6  N   UNL     1       7.627   5.524  14.637  0.00  0.00    +0.000 NA
ATOM      7  H   UNL     1       8.490   5.219  14.181  0.00  0.00    +0.000 HD
ATOM      8  H   UNL     1       7.930   5.854  15.560  0.00  0.00    +0.000 HD
ENDBRANCH   5   6
BRANCH   5   9
ATOM      9  C   UNL     1       5.594   4.277  13.830  0.00  0.00    +0.000 C 
BRANCH   9  11
ATOM     10  C   UNL     1       4.588   3.264  11.717  0.00  0.00    +0.000 C 
ATOM     11  C   UNL     1       5.816   3.334  12.627  0.00  0.00    +0.000 C 
ATOM     12  C   UNL     1       7.031   3.777  11.805  0.00  0.00    +0.000 C 
ENDBRANCH   9  11
ENDBRANCH   5   9
ENDBRANCH   1   5
BRANCH   1  13
ATOM     13  C   UNL     1       5.625   4.528  18.319  0.00  0.00    +0.000 C 
BRANCH  13  14
ATOM     14  N   UNL     1       6.798   4.956  19.140  0.00  0.00    +0.000 NA
ATOM     15  H   UNL     1       6.895   5.962  18.958  0.00  0.00    +0.000 HD
ATOM     16  H   UNL     1       7.609   4.580  18.626  0.00  0.00    +0.000 HD
ENDBRANCH  13  14
BRANCH  13  17
ATOM     17  C   UNL     1       4.457   5.491  18.567  0.00  0.00    +0.000 C 
BRANCH  17  18
ATOM     18  C   UNL     1       3.160   4.820  18.952  0.00  0.00    +0.000 A 
ATOM     19  C   UNL     1       2.447   4.036  18.037  0.00  0.00    +0.000 A 
ATOM     20  C   UNL     1       1.286   3.364  18.436  0.00  0.00    +0.000 A 
ATOM     21  C   UNL     1       0.833   3.466  19.749  0.00  0.00    +0.000 A 
ATOM     22  C   UNL     1       1.541   4.234  20.671  0.00  0.00    +0.000 A 
ATOM     23  C   UNL     1       2.697   4.907  20.275  0.00  0.00    +0.000 A 
ENDBRANCH  17  18
ENDBRANCH  13  17
ENDBRANCH   1  13
TORSDOF 9
ENDMDL
MODEL 2
REMARK VINA RESULT:      -7.2      0.123      1.139
REMARK  Name = 
REMARK  11 active torsions:
REMARK  status: ('A' for Active; 'I' for Inactive)
REMARK    1  A    between atoms: C_1  and  C_2
REMARK    2  A    between atoms: C_2  and  C_3
REMARK    3  A    between atoms: C_2  and  C_4
REMARK    4  A    between atoms: C_4  and  C_5
REMARK    5  A    between atoms: C_5  and  N_6
REMARK    6  A    between atoms: C_5  and  P_7
REMARK    7  A    between atoms: P_7  and  O_9
REMARK    8  A    between atoms: P_7  and  C_10
REMARK    9  A    between atoms: C_10  and  N_11
REMARK   10  A    between atoms: C_10  and  C_12
REMARK   11  A    between atoms: C_12  and  C_13
REMARK                            x       y       z     vdW  Elec       q    Type
REMARK                         _______ _______ _______ _____ _____    ______ ____
ROOT
ATOM      1  P   UNL     1       6.194   4.383  16.492  0.00  0.00    +0.000 P 
ATOM      2  O   UNL     1       7.656   4.650  16.912  0.00  0.00    +0.000 OA
ENDROOT
BRANCH   1   3
ATOM      3  O   UNL     1       5.478   5.867  16.200  0.00  0.00    +0.000 OA
ATOM      4  H   UNL     1       4.599   5.717  15.768  0.00  0.00    +0.000 HD
ENDBRANCH   1   3
BRANCH   1   5
ATOM      5  C   UNL     1       6.752   4.315  14.750  0.00  0.00    +0.000 C 
BRANCH   5   6
ATOM      6  N   UNL     1       7.619   5.518  14.562  0.00  0.00    +0.000 NA
ATOM      7  H   UNL     1       8.451   5.240  14.037  0.00  0.00    +0.000 HD
ATOM      8  H   UNL     1       7.979   5.795  15.482  0.00  0.00    +0.000 HD
ENDBRANCH   5   6
BRANCH   5   9
ATOM      9  C   UNL     1       5.591   4.272  13.742  0.00  0.00    +0.000 C 
BRANCH   9  11
ATOM     10  C   UNL     1       4.554   3.237  11.655  0.00  0.00    +0.000 C 
ATOM     11  C   UNL     1       5.792   3.310  12.551  0.00  0.00    +0.000 C 
ATOM     12  C   UNL     1       7.002   3.730  11.710  0.00  0.00    +0.000 C 
ENDBRANCH   9  11
ENDBRANCH   5   9
ENDBRANCH   1   5
BRANCH   1  13
ATOM     13  C   UNL     1       5.637   4.451  18.234  0.00  0.00    +0.000 C 
BRANCH  13  14
ATOM     14  N   UNL     1       6.808   4.879  19.057  0.00  0.00    +0.000 NA
ATOM     15  H   UNL     1       7.620   4.771  18.438  0.00  0.00    +0.000 HD
ATOM     16  H   UNL     1       6.949   4.095  19.711  0.00  0.00    +0.000 HD
ENDBRANCH  13  14
BRANCH  13  17
ATOM     17  C   UNL     1       4.459   5.397  18.501  0.00  0.00    +0.000 C 
BRANCH  17  18
ATOM     18  C   UNL     1       3.204   4.716  18.992  0.00  0.00    +0.000 A 
ATOM     19  C   UNL     1       2.667   5.002  20.254  0.00  0.00    +0.000 A 
ATOM     20  C   UNL     1       1.464   4.414  20.659  0.00  0.00    +0.000 A 
ATOM     21  C   UNL     1       0.787   3.543  19.809  0.00  0.00    +0.000 A 
ATOM     22  C   UNL     1       1.306   3.260  18.546  0.00  0.00    +0.000 A 
ATOM     23  C   UNL     1       2.507   3.843  18.141  0.00  0.00    +0.000 A 
ENDBRANCH  17  18
ENDBRANCH  13  17
ENDBRANCH   1  13
TORSDOF 9
ENDMDL
MODEL 3
REMARK VINA RESULT:      -7.1      0.694      1.009
REMARK  Name = 
REMARK  11 active torsions:
REMARK  status: ('A' for Active; 'I' for Inactive)
REMARK    1  A    between atoms: C_1  and  C_2
REMARK    2  A    between atoms: C_2  and  C_3
REMARK    3  A    between atoms: C_2  and  C_4
REMARK    4  A    between atoms: C_4  and  C_5
REMARK    5  A    between atoms: C_5  and  N_6
REMARK    6  A    between atoms: C_5  and  P_7
REMARK    7  A    between atoms: P_7  and  O_9
REMARK    8  A    between atoms: P_7  and  C_10
REMARK    9  A    between atoms: C_10  and  N_11
REMARK   10  A    between atoms: C_10  and  C_12
REMARK   11  A    between atoms: C_12  and  C_13
REMARK                            x       y       z     vdW  Elec       q    Type
REMARK                         _______ _______ _______ _____ _____    ______ ____
ROOT
ATOM      1  P   UNL     1       6.065   4.631  16.727  0.00  0.00    +0.000 P 
ATOM      2  O   UNL     1       5.145   3.420  16.461  0.00  0.00    +0.000 OA
ENDROOT
BRANCH   1   3
ATOM      3  O   UNL     1       7.495   4.043  17.366  0.00  0.00    +0.000 OA
ATOM      4  H   UNL     1       7.314   3.673  18.267  0.00  0.00    +0.000 HD
ENDBRANCH   1   3
BRANCH   1   5
ATOM      5  C   UNL     1       6.742   4.433  15.038  0.00  0.00    +0.000 C 
BRANCH   5   6
ATOM      6  N   UNL     1       7.686   5.578  14.850  0.00  0.00    +0.000 NA
ATOM      7  H   UNL     1       8.601   5.204  14.591  0.00  0.00    +0.000 HD
ATOM      8  H   UNL     1       7.840   6.013  15.767  0.00  0.00    +0.000 HD
ENDBRANCH   5   6
BRANCH   5   9
ATOM      9  C   UNL     1       5.655   4.392  13.950  0.00  0.00    +0.000 C 
BRANCH   9  11
ATOM     10  C   UNL     1       4.740   3.273  11.850  0.00  0.00    +0.000 C 
ATOM     11  C   UNL     1       5.959   3.460  12.757  0.00  0.00    +0.000 C 
ATOM     12  C   UNL     1       7.130   3.998  11.928  0.00  0.00    +0.000 C 
ENDBRANCH   9  11
ENDBRANCH   5   9
ENDBRANCH   1   5
BRANCH   1  13
ATOM     13  C   UNL     1       5.387   4.829  18.416  0.00  0.00    +0.000 C 
BRANCH  13  14
ATOM     14  N   UNL     1       6.431   5.518  19.234  0.00  0.00    +0.000 NA
ATOM     15  H   UNL     1       5.926   6.254  19.741  0.00  0.00    +0.000 HD
ATOM     16  H   UNL     1       6.957   6.074  18.544  0.00  0.00    +0.000 HD
ENDBRANCH  13  14
BRANCH  13  17
ATOM     17  C   UNL     1       4.076   5.621  18.499  0.00  0.00    +0.000 C 
BRANCH  17  18
ATOM     18  C   UNL     1       2.892   4.828  18.998  0.00  0.00    +0.000 A 
ATOM     19  C   UNL     1       2.157   4.000  18.141  0.00  0.00    +0.000 A 
ATOM     20  C   UNL     1       1.110   3.218  18.640  0.00  0.00    +0.000 A 
ATOM     21  C   UNL     1       0.793   3.252  19.995  0.00  0.00    +0.000 A 
ATOM     22  C   UNL     1       1.525   4.064  20.860  0.00  0.00    +0.000 A 
ATOM     23  C   UNL     1       2.568   4.847  20.364  0.00  0.00    +0.000 A 
ENDBRANCH  17  18
ENDBRANCH  13  17
ENDBRANCH   1  13
TORSDOF 9
ENDMDL
MODEL 4
REMARK VINA RESULT:      -6.8      2.022      6.865
REMARK  Name = 
REMARK  11 active torsions:
REMARK  status: ('A' for Active; 'I' for Inactive)
REMARK    1  A    between atoms: C_1  and  C_2
REMARK    2  A    between atoms: C_2  and  C_3
REMARK    3  A    between atoms: C_2  and  C_4
REMARK    4  A    between atoms: C_4  and  C_5
REMARK    5  A    between atoms: C_5  and  N_6
REMARK    6  A    between atoms: C_5  and  P_7
REMARK    7  A    between atoms: P_7  and  O_9
REMARK    8  A    between atoms: P_7  and  C_10
REMARK    9  A    between atoms: C_10  and  N_11
REMARK   10  A    between atoms: C_10  and  C_12
REMARK   11  A    between atoms: C_12  and  C_13
REMARK                            x       y       z     vdW  Elec       q    Type
REMARK                         _______ _______ _______ _____ _____    ______ ____
ROOT
ATOM      1  P   UNL     1       4.463   4.079  18.037  0.00  0.00    +0.000 P 
ATOM      2  O   UNL     1       4.017   5.337  18.814  0.00  0.00    +0.000 OA
ENDROOT
BRANCH   1   3
ATOM      3  O   UNL     1       6.065   3.793  18.427  0.00  0.00    +0.000 OA
ATOM      4  H   UNL     1       6.344   4.438  19.126  0.00  0.00    +0.000 HD
ENDBRANCH   1   3
BRANCH   1   5
ATOM      5  C   UNL     1       3.938   3.063  19.465  0.00  0.00    +0.000 C 
BRANCH   5   6
ATOM      6  N   UNL     1       4.999   2.021  19.625  0.00  0.00    +0.000 NA
ATOM      7  H   UNL     1       5.911   2.466  19.501  0.00  0.00    +0.000 HD
ATOM      8  H   UNL     1       4.924   1.371  18.835  0.00  0.00    +0.000 HD
ENDBRANCH   5   6
BRANCH   5   9
ATOM      9  C   UNL     1       2.540   2.446  19.290  0.00  0.00    +0.000 C 
BRANCH   9  11
ATOM     10  C   UNL     1       2.158   2.738  21.793  0.00  0.00    +0.000 C 
ATOM     11  C   UNL     1       1.526   2.794  20.401  0.00  0.00    +0.000 C 
ATOM     12  C   UNL     1       0.924   4.185  20.173  0.00  0.00    +0.000 C 
ENDBRANCH   9  11
ENDBRANCH   5   9
ENDBRANCH   1   5
BRANCH   1  13
ATOM     13  C   UNL     1       4.988   5.096  16.609  0.00  0.00    +0.000 C 
BRANCH  13  14
ATOM     14  N   UNL     1       4.749   6.526  16.971  0.00  0.00    +0.000 NA
ATOM     15  H   UNL     1       4.458   6.976  16.095  0.00  0.00    +0.000 HD
ATOM     16  H   UNL     1       5.698   6.912  17.088  0.00  0.00    +0.000 HD
ENDBRANCH  13  14
BRANCH  13  17
ATOM     17  C   UNL     1       6.454   4.919  16.191  0.00  0.00    +0.000 C 
BRANCH  17  18
ATOM     18  C   UNL     1       6.658   4.606  14.728  0.00  0.00    +0.000 A 
ATOM     19  C   UNL     1       5.840   3.685  14.061  0.00  0.00    +0.000 A 
ATOM     20  C   UNL     1       6.000   3.463  12.688  0.00  0.00    +0.000 A 
ATOM     21  C   UNL     1       6.970   4.161  11.973  0.00  0.00    +0.000 A 
ATOM     22  C   UNL     1       7.781   5.089  12.625  0.00  0.00    +0.000 A 
ATOM     23  C   UNL     1       7.626   5.309  13.994  0.00  0.00    +0.000 A 
ENDBRANCH  17  18
ENDBRANCH  13  17
ENDBRANCH   1  13
TORSDOF 9
ENDMDL
MODEL 5
REMARK VINA RESULT:      -6.7      2.066      6.880
REMARK  Name = 
REMARK  11 active torsions:
REMARK  status: ('A' for Active; 'I' for Inactive)
REMARK    1  A    between atoms: C_1  and  C_2
REMARK    2  A    between atoms: C_2  and  C_3
REMARK    3  A    between atoms: C_2  and  C_4
REMARK    4  A    between atoms: C_4  and  C_5
REMARK    5  A    between atoms: C_5  and  N_6
REMARK    6  A    between atoms: C_5  and  P_7
REMARK    7  A    between atoms: P_7  and  O_9
REMARK    8  A    between atoms: P_7  and  C_10
REMARK    9  A    between atoms: C_10  and  N_11
REMARK   10  A    between atoms: C_10  and  C_12
REMARK   11  A    between atoms: C_12  and  C_13
REMARK                            x       y       z     vdW  Elec       q    Type
REMARK                         _______ _______ _______ _____ _____    ______ ____
ROOT
ATOM      1  P   UNL     1       4.466   4.017  18.148  0.00  0.00    +0.000 P 
ATOM      2  O   UNL     1       5.862   4.226  18.773  0.00  0.00    +0.000 OA
ENDROOT
BRANCH   1   3
ATOM      3  O   UNL     1       4.528   2.607  17.247  0.00  0.00    +0.000 OA
ATOM      4  H   UNL     1       3.634   2.178  17.265  0.00  0.00    +0.000 HD
ENDBRANCH   1   3
BRANCH   1   5
ATOM      5  C   UNL     1       3.996   3.047  19.627  0.00  0.00    +0.000 C 
BRANCH   5   6
ATOM      6  N   UNL     1       5.116   2.080  19.842  0.00  0.00    +0.000 NA
ATOM      7  H   UNL     1       6.000   2.569  19.688  0.00  0.00    +0.000 HD
ATOM      8  H   UNL     1       5.079   1.381  19.092  0.00  0.00    +0.000 HD
ENDBRANCH   5   6
BRANCH   5   9
ATOM      9  C   UNL     1       2.638   2.338  19.481  0.00  0.00    +0.000 C 
BRANCH   9  11
ATOM     10  C   UNL     1       2.143   2.963  21.903  0.00  0.00    +0.000 C 
ATOM     11  C   UNL     1       1.562   2.770  20.501  0.00  0.00    +0.000 C 
ATOM     12  C   UNL     1       0.876   4.065  20.054  0.00  0.00    +0.000 C 
ENDBRANCH   9  11
ENDBRANCH   5   9
ENDBRANCH   1   5
BRANCH   1  13
ATOM     13  C   UNL     1       4.936   4.987  16.669  0.00  0.00    +0.000 C 
BRANCH  13  14
ATOM     14  N   UNL     1       4.686   6.426  16.985  0.00  0.00    +0.000 NA
ATOM     15  H   UNL     1       4.305   6.825  16.119  0.00  0.00    +0.000 HD
ATOM     16  H   UNL     1       5.629   6.843  16.999  0.00  0.00    +0.000 HD
ENDBRANCH  13  14
BRANCH  13  17
ATOM     17  C   UNL     1       6.393   4.815  16.218  0.00  0.00    +0.000 C 
BRANCH  17  18
ATOM     18  C   UNL     1       6.573   4.636  14.730  0.00  0.00    +0.000 A 
ATOM     19  C   UNL     1       7.571   5.326  14.029  0.00  0.00    +0.000 A 
ATOM     20  C   UNL     1       7.768   5.090  12.664  0.00  0.00    +0.000 A 
ATOM     21  C   UNL     1       6.977   4.163  11.991  0.00  0.00    +0.000 A 
ATOM     22  C   UNL     1       5.989   3.462  12.681  0.00  0.00    +0.000 A 
ATOM     23  C   UNL     1       5.789   3.698  14.041  0.00  0.00    +0.000 A 
ENDBRANCH  17  18
ENDBRANCH  13  17
ENDBRANCH   1  13
TORSDOF 9
ENDMDL
MODEL 6
REMARK VINA RESULT:      -6.7      1.051      1.260
REMARK  Name = 
REMARK  11 active torsions:
REMARK  status: ('A' for Active; 'I' for Inactive)
REMARK    1  A    between atoms: C_1  and  C_2
REMARK    2  A    between atoms: C_2  and  C_3
REMARK    3  A    between atoms: C_2  and  C_4
REMARK    4  A    between atoms: C_4  and  C_5
REMARK    5  A    between atoms: C_5  and  N_6
REMARK    6  A    between atoms: C_5  and  P_7
REMARK    7  A    between atoms: P_7  and  O_9
REMARK    8  A    between atoms: P_7  and  C_10
REMARK    9  A    between atoms: C_10  and  N_11
REMARK   10  A    between atoms: C_10  and  C_12
REMARK   11  A    between atoms: C_12  and  C_13
REMARK                            x       y       z     vdW  Elec       q    Type
REMARK                         _______ _______ _______ _____ _____    ______ ____
ROOT
ATOM      1  P   UNL     1       6.424   4.579  16.376  0.00  0.00    +0.000 P 
ATOM      2  O   UNL     1       5.378   5.637  15.959  0.00  0.00    +0.000 OA
ENDROOT
BRANCH   1   3
ATOM      3  O   UNL     1       5.657   3.092  16.378  0.00  0.00    +0.000 OA
ATOM      4  H   UNL     1       4.794   3.179  16.858  0.00  0.00    +0.000 HD
ENDBRANCH   1   3
BRANCH   1   5
ATOM      5  C   UNL     1       6.841   4.357  14.608  0.00  0.00    +0.000 C 
BRANCH   5   6
ATOM      6  N   UNL     1       7.740   5.501  14.263  0.00  0.00    +0.000 NA
ATOM      7  H   UNL     1       8.627   5.125  13.921  0.00  0.00    +0.000 HD
ATOM      8  H   UNL     1       7.988   5.982  15.135  0.00  0.00    +0.000 HD
ENDBRANCH   5   6
BRANCH   5   9
ATOM      9  C   UNL     1       5.604   4.296  13.695  0.00  0.00    +0.000 C 
BRANCH   9  11
ATOM     10  C   UNL     1       4.474   3.336  11.621  0.00  0.00    +0.000 C 
ATOM     11  C   UNL     1       5.673   3.244  12.567  0.00  0.00    +0.000 C 
ATOM     12  C   UNL     1       6.968   3.395  11.761  0.00  0.00    +0.000 C 
ENDBRANCH   9  11
ENDBRANCH   5   9
ENDBRANCH   1   5
BRANCH   1  13
ATOM     13  C   UNL     1       6.007   4.802  18.144  0.00  0.00    +0.000 C 
BRANCH  13  14
ATOM     14  N   UNL     1       7.103   5.609  18.760  0.00  0.00    +0.000 NA
ATOM     15  H   UNL     1       6.630   6.236  19.421  0.00  0.00    +0.000 HD
ATOM     16  H   UNL     1       7.371   6.270  18.014  0.00  0.00    +0.000 HD
ENDBRANCH  13  14
BRANCH  13  17
ATOM     17  C   UNL     1       4.662   5.492  18.410  0.00  0.00    +0.000 C 
BRANCH  17  18
ATOM     18  C   UNL     1       3.505   4.548  18.633  0.00  0.00    +0.000 A 
ATOM     19  C   UNL     1       2.295   4.704  17.943  0.00  0.00    +0.000 A 
ATOM     20  C   UNL     1       1.262   3.776  18.111  0.00  0.00    +0.000 A 
ATOM     21  C   UNL     1       1.429   2.685  18.961  0.00  0.00    +0.000 A 
ATOM     22  C   UNL     1       2.632   2.514  19.643  0.00  0.00    +0.000 A 
ATOM     23  C   UNL     1       3.663   3.440  19.480  0.00  0.00    +0.000 A 
ENDBRANCH  17  18
ENDBRANCH  13  17
ENDBRANCH   1  13
TORSDOF 9
ENDMDL
MODEL 7
REMARK VINA RESULT:      -6.7      0.910      1.794
REMARK  Name = 
REMARK  11 active torsions:
REMARK  status: ('A' for Active; 'I' for Inactive)
REMARK    1  A    between atoms: C_1  and  C_2
REMARK    2  A    between atoms: C_2  and  C_3
REMARK    3  A    between atoms: C_2  and  C_4
REMARK    4  A    between atoms: C_4  and  C_5
REMARK    5  A    between atoms: C_5  and  N_6
REMARK    6  A    between atoms: C_5  and  P_7
REMARK    7  A    between atoms: P_7  and  O_9
REMARK    8  A    between atoms: P_7  and  C_10
REMARK    9  A    between atoms: C_10  and  N_11
REMARK   10  A    between atoms: C_10  and  C_12
REMARK   11  A    between atoms: C_12  and  C_13
REMARK                            x       y       z     vdW  Elec       q    Type
REMARK                         _______ _______ _______ _____ _____    ______ ____
ROOT
ATOM      1  P   UNL     1       6.310   4.686  16.213  0.00  0.00    +0.000 P 
ATOM      2  O   UNL     1       5.336   3.489  16.270  0.00  0.00    +0.000 OA
ENDROOT
BRANCH   1   3
ATOM      3  O   UNL     1       7.797   4.147  16.761  0.00  0.00    +0.000 OA
ATOM      4  H   UNL     1       7.707   3.877  17.711  0.00  0.00    +0.000 HD
ENDBRANCH   1   3
BRANCH   1   5
ATOM      5  C   UNL     1       6.761   4.183  14.512  0.00  0.00    +0.000 C 
BRANCH   5   6
ATOM      6  N   UNL     1       7.322   5.411  13.868  0.00  0.00    +0.000 NA
ATOM      7  H   UNL     1       6.911   6.231  14.320  0.00  0.00    +0.000 HD
ATOM      8  H   UNL     1       6.972   5.450  12.905  0.00  0.00    +0.000 HD
ENDBRANCH   5   6
BRANCH   5   9
ATOM      9  C   UNL     1       5.578   3.601  13.718  0.00  0.00    +0.000 C 
BRANCH   9  11
ATOM     10  C   UNL     1       6.770   2.489  11.757  0.00  0.00    +0.000 C 
ATOM     11  C   UNL     1       5.771   3.567  12.186  0.00  0.00    +0.000 C 
ATOM     12  C   UNL     1       4.435   3.332  11.474  0.00  0.00    +0.000 C 
ENDBRANCH   9  11
ENDBRANCH   5   9
ENDBRANCH   1   5
BRANCH   1  13
ATOM     13  C   UNL     1       5.859   5.188  17.914  0.00  0.00    +0.000 C 
BRANCH  13  14
ATOM     14  N   UNL     1       6.990   6.005  18.449  0.00  0.00    +0.000 NA
ATOM     15  H   UNL     1       6.564   6.898  18.725  0.00  0.00    +0.000 HD
ATOM     16  H   UNL     1       7.513   6.285  17.606  0.00  0.00    +0.000 HD
ENDBRANCH  13  14
BRANCH  13  17
ATOM     17  C   UNL     1       4.557   5.991  18.029  0.00  0.00    +0.000 C 
BRANCH  17  18
ATOM     18  C   UNL     1       3.409   5.242  18.662  0.00  0.00    +0.000 A 
ATOM     19  C   UNL     1       3.158   5.322  20.037  0.00  0.00    +0.000 A 
ATOM     20  C   UNL     1       2.046   4.678  20.591  0.00  0.00    +0.000 A 
ATOM     21  C   UNL     1       1.176   3.957  19.778  0.00  0.00    +0.000 A 
ATOM     22  C   UNL     1       1.409   3.881  18.405  0.00  0.00    +0.000 A 
ATOM     23  C   UNL     1       2.519   4.519  17.852  0.00  0.00    +0.000 A 
ENDBRANCH  17  18
ENDBRANCH  13  17
ENDBRANCH   1  13
TORSDOF 9
ENDMDL
MODEL 8
REMARK VINA RESULT:      -6.7      1.203      1.781
REMARK  Name = 
REMARK  11 active torsions:
REMARK  status: ('A' for Active; 'I' for Inactive)
REMARK    1  A    between atoms: C_1  and  C_2
REMARK    2  A    between atoms: C_2  and  C_3
REMARK    3  A    between atoms: C_2  and  C_4
REMARK    4  A    between atoms: C_4  and  C_5
REMARK    5  A    between atoms: C_5  and  N_6
REMARK    6  A    between atoms: C_5  and  P_7
REMARK    7  A    between atoms: P_7  and  O_9
REMARK    8  A    between atoms: P_7  and  C_10
REMARK    9  A    between atoms: C_10  and  N_11
REMARK   10  A    between atoms: C_10  and  C_12
REMARK   11  A    between atoms: C_12  and  C_13
REMARK                            x       y       z     vdW  Elec       q    Type
REMARK                         _______ _______ _______ _____ _____    ______ ____
ROOT
ATOM      1  P   UNL     1       5.717   5.058  17.167  0.00  0.00    +0.000 P 
ATOM      2  O   UNL     1       4.990   3.761  16.748  0.00  0.00    +0.000 OA
ENDROOT
BRANCH   1   3
ATOM      3  O   UNL     1       7.340   4.690  17.336  0.00  0.00    +0.000 OA
ATOM      4  H   UNL     1       7.443   3.704  17.355  0.00  0.00    +0.000 HD
ENDBRANCH   1   3
BRANCH   1   5
ATOM      5  C   UNL     1       5.989   5.427  15.395  0.00  0.00    +0.000 C 
BRANCH   5   6
ATOM      6  N   UNL     1       5.317   6.741  15.154  0.00  0.00    +0.000 NA
ATOM      7  H   UNL     1       6.020   7.410  14.833  0.00  0.00    +0.000 HD
ATOM      8  H   UNL     1       5.010   7.110  16.061  0.00  0.00    +0.000 HD
ENDBRANCH   5   6
BRANCH   5   9
ATOM      9  C   UNL     1       5.463   4.325  14.459  0.00  0.00    +0.000 C 
BRANCH   9  11
ATOM     10  C   UNL     1       5.791   3.242  12.174  0.00  0.00    +0.000 C 
ATOM     11  C   UNL     1       6.480   3.812  13.416  0.00  0.00    +0.000 C 
ATOM     12  C   UNL     1       7.440   4.930  12.994  0.00  0.00    +0.000 C 
ENDBRANCH   9  11
ENDBRANCH   5   9
ENDBRANCH   1   5
BRANCH   1  13
ATOM     13  C   UNL     1       5.444   4.689  18.939  0.00  0.00    +0.000 C 
BRANCH  13  14
ATOM     14  N   UNL     1       6.668   5.126  19.676  0.00  0.00    +0.000 NA
ATOM     15  H   UNL     1       6.315   5.636  20.495  0.00  0.00    +0.000 HD
ATOM     16  H   UNL     1       7.038   5.899  19.103  0.00  0.00    +0.000 HD
ENDBRANCH  13  14
BRANCH  13  17
ATOM     17  C   UNL     1       4.213   5.363  19.559  0.00  0.00    +0.000 C 
BRANCH  17  18
ATOM     18  C   UNL     1       3.006   4.466  19.694  0.00  0.00    +0.000 A 
ATOM     19  C   UNL     1       2.590   3.989  20.944  0.00  0.00    +0.000 A 
ATOM     20  C   UNL     1       1.426   3.220  21.055  0.00  0.00    +0.000 A 
ATOM     21  C   UNL     1       0.669   2.926  19.924  0.00  0.00    +0.000 A 
ATOM     22  C   UNL     1       1.067   3.406  18.677  0.00  0.00    +0.000 A 
ATOM     23  C   UNL     1       2.228   4.171  18.564  0.00  0.00    +0.000 A 
ENDBRANCH  17  18
ENDBRANCH  13  17
ENDBRANCH   1  13
TORSDOF 9
ENDMDL
MODEL 9
REMARK VINA RESULT:      -6.7      1.083      1.366
REMARK  Name = 
REMARK  11 active torsions:
REMARK  status: ('A' for Active; 'I' for Inactive)
REMARK    1  A    between atoms: C_1  and  C_2
REMARK    2  A    between atoms: C_2  and  C_3
REMARK    3  A    between atoms: C_2  and  C_4
REMARK    4  A    between atoms: C_4  and  C_5
REMARK    5  A    between atoms: C_5  and  N_6
REMARK    6  A    between atoms: C_5  and  P_7
REMARK    7  A    between atoms: P_7  and  O_9
REMARK    8  A    between atoms: P_7  and  C_10
REMARK    9  A    between atoms: C_10  and  N_11
REMARK   10  A    between atoms: C_10  and  C_12
REMARK   11  A    between atoms: C_12  and  C_13
REMARK                            x       y       z     vdW  Elec       q    Type
REMARK                         _______ _______ _______ _____ _____    ______ ____
ROOT
ATOM      1  P   UNL     1       6.191   4.631  15.896  0.00  0.00    +0.000 P 
ATOM      2  O   UNL     1       7.665   4.736  16.344  0.00  0.00    +0.000 OA
ENDROOT
BRANCH   1   3
ATOM      3  O   UNL     1       5.684   6.170  15.478  0.00  0.00    +0.000 OA
ATOM      4  H   UNL     1       4.877   6.096  14.907  0.00  0.00    +0.000 HD
ENDBRANCH   1   3
BRANCH   1   5
ATOM      5  C   UNL     1       6.775   4.363  14.183  0.00  0.00    +0.000 C 
BRANCH   5   6
ATOM      6  N   UNL     1       7.793   5.430  13.937  0.00  0.00    +0.000 NA
ATOM      7  H   UNL     1       7.896   5.983  14.790  0.00  0.00    +0.000 HD
ATOM      8  H   UNL     1       7.402   6.087  13.252  0.00  0.00    +0.000 HD
ENDBRANCH   5   6
BRANCH   5   9
ATOM      9  C   UNL     1       5.641   4.391  13.143  0.00  0.00    +0.000 C 
BRANCH   9  11
ATOM     10  C   UNL     1       4.304   3.186  11.338  0.00  0.00    +0.000 C 
ATOM     11  C   UNL     1       5.449   3.081  12.349  0.00  0.00    +0.000 C 
ATOM     12  C   UNL     1       6.737   2.693  11.617  0.00  0.00    +0.000 C 
ENDBRANCH   9  11
ENDBRANCH   5   9
ENDBRANCH   1   5
BRANCH   1  13
ATOM     13  C   UNL     1       5.607   4.900  17.610  0.00  0.00    +0.000 C 
BRANCH  13  14
ATOM     14  N   UNL     1       6.470   5.962  18.210  0.00  0.00    +0.000 NA
ATOM     15  H   UNL     1       6.152   6.837  17.775  0.00  0.00    +0.000 HD
ATOM     16  H   UNL     1       7.382   5.829  17.749  0.00  0.00    +0.000 HD
ENDBRANCH  13  14
BRANCH  13  17
ATOM     17  C   UNL     1       4.135   5.313  17.736  0.00  0.00    +0.000 C 
BRANCH  17  18
ATOM     18  C   UNL     1       3.206   4.206  18.171  0.00  0.00    +0.000 A 
ATOM     19  C   UNL     1       1.834   4.432  18.340  0.00  0.00    +0.000 A 
ATOM     20  C   UNL     1       0.980   3.374  18.672  0.00  0.00    +0.000 A 
ATOM     21  C   UNL     1       1.486   2.087  18.832  0.00  0.00    +0.000 A 
ATOM     22  C   UNL     1       2.847   1.848  18.655  0.00  0.00    +0.000 A 
ATOM     23  C   UNL     1       3.702   2.902  18.327  0.00  0.00    +0.000 A 
ENDBRANCH  17  18
ENDBRANCH  13  17
ENDBRANCH   1  13
TORSDOF 9
ENDMDL
