MODEL 1
REMARK VINA RESULT:      -7.3      0.000      0.000
REMARK  Name = 
REMARK  3 active torsions:
REMARK  status: ('A' for Active; 'I' for Inactive)
REMARK    1  A    between atoms: S_2  and  N_4
REMARK    2  A    between atoms: S_2  and  C_12
REMARK    3  A    between atoms: N_4  and  C_5
REMARK                            x       y       z     vdW  Elec       q    Type
REMARK                         _______ _______ _______ _____ _____    ______ ____
ROOT
ATOM      1  O   UNL     1       5.808   5.860  16.592  0.00  0.00    +0.000 OA
ATOM      2  S   UNL     1       6.560   4.651  16.323  0.00  0.00    +0.000 S 
ATOM      3  O   UNL     1       7.858   4.422  16.921  0.00  0.00    +0.000 OA
ENDROOT
BRANCH   2   4
ATOM      4  C   UNL     1       6.721   4.517  14.558  0.00  0.00    +0.000 A 
ATOM      5  C   UNL     1       5.900   3.624  13.859  0.00  0.00    +0.000 A 
ATOM      6  C   UNL     1       6.056   3.485  12.480  0.00  0.00    +0.000 A 
ATOM      7  C   UNL     1       7.018   4.240  11.807  0.00  0.00    +0.000 A 
ATOM      8  C   UNL     1       7.812   5.153  12.505  0.00  0.00    +0.000 A 
ATOM      9  C   UNL     1       7.657   5.305  13.882  0.00  0.00    +0.000 A 
ENDBRANCH   2   4
BRANCH   2  10
ATOM     10  N   UNL     1       5.522   3.359  16.689  0.00  0.00    +0.000 N 
ATOM     11  H   UNL     1       6.049   2.500  16.834  0.00  0.00    +0.000 HD
BRANCH  10  12
ATOM     12  C   UNL     1       4.437   3.591  17.581  0.00  0.00    +0.000 A 
ATOM     13  C   UNL     1       3.141   3.666  17.069  0.00  0.00    +0.000 A 
ATOM     14  C   UNL     1       2.061   3.876  17.929  0.00  0.00    +0.000 A 
ATOM     15  C   UNL     1       2.288   4.040  19.294  0.00  0.00    +0.000 A 
ATOM     16 CL   UNL     1       0.959   4.290  20.357  0.00  0.00    +0.000 Cl
ATOM     17  C   UNL     1       3.586   3.998  19.804  0.00  0.00    +0.000 A 
ATOM     18  C   UNL     1       4.664   3.767  18.946  0.00  0.00    +0.000 A 
ENDBRANCH  10  12
ENDBRANCH   2  10
TORSDOF 3
ENDMDL
MODEL 2
REMARK VINA RESULT:      -7.2      0.170      1.671
REMARK  Name = 
REMARK  3 active torsions:
REMARK  status: ('A' for Active; 'I' for Inactive)
REMARK    1  A    between atoms: S_2  and  N_4
REMARK    2  A    between atoms: S_2  and  C_12
REMARK    3  A    between atoms: N_4  and  C_5
REMARK                            x       y       z     vdW  Elec       q    Type
REMARK                         _______ _______ _______ _____ _____    ______ ____
ROOT
ATOM      1  O   UNL     1       5.492   5.902  16.417  0.00  0.00    +0.000 OA
ATOM      2  S   UNL     1       6.360   4.752  16.269  0.00  0.00    +0.000 S 
ATOM      3  O   UNL     1       7.637   4.678  16.946  0.00  0.00    +0.000 OA
ENDROOT
BRANCH   2   4
ATOM      4  C   UNL     1       6.631   4.522  14.527  0.00  0.00    +0.000 A 
ATOM      5  C   UNL     1       7.614   5.279  13.879  0.00  0.00    +0.000 A 
ATOM      6  C   UNL     1       7.798   5.131  12.505  0.00  0.00    +0.000 A 
ATOM      7  C   UNL     1       7.011   4.227  11.789  0.00  0.00    +0.000 A 
ATOM      8  C   UNL     1       6.054   3.451  12.447  0.00  0.00    +0.000 A 
ATOM      9  C   UNL     1       5.870   3.586  13.822  0.00  0.00    +0.000 A 
ENDBRANCH   2   4
BRANCH   2  10
ATOM     10  N   UNL     1       5.419   3.396  16.668  0.00  0.00    +0.000 N 
ATOM     11  H   UNL     1       6.007   2.582  16.836  0.00  0.00    +0.000 HD
BRANCH  10  12
ATOM     12  C   UNL     1       4.318   3.571  17.553  0.00  0.00    +0.000 A 
ATOM     13  C   UNL     1       4.560   3.730  18.917  0.00  0.00    +0.000 A 
ATOM     14  C   UNL     1       3.494   3.919  19.799  0.00  0.00    +0.000 A 
ATOM     15  C   UNL     1       2.188   3.918  19.313  0.00  0.00    +0.000 A 
ATOM     16 CL   UNL     1       0.873   4.159  20.395  0.00  0.00    +0.000 Cl
ATOM     17  C   UNL     1       1.940   3.726  17.953  0.00  0.00    +0.000 A 
ATOM     18  C   UNL     1       3.009   3.557  17.069  0.00  0.00    +0.000 A 
ENDBRANCH  10  12
ENDBRANCH   2  10
TORSDOF 3
ENDMDL
MODEL 3
REMARK VINA RESULT:      -7.2      0.297      1.214
REMARK  Name = 
REMARK  3 active torsions:
REMARK  status: ('A' for Active; 'I' for Inactive)
REMARK    1  A    between atoms: S_2  and  N_4
REMARK    2  A    between atoms: S_2  and  C_12
REMARK    3  A    between atoms: N_4  and  C_5
REMARK                            x       y       z     vdW  Elec       q    Type
REMARK                         _______ _______ _______ _____ _____    ______ ____
ROOT
ATOM      1  O   UNL     1       5.295   6.015  16.249  0.00  0.00    +0.000 OA
ATOM      2  S   UNL     1       6.269   4.945  16.192  0.00  0.00    +0.000 S 
ATOM      3  O   UNL     1       7.545   5.049  16.868  0.00  0.00    +0.000 OA
ENDROOT
BRANCH   2   4
ATOM      4  C   UNL     1       6.569   4.600  14.474  0.00  0.00    +0.000 A 
ATOM      5  C   UNL     1       7.585   5.289  13.802  0.00  0.00    +0.000 A 
ATOM      6  C   UNL     1       7.792   5.051  12.443  0.00  0.00    +0.000 A 
ATOM      7  C   UNL     1       6.994   4.126  11.768  0.00  0.00    +0.000 A 
ATOM      8  C   UNL     1       6.003   3.418  12.451  0.00  0.00    +0.000 A 
ATOM      9  C   UNL     1       5.796   3.643  13.811  0.00  0.00    +0.000 A 
ENDBRANCH   2   4
BRANCH   2  10
ATOM     10  N   UNL     1       5.461   3.543  16.704  0.00  0.00    +0.000 N 
ATOM     11  H   UNL     1       6.123   2.801  16.924  0.00  0.00    +0.000 HD
BRANCH  10  12
ATOM     12  C   UNL     1       4.355   3.682  17.589  0.00  0.00    +0.000 A 
ATOM     13  C   UNL     1       3.061   3.536  17.088  0.00  0.00    +0.000 A 
ATOM     14  C   UNL     1       1.963   3.653  17.943  0.00  0.00    +0.000 A 
ATOM     15  C   UNL     1       2.166   3.943  19.290  0.00  0.00    +0.000 A 
ATOM     16 CL   UNL     1       0.816   4.078  20.349  0.00  0.00    +0.000 Cl
ATOM     17  C   UNL     1       3.457   4.121  19.788  0.00  0.00    +0.000 A 
ATOM     18  C   UNL     1       4.556   3.985  18.936  0.00  0.00    +0.000 A 
ENDBRANCH  10  12
ENDBRANCH   2  10
TORSDOF 3
ENDMDL
MODEL 4
REMARK VINA RESULT:      -6.9      3.108      6.629
REMARK  Name = 
REMARK  3 active torsions:
REMARK  status: ('A' for Active; 'I' for Inactive)
REMARK    1  A    between atoms: S_2  and  N_4
REMARK    2  A    between atoms: S_2  and  C_12
REMARK    3  A    between atoms: N_4  and  C_5
REMARK                            x       y       z     vdW  Elec       q    Type
REMARK                         _______ _______ _______ _____ _____    ______ ____
ROOT
ATOM      1  O   UNL     1       5.198   5.452  19.716  0.00  0.00    +0.000 OA
ATOM      2  S   UNL     1       4.392   5.152  18.551  0.00  0.00    +0.000 S 
ATOM      3  O   UNL     1       3.999   6.187  17.619  0.00  0.00    +0.000 OA
ENDROOT
BRANCH   2   4
ATOM      4  C   UNL     1       2.927   4.326  19.127  0.00  0.00    +0.000 A 
ATOM      5  C   UNL     1       2.566   4.429  20.476  0.00  0.00    +0.000 A 
ATOM      6  C   UNL     1       1.441   3.745  20.938  0.00  0.00    +0.000 A 
ATOM      7  C   UNL     1       0.681   2.976  20.056  0.00  0.00    +0.000 A 
ATOM      8  C   UNL     1       1.028   2.904  18.705  0.00  0.00    +0.000 A 
ATOM      9  C   UNL     1       2.145   3.591  18.232  0.00  0.00    +0.000 A 
ENDBRANCH   2   4
BRANCH   2  10
ATOM     10  N   UNL     1       5.202   3.911  17.724  0.00  0.00    +0.000 N 
ATOM     11  H   UNL     1       4.678   3.039  17.772  0.00  0.00    +0.000 HD
BRANCH  10  12
ATOM     12  C   UNL     1       5.808   4.213  16.471  0.00  0.00    +0.000 A 
ATOM     13  C   UNL     1       7.049   4.849  16.453  0.00  0.00    +0.000 A 
ATOM     14  C   UNL     1       7.667   5.139  15.235  0.00  0.00    +0.000 A 
ATOM     15  C   UNL     1       7.026   4.816  14.041  0.00  0.00    +0.000 A 
ATOM     16 CL   UNL     1       7.789   5.163  12.539  0.00  0.00    +0.000 Cl
ATOM     17  C   UNL     1       5.770   4.209  14.056  0.00  0.00    +0.000 A 
ATOM     18  C   UNL     1       5.160   3.901  15.275  0.00  0.00    +0.000 A 
ENDBRANCH  10  12
ENDBRANCH   2  10
TORSDOF 3
ENDMDL
MODEL 5
REMARK VINA RESULT:      -6.9      3.146      6.768
REMARK  Name = 
REMARK  3 active torsions:
REMARK  status: ('A' for Active; 'I' for Inactive)
REMARK    1  A    between atoms: S_2  and  N_4
REMARK    2  A    between atoms: S_2  and  C_12
REMARK    3  A    between atoms: N_4  and  C_5
REMARK                            x       y       z     vdW  Elec       q    Type
REMARK                         _______ _______ _______ _____ _____    ______ ____
ROOT
ATOM      1  O   UNL     1       5.762   5.252  19.689  0.00  0.00    +0.000 OA
ATOM      2  S   UNL     1       4.668   5.044  18.763  0.00  0.00    +0.000 S 
ATOM      3  O   UNL     1       4.121   6.134  17.985  0.00  0.00    +0.000 OA
ENDROOT
BRANCH   2   4
ATOM      4  C   UNL     1       3.345   4.286  19.678  0.00  0.00    +0.000 A 
ATOM      5  C   UNL     1       2.102   4.926  19.747  0.00  0.00    +0.000 A 
ATOM      6  C   UNL     1       1.077   4.354  20.501  0.00  0.00    +0.000 A 
ATOM      7  C   UNL     1       1.293   3.149  21.171  0.00  0.00    +0.000 A 
ATOM      8  C   UNL     1       2.525   2.498  21.071  0.00  0.00    +0.000 A 
ATOM      9  C   UNL     1       3.552   3.058  20.313  0.00  0.00    +0.000 A 
ENDBRANCH   2   4
BRANCH   2  10
ATOM     10  N   UNL     1       5.156   3.789  17.730  0.00  0.00    +0.000 N 
ATOM     11  H   UNL     1       4.455   3.051  17.698  0.00  0.00    +0.000 HD
BRANCH  10  12
ATOM     12  C   UNL     1       5.771   4.128  16.492  0.00  0.00    +0.000 A 
ATOM     13  C   UNL     1       7.033   4.722  16.501  0.00  0.00    +0.000 A 
ATOM     14  C   UNL     1       7.660   5.048  15.297  0.00  0.00    +0.000 A 
ATOM     15  C   UNL     1       7.007   4.804  14.091  0.00  0.00    +0.000 A 
ATOM     16 CL   UNL     1       7.780   5.195  12.605  0.00  0.00    +0.000 Cl
ATOM     17  C   UNL     1       5.731   4.240  14.080  0.00  0.00    +0.000 A 
ATOM     18  C   UNL     1       5.112   3.895  15.284  0.00  0.00    +0.000 A 
ENDBRANCH  10  12
ENDBRANCH   2  10
TORSDOF 3
ENDMDL
MODEL 6
REMARK VINA RESULT:      -6.9      1.182      1.661
REMARK  Name = 
REMARK  3 active torsions:
REMARK  status: ('A' for Active; 'I' for Inactive)
REMARK    1  A    between atoms: S_2  and  N_4
REMARK    2  A    between atoms: S_2  and  C_12
REMARK    3  A    between atoms: N_4  and  C_5
REMARK                            x       y       z     vdW  Elec       q    Type
REMARK                         _______ _______ _______ _____ _____    ______ ____
ROOT
ATOM      1  O   UNL     1       7.527   6.590  16.399  0.00  0.00    +0.000 OA
ATOM      2  S   UNL     1       6.730   5.384  16.303  0.00  0.00    +0.000 S 
ATOM      3  O   UNL     1       6.977   4.247  17.163  0.00  0.00    +0.000 OA
ENDROOT
BRANCH   2   4
ATOM      4  C   UNL     1       6.807   4.839  14.612  0.00  0.00    +0.000 A 
ATOM      5  C   UNL     1       7.728   5.431  13.741  0.00  0.00    +0.000 A 
ATOM      6  C   UNL     1       7.759   5.036  12.404  0.00  0.00    +0.000 A 
ATOM      7  C   UNL     1       6.882   4.050  11.947  0.00  0.00    +0.000 A 
ATOM      8  C   UNL     1       5.988   3.440  12.829  0.00  0.00    +0.000 A 
ATOM      9  C   UNL     1       5.956   3.823  14.169  0.00  0.00    +0.000 A 
ENDBRANCH   2   4
BRANCH   2  10
ATOM     10  N   UNL     1       5.112   5.874  16.449  0.00  0.00    +0.000 N 
ATOM     11  H   UNL     1       4.684   5.997  15.533  0.00  0.00    +0.000 HD
BRANCH  10  12
ATOM     12  C   UNL     1       4.302   5.257  17.444  0.00  0.00    +0.000 A 
ATOM     13  C   UNL     1       3.578   4.111  17.117  0.00  0.00    +0.000 A 
ATOM     14  C   UNL     1       2.791   3.482  18.084  0.00  0.00    +0.000 A 
ATOM     15  C   UNL     1       2.711   4.020  19.366  0.00  0.00    +0.000 A 
ATOM     16 CL   UNL     1       1.750   3.243  20.562  0.00  0.00    +0.000 Cl
ATOM     17  C   UNL     1       3.409   5.185  19.688  0.00  0.00    +0.000 A 
ATOM     18  C   UNL     1       4.212   5.803  18.725  0.00  0.00    +0.000 A 
ENDBRANCH  10  12
ENDBRANCH   2  10
TORSDOF 3
ENDMDL
MODEL 7
REMARK VINA RESULT:      -6.8      1.255      1.568
REMARK  Name = 
REMARK  3 active torsions:
REMARK  status: ('A' for Active; 'I' for Inactive)
REMARK    1  A    between atoms: S_2  and  N_4
REMARK    2  A    between atoms: S_2  and  C_12
REMARK    3  A    between atoms: N_4  and  C_5
REMARK                            x       y       z     vdW  Elec       q    Type
REMARK                         _______ _______ _______ _____ _____    ______ ____
ROOT
ATOM      1  O   UNL     1       7.526   6.546  16.344  0.00  0.00    +0.000 OA
ATOM      2  S   UNL     1       6.651   5.397  16.236  0.00  0.00    +0.000 S 
ATOM      3  O   UNL     1       6.802   4.249  17.106  0.00  0.00    +0.000 OA
ENDROOT
BRANCH   2   4
ATOM      4  C   UNL     1       6.724   4.839  14.550  0.00  0.00    +0.000 A 
ATOM      5  C   UNL     1       5.831   3.853  14.113  0.00  0.00    +0.000 A 
ATOM      6  C   UNL     1       5.916   3.383  12.803  0.00  0.00    +0.000 A 
ATOM      7  C   UNL     1       6.880   3.903  11.937  0.00  0.00    +0.000 A 
ATOM      8  C   UNL     1       7.746   4.909  12.369  0.00  0.00    +0.000 A 
ATOM      9  C   UNL     1       7.662   5.391  13.674  0.00  0.00    +0.000 A 
ENDBRANCH   2   4
BRANCH   2  10
ATOM     10  N   UNL     1       5.068   5.997  16.348  0.00  0.00    +0.000 N 
ATOM     11  H   UNL     1       4.672   6.156  15.423  0.00  0.00    +0.000 HD
BRANCH  10  12
ATOM     12  C   UNL     1       4.193   5.431  17.319  0.00  0.00    +0.000 A 
ATOM     13  C   UNL     1       4.032   6.074  18.546  0.00  0.00    +0.000 A 
ATOM     14  C   UNL     1       3.167   5.543  19.505  0.00  0.00    +0.000 A 
ATOM     15  C   UNL     1       2.489   4.355  19.240  0.00  0.00    +0.000 A 
ATOM     16 CL   UNL     1       1.415   3.703  20.415  0.00  0.00    +0.000 Cl
ATOM     17  C   UNL     1       2.673   3.692  18.026  0.00  0.00    +0.000 A 
ATOM     18  C   UNL     1       3.524   4.235  17.059  0.00  0.00    +0.000 A 
ENDBRANCH  10  12
ENDBRANCH   2  10
TORSDOF 3
ENDMDL
MODEL 8
REMARK VINA RESULT:      -6.8      1.267      1.958
REMARK  Name = 
REMARK  3 active torsions:
REMARK  status: ('A' for Active; 'I' for Inactive)
REMARK    1  A    between atoms: S_2  and  N_4
REMARK    2  A    between atoms: S_2  and  C_12
REMARK    3  A    between atoms: N_4  and  C_5
REMARK                            x       y       z     vdW  Elec       q    Type
REMARK                         _______ _______ _______ _____ _____    ______ ____
ROOT
ATOM      1  O   UNL     1       7.477   6.522  16.441  0.00  0.00    +0.000 OA
ATOM      2  S   UNL     1       6.603   5.376  16.296  0.00  0.00    +0.000 S 
ATOM      3  O   UNL     1       6.719   4.224  17.165  0.00  0.00    +0.000 OA
ENDROOT
BRANCH   2   4
ATOM      4  C   UNL     1       6.735   4.827  14.611  0.00  0.00    +0.000 A 
ATOM      5  C   UNL     1       7.694   5.407  13.772  0.00  0.00    +0.000 A 
ATOM      6  C   UNL     1       7.770   5.009  12.438  0.00  0.00    +0.000 A 
ATOM      7  C   UNL     1       6.899   4.031  11.952  0.00  0.00    +0.000 A 
ATOM      8  C   UNL     1       5.966   3.433  12.801  0.00  0.00    +0.000 A 
ATOM      9  C   UNL     1       5.890   3.819  14.138  0.00  0.00    +0.000 A 
ENDBRANCH   2   4
BRANCH   2  10
ATOM     10  N   UNL     1       5.018   5.981  16.353  0.00  0.00    +0.000 N 
ATOM     11  H   UNL     1       4.637   6.092  15.416  0.00  0.00    +0.000 HD
BRANCH  10  12
ATOM     12  C   UNL     1       4.129   5.464  17.338  0.00  0.00    +0.000 A 
ATOM     13  C   UNL     1       3.970   6.155  18.540  0.00  0.00    +0.000 A 
ATOM     14  C   UNL     1       3.090   5.673  19.511  0.00  0.00    +0.000 A 
ATOM     15  C   UNL     1       2.396   4.486  19.286  0.00  0.00    +0.000 A 
ATOM     16 CL   UNL     1       1.305   3.894  20.477  0.00  0.00    +0.000 Cl
ATOM     17  C   UNL     1       2.578   3.776  18.099  0.00  0.00    +0.000 A 
ATOM     18  C   UNL     1       3.443   4.269  17.118  0.00  0.00    +0.000 A 
ENDBRANCH  10  12
ENDBRANCH   2  10
TORSDOF 3
ENDMDL
MODEL 9
REMARK VINA RESULT:      -6.8      3.120      6.608
REMARK  Name = 
REMARK  3 active torsions:
REMARK  status: ('A' for Active; 'I' for Inactive)
REMARK    1  A    between atoms: S_2  and  N_4
REMARK    2  A    between atoms: S_2  and  C_12
REMARK    3  A    between atoms: N_4  and  C_5
REMARK                            x       y       z     vdW  Elec       q    Type
REMARK                         _______ _______ _______ _____ _____    ______ ____
ROOT
ATOM      1  O   UNL     1       5.648   5.375  19.696  0.00  0.00    +0.000 OA
ATOM      2  S   UNL     1       4.703   5.122  18.628  0.00  0.00    +0.000 S 
ATOM      3  O   UNL     1       4.250   6.183  17.754  0.00  0.00    +0.000 OA
ENDROOT
BRANCH   2   4
ATOM      4  C   UNL     1       3.279   4.351  19.363  0.00  0.00    +0.000 A 
ATOM      5  C   UNL     1       3.116   2.965  19.255  0.00  0.00    +0.000 A 
ATOM      6  C   UNL     1       1.978   2.364  19.792  0.00  0.00    +0.000 A 
ATOM      7  C   UNL     1       1.017   3.144  20.439  0.00  0.00    +0.000 A 
ATOM      8  C   UNL     1       1.201   4.522  20.571  0.00  0.00    +0.000 A 
ATOM      9  C   UNL     1       2.340   5.129  20.045  0.00  0.00    +0.000 A 
ENDBRANCH   2   4
BRANCH   2  10
ATOM     10  N   UNL     1       5.360   3.858  17.706  0.00  0.00    +0.000 N 
ATOM     11  H   UNL     1       4.782   3.022  17.770  0.00  0.00    +0.000 HD
BRANCH  10  12
ATOM     12  C   UNL     1       5.889   4.161  16.419  0.00  0.00    +0.000 A 
ATOM     13  C   UNL     1       7.133   4.787  16.326  0.00  0.00    +0.000 A 
ATOM     14  C   UNL     1       7.676   5.078  15.073  0.00  0.00    +0.000 A 
ATOM     15  C   UNL     1       6.959   4.765  13.920  0.00  0.00    +0.000 A 
ATOM     16 CL   UNL     1       7.630   5.114  12.375  0.00  0.00    +0.000 Cl
ATOM     17  C   UNL     1       5.701   4.169  14.011  0.00  0.00    +0.000 A 
ATOM     18  C   UNL     1       5.166   3.860  15.264  0.00  0.00    +0.000 A 
ENDBRANCH  10  12
ENDBRANCH   2  10
TORSDOF 3
ENDMDL
