MODEL 1
REMARK VINA RESULT:      -7.4      0.000      0.000
REMARK  Name = 
REMARK  2 active torsions:
REMARK  status: ('A' for Active; 'I' for Inactive)
REMARK    1  A    between atoms: C_1  and  C_2
REMARK    2  A    between atoms: C_7  and  N_8
REMARK                            x       y       z     vdW  Elec       q    Type
REMARK                         _______ _______ _______ _____ _____    ______ ____
ROOT
ATOM      1  C   UNL     1       7.809   7.412  17.133  0.00  0.00    +0.000 C 
ATOM      2  C   UNL     1       6.445   6.887  17.499  0.00  0.00    +0.000 A 
ATOM      3  C   UNL     1       5.325   7.539  16.972  0.00  0.00    +0.000 A 
ATOM      4  C   UNL     1       4.043   7.105  17.290  0.00  0.00    +0.000 A 
ATOM      5  C   UNL     1       3.846   6.003  18.131  0.00  0.00    +0.000 A 
ATOM      6  C   UNL     1       4.939   5.312  18.670  0.00  0.00    +0.000 A 
ATOM      7  C   UNL     1       6.234   5.772  18.350  0.00  0.00    +0.000 A 
ATOM      8  C   UNL     1       4.667   4.113  19.501  0.00  0.00    +0.000 C 
ATOM      9  O   UNL     1       5.579   3.373  19.849  0.00  0.00    +0.000 OA
ATOM     10  C   UNL     1       3.276   3.758  19.861  0.00  0.00    +0.000 A 
ATOM     11  C   UNL     1       3.024   2.683  20.725  0.00  0.00    +0.000 A 
ATOM     12  C   UNL     1       1.710   2.311  21.020  0.00  0.00    +0.000 A 
ATOM     13  C   UNL     1       0.641   3.007  20.456  0.00  0.00    +0.000 A 
ATOM     14  C   UNL     1       0.887   4.087  19.609  0.00  0.00    +0.000 A 
ATOM     15  C   UNL     1       2.206   4.462  19.317  0.00  0.00    +0.000 A 
ATOM     16  C   UNL     1       2.456   5.597  18.420  0.00  0.00    +0.000 C 
ATOM     17  O   UNL     1       1.518   6.210  17.923  0.00  0.00    +0.000 OA
ENDROOT
BRANCH   7  18
ATOM     18  N   UNL     1       7.404   5.137  18.937  0.00  0.00    +0.000 N 
ATOM     19  O   UNL     1       8.040   4.357  18.215  0.00  0.00    +0.000 OA
ATOM     20  O   UNL     1       7.734   5.516  20.069  0.00  0.00    +0.000 OA
ENDBRANCH   7  18
TORSDOF 1
ENDMDL
MODEL 2
REMARK VINA RESULT:      -7.3      2.660      3.624
REMARK  Name = 
REMARK  2 active torsions:
REMARK  status: ('A' for Active; 'I' for Inactive)
REMARK    1  A    between atoms: C_1  and  C_2
REMARK    2  A    between atoms: C_7  and  N_8
REMARK                            x       y       z     vdW  Elec       q    Type
REMARK                         _______ _______ _______ _____ _____    ______ ____
ROOT
ATOM      1  C   UNL     1       6.191   4.007  16.287  0.00  0.00    +0.000 C 
ATOM      2  C   UNL     1       5.259   5.095  16.753  0.00  0.00    +0.000 A 
ATOM      3  C   UNL     1       5.123   6.234  15.952  0.00  0.00    +0.000 A 
ATOM      4  C   UNL     1       4.289   7.275  16.342  0.00  0.00    +0.000 A 
ATOM      5  C   UNL     1       3.560   7.201  17.535  0.00  0.00    +0.000 A 
ATOM      6  C   UNL     1       3.655   6.073  18.362  0.00  0.00    +0.000 A 
ATOM      7  C   UNL     1       4.516   5.031  17.960  0.00  0.00    +0.000 A 
ATOM      8  C   UNL     1       2.808   6.026  19.579  0.00  0.00    +0.000 C 
ATOM      9  O   UNL     1       2.719   4.998  20.239  0.00  0.00    +0.000 OA
ATOM     10  C   UNL     1       2.004   7.205  19.972  0.00  0.00    +0.000 A 
ATOM     11  C   UNL     1       1.279   7.195  21.172  0.00  0.00    +0.000 A 
ATOM     12  C   UNL     1       0.474   8.284  21.516  0.00  0.00    +0.000 A 
ATOM     13  C   UNL     1       0.386   9.386  20.667  0.00  0.00    +0.000 A 
ATOM     14  C   UNL     1       1.117   9.407  19.479  0.00  0.00    +0.000 A 
ATOM     15  C   UNL     1       1.928   8.315  19.138  0.00  0.00    +0.000 A 
ATOM     16  C   UNL     1       2.690   8.343  17.883  0.00  0.00    +0.000 C 
ATOM     17  O   UNL     1       2.613   9.311  17.134  0.00  0.00    +0.000 OA
ENDROOT
BRANCH   7  18
ATOM     18  N   UNL     1       4.708   3.868  18.812  0.00  0.00    +0.000 N 
ATOM     19  O   UNL     1       3.961   2.900  18.617  0.00  0.00    +0.000 OA
ATOM     20  O   UNL     1       5.678   3.897  19.583  0.00  0.00    +0.000 OA
ENDBRANCH   7  18
TORSDOF 1
ENDMDL
MODEL 3
REMARK VINA RESULT:      -7.1      1.888      5.188
REMARK  Name = 
REMARK  2 active torsions:
REMARK  status: ('A' for Active; 'I' for Inactive)
REMARK    1  A    between atoms: C_1  and  C_2
REMARK    2  A    between atoms: C_7  and  N_8
REMARK                            x       y       z     vdW  Elec       q    Type
REMARK                         _______ _______ _______ _____ _____    ______ ____
ROOT
ATOM      1  C   UNL     1       0.719   2.188  18.884  0.00  0.00    +0.000 C 
ATOM      2  C   UNL     1       1.660   3.317  18.548  0.00  0.00    +0.000 A 
ATOM      3  C   UNL     1       1.157   4.399  17.819  0.00  0.00    +0.000 A 
ATOM      4  C   UNL     1       1.985   5.459  17.469  0.00  0.00    +0.000 A 
ATOM      5  C   UNL     1       3.333   5.472  17.848  0.00  0.00    +0.000 A 
ATOM      6  C   UNL     1       3.876   4.415  18.590  0.00  0.00    +0.000 A 
ATOM      7  C   UNL     1       3.028   3.340  18.926  0.00  0.00    +0.000 A 
ATOM      8  C   UNL     1       5.293   4.518  19.018  0.00  0.00    +0.000 C 
ATOM      9  O   UNL     1       5.767   3.714  19.811  0.00  0.00    +0.000 OA
ATOM     10  C   UNL     1       6.135   5.638  18.540  0.00  0.00    +0.000 A 
ATOM     11  C   UNL     1       7.498   5.683  18.864  0.00  0.00    +0.000 A 
ATOM     12  C   UNL     1       8.281   6.769  18.464  0.00  0.00    +0.000 A 
ATOM     13  C   UNL     1       7.709   7.815  17.740  0.00  0.00    +0.000 A 
ATOM     14  C   UNL     1       6.357   7.767  17.401  0.00  0.00    +0.000 A 
ATOM     15  C   UNL     1       5.574   6.674  17.801  0.00  0.00    +0.000 A 
ATOM     16  C   UNL     1       4.150   6.634  17.444  0.00  0.00    +0.000 C 
ATOM     17  O   UNL     1       3.646   7.552  16.808  0.00  0.00    +0.000 OA
ENDROOT
BRANCH   7  18
ATOM     18  N   UNL     1       3.554   2.183  19.635  0.00  0.00    +0.000 N 
ATOM     19  O   UNL     1       3.464   2.194  20.870  0.00  0.00    +0.000 OA
ATOM     20  O   UNL     1       3.942   1.234  18.940  0.00  0.00    +0.000 OA
ENDBRANCH   7  18
TORSDOF 1
ENDMDL
MODEL 4
REMARK VINA RESULT:      -6.9      2.041      2.079
REMARK  Name = 
REMARK  2 active torsions:
REMARK  status: ('A' for Active; 'I' for Inactive)
REMARK    1  A    between atoms: C_1  and  C_2
REMARK    2  A    between atoms: C_7  and  N_8
REMARK                            x       y       z     vdW  Elec       q    Type
REMARK                         _______ _______ _______ _____ _____    ______ ____
ROOT
ATOM      1  C   UNL     1       7.821   5.168  15.040  0.00  0.00    +0.000 C 
ATOM      2  C   UNL     1       6.536   4.746  15.706  0.00  0.00    +0.000 A 
ATOM      3  C   UNL     1       5.482   4.319  14.892  0.00  0.00    +0.000 A 
ATOM      4  C   UNL     1       4.270   3.934  15.453  0.00  0.00    +0.000 A 
ATOM      5  C   UNL     1       4.082   3.955  16.840  0.00  0.00    +0.000 A 
ATOM      6  C   UNL     1       5.115   4.362  17.694  0.00  0.00    +0.000 A 
ATOM      7  C   UNL     1       6.335   4.763  17.110  0.00  0.00    +0.000 A 
ATOM      8  C   UNL     1       4.878   4.299  19.158  0.00  0.00    +0.000 C 
ATOM      9  O   UNL     1       5.797   4.474  19.948  0.00  0.00    +0.000 OA
ATOM     10  C   UNL     1       3.537   3.956  19.679  0.00  0.00    +0.000 A 
ATOM     11  C   UNL     1       3.286   3.990  21.058  0.00  0.00    +0.000 A 
ATOM     12  C   UNL     1       2.037   3.610  21.556  0.00  0.00    +0.000 A 
ATOM     13  C   UNL     1       1.033   3.193  20.684  0.00  0.00    +0.000 A 
ATOM     14  C   UNL     1       1.272   3.172  19.310  0.00  0.00    +0.000 A 
ATOM     15  C   UNL     1       2.524   3.558  18.812  0.00  0.00    +0.000 A 
ATOM     16  C   UNL     1       2.769   3.528  17.364  0.00  0.00    +0.000 C 
ATOM     17  O   UNL     1       1.887   3.160  16.596  0.00  0.00    +0.000 OA
ENDROOT
BRANCH   7  18
ATOM     18  N   UNL     1       7.418   5.263  17.943  0.00  0.00    +0.000 N 
ATOM     19  O   UNL     1       8.272   4.442  18.305  0.00  0.00    +0.000 OA
ATOM     20  O   UNL     1       7.461   6.488  18.125  0.00  0.00    +0.000 OA
ENDBRANCH   7  18
TORSDOF 1
ENDMDL
MODEL 5
REMARK VINA RESULT:      -6.7      2.705      5.028
REMARK  Name = 
REMARK  2 active torsions:
REMARK  status: ('A' for Active; 'I' for Inactive)
REMARK    1  A    between atoms: C_1  and  C_2
REMARK    2  A    between atoms: C_7  and  N_8
REMARK                            x       y       z     vdW  Elec       q    Type
REMARK                         _______ _______ _______ _____ _____    ______ ____
ROOT
ATOM      1  C   UNL     1       4.087   1.855  19.585  0.00  0.00    +0.000 C 
ATOM      2  C   UNL     1       3.451   3.207  19.783  0.00  0.00    +0.000 A 
ATOM      3  C   UNL     1       2.653   3.399  20.916  0.00  0.00    +0.000 A 
ATOM      4  C   UNL     1       2.030   4.621  21.140  0.00  0.00    +0.000 A 
ATOM      5  C   UNL     1       2.196   5.686  20.246  0.00  0.00    +0.000 A 
ATOM      6  C   UNL     1       2.998   5.542  19.106  0.00  0.00    +0.000 A 
ATOM      7  C   UNL     1       3.612   4.292  18.884  0.00  0.00    +0.000 A 
ATOM      8  C   UNL     1       3.188   6.726  18.232  0.00  0.00    +0.000 C 
ATOM      9  O   UNL     1       4.012   6.709  17.326  0.00  0.00    +0.000 OA
ATOM     10  C   UNL     1       2.430   7.971  18.490  0.00  0.00    +0.000 A 
ATOM     11  C   UNL     1       2.536   9.056  17.609  0.00  0.00    +0.000 A 
ATOM     12  C   UNL     1       1.866  10.252  17.882  0.00  0.00    +0.000 A 
ATOM     13  C   UNL     1       1.088  10.372  19.034  0.00  0.00    +0.000 A 
ATOM     14  C   UNL     1       0.967   9.289  19.904  0.00  0.00    +0.000 A 
ATOM     15  C   UNL     1       1.637   8.089  19.626  0.00  0.00    +0.000 A 
ATOM     16  C   UNL     1       1.507   6.956  20.552  0.00  0.00    +0.000 C 
ATOM     17  O   UNL     1       0.825   7.060  21.564  0.00  0.00    +0.000 OA
ENDROOT
BRANCH   7  18
ATOM     18  N   UNL     1       4.398   4.064  17.681  0.00  0.00    +0.000 N 
ATOM     19  O   UNL     1       5.625   4.201  17.778  0.00  0.00    +0.000 OA
ATOM     20  O   UNL     1       3.788   3.638  16.690  0.00  0.00    +0.000 OA
ENDBRANCH   7  18
TORSDOF 1
ENDMDL
MODEL 6
REMARK VINA RESULT:      -6.6      3.025      4.765
REMARK  Name = 
REMARK  2 active torsions:
REMARK  status: ('A' for Active; 'I' for Inactive)
REMARK    1  A    between atoms: C_1  and  C_2
REMARK    2  A    between atoms: C_7  and  N_8
REMARK                            x       y       z     vdW  Elec       q    Type
REMARK                         _______ _______ _______ _____ _____    ______ ____
ROOT
ATOM      1  C   UNL     1       4.064   1.334  18.335  0.00  0.00    +0.000 C 
ATOM      2  C   UNL     1       3.752   2.807  18.282  0.00  0.00    +0.000 A 
ATOM      3  C   UNL     1       4.226   3.542  17.191  0.00  0.00    +0.000 A 
ATOM      4  C   UNL     1       3.980   4.907  17.100  0.00  0.00    +0.000 A 
ATOM      5  C   UNL     1       3.246   5.571  18.089  0.00  0.00    +0.000 A 
ATOM      6  C   UNL     1       2.740   4.872  19.193  0.00  0.00    +0.000 A 
ATOM      7  C   UNL     1       3.009   3.490  19.280  0.00  0.00    +0.000 A 
ATOM      8  C   UNL     1       1.914   5.619  20.175  0.00  0.00    +0.000 C 
ATOM      9  O   UNL     1       1.305   5.028  21.057  0.00  0.00    +0.000 OA
ATOM     10  C   UNL     1       1.762   7.086  20.055  0.00  0.00    +0.000 A 
ATOM     11  C   UNL     1       1.062   7.804  21.034  0.00  0.00    +0.000 A 
ATOM     12  C   UNL     1       0.867   9.181  20.893  0.00  0.00    +0.000 A 
ATOM     13  C   UNL     1       1.368   9.847  19.775  0.00  0.00    +0.000 A 
ATOM     14  C   UNL     1       2.077   9.140  18.806  0.00  0.00    +0.000 A 
ATOM     15  C   UNL     1       2.276   7.759  18.951  0.00  0.00    +0.000 A 
ATOM     16  C   UNL     1       3.020   7.021  17.923  0.00  0.00    +0.000 C 
ATOM     17  O   UNL     1       3.460   7.606  16.939  0.00  0.00    +0.000 OA
ENDROOT
BRANCH   7  18
ATOM     18  N   UNL     1       2.570   2.728  20.438  0.00  0.00    +0.000 N 
ATOM     19  O   UNL     1       1.496   2.121  20.336  0.00  0.00    +0.000 OA
ATOM     20  O   UNL     1       3.362   2.654  21.389  0.00  0.00    +0.000 OA
ENDBRANCH   7  18
TORSDOF 1
ENDMDL
MODEL 7
REMARK VINA RESULT:      -6.6      2.749      3.438
REMARK  Name = 
REMARK  2 active torsions:
REMARK  status: ('A' for Active; 'I' for Inactive)
REMARK    1  A    between atoms: C_1  and  C_2
REMARK    2  A    between atoms: C_7  and  N_8
REMARK                            x       y       z     vdW  Elec       q    Type
REMARK                         _______ _______ _______ _____ _____    ______ ____
ROOT
ATOM      1  C   UNL     1       7.119   5.226  14.103  0.00  0.00    +0.000 C 
ATOM      2  C   UNL     1       6.188   4.637  15.131  0.00  0.00    +0.000 A 
ATOM      3  C   UNL     1       6.055   3.245  15.179  0.00  0.00    +0.000 A 
ATOM      4  C   UNL     1       5.199   2.650  16.098  0.00  0.00    +0.000 A 
ATOM      5  C   UNL     1       4.462   3.427  17.000  0.00  0.00    +0.000 A 
ATOM      6  C   UNL     1       4.574   4.823  16.997  0.00  0.00    +0.000 A 
ATOM      7  C   UNL     1       5.437   5.414  16.050  0.00  0.00    +0.000 A 
ATOM      8  C   UNL     1       3.819   5.587  18.020  0.00  0.00    +0.000 C 
ATOM      9  O   UNL     1       4.014   6.786  18.176  0.00  0.00    +0.000 OA
ATOM     10  C   UNL     1       2.866   4.892  18.914  0.00  0.00    +0.000 A 
ATOM     11  C   UNL     1       2.081   5.625  19.814  0.00  0.00    +0.000 A 
ATOM     12  C   UNL     1       1.223   4.966  20.699  0.00  0.00    +0.000 A 
ATOM     13  C   UNL     1       1.144   3.574  20.691  0.00  0.00    +0.000 A 
ATOM     14  C   UNL     1       1.912   2.841  19.786  0.00  0.00    +0.000 A 
ATOM     15  C   UNL     1       2.768   3.505  18.896  0.00  0.00    +0.000 A 
ATOM     16  C   UNL     1       3.577   2.725  17.950  0.00  0.00    +0.000 C 
ATOM     17  O   UNL     1       3.509   1.501  17.942  0.00  0.00    +0.000 OA
ENDROOT
BRANCH   7  18
ATOM     18  N   UNL     1       5.539   6.862  15.953  0.00  0.00    +0.000 N 
ATOM     19  O   UNL     1       6.466   7.401  16.573  0.00  0.00    +0.000 OA
ATOM     20  O   UNL     1       4.763   7.424  15.167  0.00  0.00    +0.000 OA
ENDBRANCH   7  18
TORSDOF 1
ENDMDL
MODEL 8
REMARK VINA RESULT:      -6.5      2.968      5.532
REMARK  Name = 
REMARK  2 active torsions:
REMARK  status: ('A' for Active; 'I' for Inactive)
REMARK    1  A    between atoms: C_1  and  C_2
REMARK    2  A    between atoms: C_7  and  N_8
REMARK                            x       y       z     vdW  Elec       q    Type
REMARK                         _______ _______ _______ _____ _____    ______ ____
ROOT
ATOM      1  C   UNL     1       0.789   4.318  20.846  0.00  0.00    +0.000 C 
ATOM      2  C   UNL     1       1.834   4.779  19.863  0.00  0.00    +0.000 A 
ATOM      3  C   UNL     1       2.224   6.122  19.898  0.00  0.00    +0.000 A 
ATOM      4  C   UNL     1       3.172   6.603  19.004  0.00  0.00    +0.000 A 
ATOM      5  C   UNL     1       3.764   5.756  18.059  0.00  0.00    +0.000 A 
ATOM      6  C   UNL     1       3.413   4.401  17.997  0.00  0.00    +0.000 A 
ATOM      7  C   UNL     1       2.439   3.929  18.902  0.00  0.00    +0.000 A 
ATOM      8  C   UNL     1       4.123   3.540  17.019  0.00  0.00    +0.000 C 
ATOM      9  O   UNL     1       3.984   2.323  17.042  0.00  0.00    +0.000 OA
ATOM     10  C   UNL     1       5.063   4.138  16.046  0.00  0.00    +0.000 A 
ATOM     11  C   UNL     1       5.659   3.340  15.059  0.00  0.00    +0.000 A 
ATOM     12  C   UNL     1       6.591   3.892  14.176  0.00  0.00    +0.000 A 
ATOM     13  C   UNL     1       6.933   5.240  14.272  0.00  0.00    +0.000 A 
ATOM     14  C   UNL     1       6.331   6.042  15.241  0.00  0.00    +0.000 A 
ATOM     15  C   UNL     1       5.393   5.487  16.124  0.00  0.00    +0.000 A 
ATOM     16  C   UNL     1       4.767   6.337  17.145  0.00  0.00    +0.000 C 
ATOM     17  O   UNL     1       5.068   7.523  17.231  0.00  0.00    +0.000 OA
ENDROOT
BRANCH   7  18
ATOM     18  N   UNL     1       1.985   2.548  18.837  0.00  0.00    +0.000 N 
ATOM     19  O   UNL     1       2.556   1.734  19.574  0.00  0.00    +0.000 OA
ATOM     20  O   UNL     1       0.987   2.323  18.136  0.00  0.00    +0.000 OA
ENDBRANCH   7  18
TORSDOF 1
ENDMDL
MODEL 9
REMARK VINA RESULT:      -6.4      4.544      6.723
REMARK  Name = 
REMARK  2 active torsions:
REMARK  status: ('A' for Active; 'I' for Inactive)
REMARK    1  A    between atoms: C_1  and  C_2
REMARK    2  A    between atoms: C_7  and  N_8
REMARK                            x       y       z     vdW  Elec       q    Type
REMARK                         _______ _______ _______ _____ _____    ______ ____
ROOT
ATOM      1  C   UNL     1      -0.924  11.801  21.436  0.00  0.00    +0.000 C 
ATOM      2  C   UNL     1      -0.193  10.527  21.096  0.00  0.00    +0.000 A 
ATOM      3  C   UNL     1      -0.311   9.445  21.974  0.00  0.00    +0.000 A 
ATOM      4  C   UNL     1       0.354   8.252  21.716  0.00  0.00    +0.000 A 
ATOM      5  C   UNL     1       1.144   8.105  20.570  0.00  0.00    +0.000 A 
ATOM      6  C   UNL     1       1.280   9.158  19.656  0.00  0.00    +0.000 A 
ATOM      7  C   UNL     1       0.611  10.367  19.938  0.00  0.00    +0.000 A 
ATOM      8  C   UNL     1       2.078   8.919  18.428  0.00  0.00    +0.000 C 
ATOM      9  O   UNL     1       2.085   9.738  17.517  0.00  0.00    +0.000 OA
ATOM     10  C   UNL     1       2.822   7.651  18.260  0.00  0.00    +0.000 A 
ATOM     11  C   UNL     1       3.653   7.463  17.146  0.00  0.00    +0.000 A 
ATOM     12  C   UNL     1       4.310   6.245  16.956  0.00  0.00    +0.000 A 
ATOM     13  C   UNL     1       4.144   5.209  17.873  0.00  0.00    +0.000 A 
ATOM     14  C   UNL     1       3.331   5.396  18.991  0.00  0.00    +0.000 A 
ATOM     15  C   UNL     1       2.675   6.620  19.182  0.00  0.00    +0.000 A 
ATOM     16  C   UNL     1       1.817   6.807  20.360  0.00  0.00    +0.000 C 
ATOM     17  O   UNL     1       1.669   5.897  21.167  0.00  0.00    +0.000 OA
ENDROOT
BRANCH   7  18
ATOM     18  N   UNL     1       0.772  11.517  19.061  0.00  0.00    +0.000 N 
ATOM     19  O   UNL     1      -0.154  11.758  18.276  0.00  0.00    +0.000 OA
ATOM     20  O   UNL     1       1.769  12.228  19.253  0.00  0.00    +0.000 OA
ENDBRANCH   7  18
TORSDOF 1
ENDMDL
