MODEL 1
REMARK VINA RESULT:      -8.0      0.000      0.000
REMARK  Name = 
REMARK  8 active torsions:
REMARK  status: ('A' for Active; 'I' for Inactive)
REMARK    1  A    between atoms: C_1  and  N_2
REMARK    2  A    between atoms: C_5  and  N_6
REMARK    3  A    between atoms: N_6  and  S_7
REMARK    4  A    between atoms: S_7  and  C_8
REMARK    5  A    between atoms: C_15  and  C_16
REMARK    6  A    between atoms: C_23  and  C_24
REMARK    7  A    between atoms: C_24  and  C_25
REMARK    8  A    between atoms: C_25  and  C_26
REMARK                            x       y       z     vdW  Elec       q    Type
REMARK                         _______ _______ _______ _____ _____    ______ ____
ROOT
ATOM      1  C   UNL     1       8.295   5.079  18.720  0.00  0.00    +0.000 C 
ATOM      2  N   UNL     1       7.056   5.836  18.545  0.00  0.00    +0.000 N 
ATOM      3  C   UNL     1       5.862   5.045  18.812  0.00  0.00    +0.000 C 
ATOM      4  C   UNL     1       4.509   5.686  18.651  0.00  0.00    +0.000 A 
ATOM      5  C   UNL     1       3.465   5.340  19.548  0.00  0.00    +0.000 A 
ATOM      6  C   UNL     1       2.163   5.805  19.333  0.00  0.00    +0.000 A 
ATOM      7  C   UNL     1       1.888   6.652  18.263  0.00  0.00    +0.000 A 
ATOM      8  C   UNL     1       2.900   6.996  17.368  0.00  0.00    +0.000 A 
ATOM      9  C   UNL     1       4.210   6.497  17.529  0.00  0.00    +0.000 A 
ATOM     10  C   UNL     1       5.273   6.861  16.486  0.00  0.00    +0.000 C 
ATOM     11  N   UNL     1       6.373   7.623  17.088  0.00  0.00    +0.000 NA
ATOM     12  C   UNL     1       7.115   7.103  17.996  0.00  0.00    +0.000 C 
ENDROOT
BRANCH  10  13
ATOM     13  C   UNL     1       5.688   5.738  15.509  0.00  0.00    +0.000 A 
ATOM     14  C   UNL     1       4.816   4.659  15.242  0.00  0.00    +0.000 A 
ATOM     15  C   UNL     1       5.159   3.657  14.327  0.00  0.00    +0.000 A 
ATOM     16  C   UNL     1       6.376   3.693  13.664  0.00  0.00    +0.000 A 
ATOM     17  C   UNL     1       7.253   4.753  13.893  0.00  0.00    +0.000 A 
ATOM     18  C   UNL     1       6.902   5.777  14.796  0.00  0.00    +0.000 A 
ENDBRANCH  10  13
BRANCH   5  19
ATOM     19  N   UNL     1       3.694   4.463  20.652  0.00  0.00    +0.000 N 
ATOM     20  H   UNL     1       4.348   4.709  21.390  0.00  0.00    +0.000 HD
BRANCH  19  21
ATOM     21  S   UNL     1       3.255   2.834  20.599  0.00  0.00    +0.000 S 
ATOM     22  C   UNL     1       1.750   2.814  21.543  0.00  0.00    +0.000 C 
ATOM     23  O   UNL     1       2.914   2.568  19.218  0.00  0.00    +0.000 OA
ATOM     24  O   UNL     1       4.243   2.056  21.298  0.00  0.00    +0.000 OA
ENDBRANCH  19  21
ENDBRANCH   5  19
BRANCH  12  25
ATOM     25  C   UNL     1       8.300   7.962  18.472  0.00  0.00    +0.000 C 
BRANCH  25  26
ATOM     26  C   UNL     1       8.347   9.384  17.915  0.00  0.00    +0.000 C 
BRANCH  26  27
ATOM     27  C   UNL     1       9.296  10.247  18.722  0.00  0.00    +0.000 A 
ATOM     28  C   UNL     1       9.115  10.425  20.101  0.00  0.00    +0.000 A 
ATOM     29  C   UNL     1       9.941  11.298  20.817  0.00  0.00    +0.000 A 
ATOM     30  C   UNL     1      10.953  11.998  20.163  0.00  0.00    +0.000 A 
ATOM     31  C   UNL     1      11.157  11.807  18.799  0.00  0.00    +0.000 A 
ATOM     32  C   UNL     1      10.334  10.936  18.081  0.00  0.00    +0.000 A 
ENDBRANCH  26  27
ENDBRANCH  25  26
ENDBRANCH  12  25
TORSDOF 6
ENDMDL
MODEL 2
REMARK VINA RESULT:      -8.0      0.679      1.259
REMARK  Name = 
REMARK  8 active torsions:
REMARK  status: ('A' for Active; 'I' for Inactive)
REMARK    1  A    between atoms: C_1  and  N_2
REMARK    2  A    between atoms: C_5  and  N_6
REMARK    3  A    between atoms: N_6  and  S_7
REMARK    4  A    between atoms: S_7  and  C_8
REMARK    5  A    between atoms: C_15  and  C_16
REMARK    6  A    between atoms: C_23  and  C_24
REMARK    7  A    between atoms: C_24  and  C_25
REMARK    8  A    between atoms: C_25  and  C_26
REMARK                            x       y       z     vdW  Elec       q    Type
REMARK                         _______ _______ _______ _____ _____    ______ ____
ROOT
ATOM      1  C   UNL     1       8.250   5.113  18.681  0.00  0.00    +0.000 C 
ATOM      2  N   UNL     1       7.019   5.882  18.511  0.00  0.00    +0.000 N 
ATOM      3  C   UNL     1       5.818   5.104  18.788  0.00  0.00    +0.000 C 
ATOM      4  C   UNL     1       4.470   5.757  18.633  0.00  0.00    +0.000 A 
ATOM      5  C   UNL     1       3.429   5.424  19.538  0.00  0.00    +0.000 A 
ATOM      6  C   UNL     1       2.130   5.902  19.330  0.00  0.00    +0.000 A 
ATOM      7  C   UNL     1       1.857   6.749  18.260  0.00  0.00    +0.000 A 
ATOM      8  C   UNL     1       2.867   7.080  17.357  0.00  0.00    +0.000 A 
ATOM      9  C   UNL     1       4.172   6.569  17.512  0.00  0.00    +0.000 A 
ATOM     10  C   UNL     1       5.233   6.919  16.460  0.00  0.00    +0.000 C 
ATOM     11  N   UNL     1       6.344   7.671  17.053  0.00  0.00    +0.000 NA
ATOM     12  C   UNL     1       7.087   7.147  17.958  0.00  0.00    +0.000 C 
ENDROOT
BRANCH  10  13
ATOM     13  C   UNL     1       5.630   5.790  15.485  0.00  0.00    +0.000 A 
ATOM     14  C   UNL     1       6.863   5.832  14.797  0.00  0.00    +0.000 A 
ATOM     15  C   UNL     1       7.256   4.795  13.943  0.00  0.00    +0.000 A 
ATOM     16  C   UNL     1       6.433   3.698  13.741  0.00  0.00    +0.000 A 
ATOM     17  C   UNL     1       5.216   3.617  14.418  0.00  0.00    +0.000 A 
ATOM     18  C   UNL     1       4.827   4.647  15.296  0.00  0.00    +0.000 A 
ENDBRANCH  10  13
BRANCH   5  19
ATOM     19  N   UNL     1       3.656   4.548  20.643  0.00  0.00    +0.000 N 
ATOM     20  H   UNL     1       4.377   4.748  21.331  0.00  0.00    +0.000 HD
BRANCH  19  21
ATOM     21  S   UNL     1       3.076   2.963  20.654  0.00  0.00    +0.000 S 
ATOM     22  C   UNL     1       4.546   2.018  20.336  0.00  0.00    +0.000 C 
ATOM     23  O   UNL     1       2.673   2.707  22.020  0.00  0.00    +0.000 OA
ATOM     24  O   UNL     1       2.170   2.784  19.551  0.00  0.00    +0.000 OA
ENDBRANCH  19  21
ENDBRANCH   5  19
BRANCH  12  25
ATOM     25  C   UNL     1       8.283   7.995  18.424  0.00  0.00    +0.000 C 
BRANCH  25  26
ATOM     26  C   UNL     1       8.302   9.437  17.921  0.00  0.00    +0.000 C 
BRANCH  26  27
ATOM     27  C   UNL     1       9.308  10.264  18.696  0.00  0.00    +0.000 A 
ATOM     28  C   UNL     1       9.166  10.470  20.076  0.00  0.00    +0.000 A 
ATOM     29  C   UNL     1      10.048  11.312  20.761  0.00  0.00    +0.000 A 
ATOM     30  C   UNL     1      11.078  11.953  20.076  0.00  0.00    +0.000 A 
ATOM     31  C   UNL     1      11.244  11.733  18.711  0.00  0.00    +0.000 A 
ATOM     32  C   UNL     1      10.364  10.894  18.024  0.00  0.00    +0.000 A 
ENDBRANCH  26  27
ENDBRANCH  25  26
ENDBRANCH  12  25
TORSDOF 6
ENDMDL
MODEL 3
REMARK VINA RESULT:      -7.4      6.856     10.030
REMARK  Name = 
REMARK  8 active torsions:
REMARK  status: ('A' for Active; 'I' for Inactive)
REMARK    1  A    between atoms: C_1  and  N_2
REMARK    2  A    between atoms: C_5  and  N_6
REMARK    3  A    between atoms: N_6  and  S_7
REMARK    4  A    between atoms: S_7  and  C_8
REMARK    5  A    between atoms: C_15  and  C_16
REMARK    6  A    between atoms: C_23  and  C_24
REMARK    7  A    between atoms: C_24  and  C_25
REMARK    8  A    between atoms: C_25  and  C_26
REMARK                            x       y       z     vdW  Elec       q    Type
REMARK                         _______ _______ _______ _____ _____    ______ ____
ROOT
ATOM      1  C   UNL     1      -0.581   9.366  22.000  0.00  0.00    +0.000 C 
ATOM      2  N   UNL     1       0.276  10.062  21.042  0.00  0.00    +0.000 N 
ATOM      3  C   UNL     1       0.136  11.511  21.099  0.00  0.00    +0.000 C 
ATOM      4  C   UNL     1       0.942  12.362  20.153  0.00  0.00    +0.000 A 
ATOM      5  C   UNL     1       1.452  13.608  20.603  0.00  0.00    +0.000 A 
ATOM      6  C   UNL     1       2.075  14.483  19.707  0.00  0.00    +0.000 A 
ATOM      7  C   UNL     1       2.245  14.119  18.373  0.00  0.00    +0.000 A 
ATOM      8  C   UNL     1       1.744  12.902  17.913  0.00  0.00    +0.000 A 
ATOM      9  C   UNL     1       1.062  12.025  18.783  0.00  0.00    +0.000 A 
ATOM     10  C   UNL     1       0.482  10.724  18.215  0.00  0.00    +0.000 C 
ATOM     11  N   UNL     1       1.096   9.548  18.840  0.00  0.00    +0.000 NA
ATOM     12  C   UNL     1       0.965   9.324  20.097  0.00  0.00    +0.000 C 
ENDROOT
BRANCH  10  13
ATOM     13  C   UNL     1      -1.053  10.674  18.049  0.00  0.00    +0.000 A 
ATOM     14  C   UNL     1      -1.873  11.663  18.635  0.00  0.00    +0.000 A 
ATOM     15  C   UNL     1      -3.261  11.656  18.458  0.00  0.00    +0.000 A 
ATOM     16  C   UNL     1      -3.871  10.664  17.706  0.00  0.00    +0.000 A 
ATOM     17  C   UNL     1      -3.089   9.681  17.100  0.00  0.00    +0.000 A 
ATOM     18  C   UNL     1      -1.689   9.698  17.256  0.00  0.00    +0.000 A 
ENDBRANCH  10  13
BRANCH   5  19
ATOM     19  N   UNL     1       1.291  14.032  21.957  0.00  0.00    +0.000 N 
ATOM     20  H   UNL     1       1.758  13.547  22.718  0.00  0.00    +0.000 HD
BRANCH  19  21
ATOM     21  S   UNL     1       0.026  15.047  22.425  0.00  0.00    +0.000 S 
ATOM     22  C   UNL     1       0.846  16.610  22.628  0.00  0.00    +0.000 C 
ATOM     23  O   UNL     1      -0.839  15.149  21.270  0.00  0.00    +0.000 OA
ATOM     24  O   UNL     1      -0.470  14.622  23.707  0.00  0.00    +0.000 OA
ENDBRANCH  19  21
ENDBRANCH   5  19
BRANCH  12  25
ATOM     25  C   UNL     1       1.563   8.005  20.614  0.00  0.00    +0.000 C 
BRANCH  25  26
ATOM     26  C   UNL     1       2.478   7.270  19.636  0.00  0.00    +0.000 C 
BRANCH  26  27
ATOM     27  C   UNL     1       2.053   5.824  19.484  0.00  0.00    +0.000 A 
ATOM     28  C   UNL     1       2.068   5.192  18.232  0.00  0.00    +0.000 A 
ATOM     29  C   UNL     1       1.584   3.888  18.090  0.00  0.00    +0.000 A 
ATOM     30  C   UNL     1       1.083   3.203  19.195  0.00  0.00    +0.000 A 
ATOM     31  C   UNL     1       1.088   3.812  20.448  0.00  0.00    +0.000 A 
ATOM     32  C   UNL     1       1.570   5.115  20.593  0.00  0.00    +0.000 A 
ENDBRANCH  26  27
ENDBRANCH  25  26
ENDBRANCH  12  25
TORSDOF 6
ENDMDL
MODEL 4
REMARK VINA RESULT:      -7.4      6.947      9.995
REMARK  Name = 
REMARK  8 active torsions:
REMARK  status: ('A' for Active; 'I' for Inactive)
REMARK    1  A    between atoms: C_1  and  N_2
REMARK    2  A    between atoms: C_5  and  N_6
REMARK    3  A    between atoms: N_6  and  S_7
REMARK    4  A    between atoms: S_7  and  C_8
REMARK    5  A    between atoms: C_15  and  C_16
REMARK    6  A    between atoms: C_23  and  C_24
REMARK    7  A    between atoms: C_24  and  C_25
REMARK    8  A    between atoms: C_25  and  C_26
REMARK                            x       y       z     vdW  Elec       q    Type
REMARK                         _______ _______ _______ _____ _____    ______ ____
ROOT
ATOM      1  C   UNL     1      -0.570   9.393  22.046  0.00  0.00    +0.000 C 
ATOM      2  N   UNL     1       0.297  10.071  21.084  0.00  0.00    +0.000 N 
ATOM      3  C   UNL     1       0.173  11.522  21.128  0.00  0.00    +0.000 C 
ATOM      4  C   UNL     1       0.990  12.355  20.176  0.00  0.00    +0.000 A 
ATOM      5  C   UNL     1       1.512  13.599  20.616  0.00  0.00    +0.000 A 
ATOM      6  C   UNL     1       2.147  14.460  19.713  0.00  0.00    +0.000 A 
ATOM      7  C   UNL     1       2.316  14.082  18.384  0.00  0.00    +0.000 A 
ATOM      8  C   UNL     1       1.802  12.866  17.934  0.00  0.00    +0.000 A 
ATOM      9  C   UNL     1       1.109  12.004  18.809  0.00  0.00    +0.000 A 
ATOM     10  C   UNL     1       0.516  10.705  18.252  0.00  0.00    +0.000 C 
ATOM     11  N   UNL     1       1.115   9.528  18.889  0.00  0.00    +0.000 NA
ATOM     12  C   UNL     1       0.979   9.317  20.147  0.00  0.00    +0.000 C 
ENDROOT
BRANCH  10  13
ATOM     13  C   UNL     1      -1.019  10.670  18.083  0.00  0.00    +0.000 A 
ATOM     14  C   UNL     1      -1.822  11.721  18.579  0.00  0.00    +0.000 A 
ATOM     15  C   UNL     1      -3.210  11.726  18.396  0.00  0.00    +0.000 A 
ATOM     16  C   UNL     1      -3.836  10.685  17.728  0.00  0.00    +0.000 A 
ATOM     17  C   UNL     1      -3.071   9.640  17.211  0.00  0.00    +0.000 A 
ATOM     18  C   UNL     1      -1.672   9.643  17.372  0.00  0.00    +0.000 A 
ENDBRANCH  10  13
BRANCH   5  19
ATOM     19  N   UNL     1       1.353  14.038  21.966  0.00  0.00    +0.000 N 
ATOM     20  H   UNL     1       1.749  13.510  22.739  0.00  0.00    +0.000 HD
BRANCH  19  21
ATOM     21  S   UNL     1       0.178  15.169  22.400  0.00  0.00    +0.000 S 
ATOM     22  C   UNL     1      -0.976  14.183  23.324  0.00  0.00    +0.000 C 
ATOM     23  O   UNL     1       0.829  16.070  23.326  0.00  0.00    +0.000 OA
ATOM     24  O   UNL     1      -0.479  15.647  21.213  0.00  0.00    +0.000 OA
ENDBRANCH  19  21
ENDBRANCH   5  19
BRANCH  12  25
ATOM     25  C   UNL     1       1.562   7.996  20.677  0.00  0.00    +0.000 C 
BRANCH  25  26
ATOM     26  C   UNL     1       2.436   7.221  19.693  0.00  0.00    +0.000 C 
BRANCH  26  27
ATOM     27  C   UNL     1       1.937   5.799  19.533  0.00  0.00    +0.000 A 
ATOM     28  C   UNL     1       1.481   5.064  20.636  0.00  0.00    +0.000 A 
ATOM     29  C   UNL     1       1.112   3.723  20.490  0.00  0.00    +0.000 A 
ATOM     30  C   UNL     1       1.192   3.106  19.244  0.00  0.00    +0.000 A 
ATOM     31  C   UNL     1       1.618   3.836  18.136  0.00  0.00    +0.000 A 
ATOM     32  C   UNL     1       1.988   5.175  18.279  0.00  0.00    +0.000 A 
ENDBRANCH  26  27
ENDBRANCH  25  26
ENDBRANCH  12  25
TORSDOF 6
ENDMDL
MODEL 5
REMARK VINA RESULT:      -7.4      0.824      1.266
REMARK  Name = 
REMARK  8 active torsions:
REMARK  status: ('A' for Active; 'I' for Inactive)
REMARK    1  A    between atoms: C_1  and  N_2
REMARK    2  A    between atoms: C_5  and  N_6
REMARK    3  A    between atoms: N_6  and  S_7
REMARK    4  A    between atoms: S_7  and  C_8
REMARK    5  A    between atoms: C_15  and  C_16
REMARK    6  A    between atoms: C_23  and  C_24
REMARK    7  A    between atoms: C_24  and  C_25
REMARK    8  A    between atoms: C_25  and  C_26
REMARK                            x       y       z     vdW  Elec       q    Type
REMARK                         _______ _______ _______ _____ _____    ______ ____
ROOT
ATOM      1  C   UNL     1       8.183   5.038  18.796  0.00  0.00    +0.000 C 
ATOM      2  N   UNL     1       6.973   5.832  18.588  0.00  0.00    +0.000 N 
ATOM      3  C   UNL     1       5.749   5.083  18.841  0.00  0.00    +0.000 C 
ATOM      4  C   UNL     1       4.421   5.765  18.645  0.00  0.00    +0.000 A 
ATOM      5  C   UNL     1       3.349   5.464  19.526  0.00  0.00    +0.000 A 
ATOM      6  C   UNL     1       2.067   5.968  19.280  0.00  0.00    +0.000 A 
ATOM      7  C   UNL     1       1.841   6.812  18.196  0.00  0.00    +0.000 A 
ATOM      8  C   UNL     1       2.880   7.112  17.317  0.00  0.00    +0.000 A 
ATOM      9  C   UNL     1       4.170   6.573  17.509  0.00  0.00    +0.000 A 
ATOM     10  C   UNL     1       5.265   6.890  16.483  0.00  0.00    +0.000 C 
ATOM     11  N   UNL     1       6.376   7.623  17.098  0.00  0.00    +0.000 NA
ATOM     12  C   UNL     1       7.084   7.090  18.026  0.00  0.00    +0.000 C 
ENDROOT
BRANCH  10  13
ATOM     13  C   UNL     1       5.661   5.743  15.527  0.00  0.00    +0.000 A 
ATOM     14  C   UNL     1       4.794   4.646  15.321  0.00  0.00    +0.000 A 
ATOM     15  C   UNL     1       5.119   3.621  14.425  0.00  0.00    +0.000 A 
ATOM     16  C   UNL     1       6.314   3.650  13.723  0.00  0.00    +0.000 A 
ATOM     17  C   UNL     1       7.185   4.727  13.891  0.00  0.00    +0.000 A 
ATOM     18  C   UNL     1       6.851   5.773  14.774  0.00  0.00    +0.000 A 
ENDBRANCH  10  13
BRANCH   5  19
ATOM     19  N   UNL     1       3.528   4.593  20.643  0.00  0.00    +0.000 N 
ATOM     20  H   UNL     1       4.340   4.677  21.249  0.00  0.00    +0.000 HD
BRANCH  19  21
ATOM     21  S   UNL     1       2.677   3.143  20.785  0.00  0.00    +0.000 S 
ATOM     22  C   UNL     1       2.796   2.469  19.146  0.00  0.00    +0.000 C 
ATOM     23  O   UNL     1       3.470   2.311  21.664  0.00  0.00    +0.000 OA
ATOM     24  O   UNL     1       1.294   3.432  21.060  0.00  0.00    +0.000 OA
ENDBRANCH  19  21
ENDBRANCH   5  19
BRANCH  12  25
ATOM     25  C   UNL     1       8.286   7.915  18.515  0.00  0.00    +0.000 C 
BRANCH  25  26
ATOM     26  C   UNL     1       8.634   9.138  17.667  0.00  0.00    +0.000 C 
BRANCH  26  27
ATOM     27  C   UNL     1       9.027  10.308  18.546  0.00  0.00    +0.000 A 
ATOM     28  C   UNL     1       9.314  11.564  17.993  0.00  0.00    +0.000 A 
ATOM     29  C   UNL     1       9.767  12.609  18.805  0.00  0.00    +0.000 A 
ATOM     30  C   UNL     1       9.934  12.410  20.174  0.00  0.00    +0.000 A 
ATOM     31  C   UNL     1       9.625  11.174  20.737  0.00  0.00    +0.000 A 
ATOM     32  C   UNL     1       9.174  10.129  19.928  0.00  0.00    +0.000 A 
ENDBRANCH  26  27
ENDBRANCH  25  26
ENDBRANCH  12  25
TORSDOF 6
ENDMDL
MODEL 6
REMARK VINA RESULT:      -7.1      7.014     10.097
REMARK  Name = 
REMARK  8 active torsions:
REMARK  status: ('A' for Active; 'I' for Inactive)
REMARK    1  A    between atoms: C_1  and  N_2
REMARK    2  A    between atoms: C_5  and  N_6
REMARK    3  A    between atoms: N_6  and  S_7
REMARK    4  A    between atoms: S_7  and  C_8
REMARK    5  A    between atoms: C_15  and  C_16
REMARK    6  A    between atoms: C_23  and  C_24
REMARK    7  A    between atoms: C_24  and  C_25
REMARK    8  A    between atoms: C_25  and  C_26
REMARK                            x       y       z     vdW  Elec       q    Type
REMARK                         _______ _______ _______ _____ _____    ______ ____
ROOT
ATOM      1  C   UNL     1      -0.792   8.911  21.724  0.00  0.00    +0.000 C 
ATOM      2  N   UNL     1      -0.066   9.976  21.034  0.00  0.00    +0.000 N 
ATOM      3  C   UNL     1      -0.567  11.307  21.352  0.00  0.00    +0.000 C 
ATOM      4  C   UNL     1       0.070  12.504  20.698  0.00  0.00    +0.000 A 
ATOM      5  C   UNL     1       0.218  13.705  21.440  0.00  0.00    +0.000 A 
ATOM      6  C   UNL     1       0.669  14.873  20.816  0.00  0.00    +0.000 A 
ATOM      7  C   UNL     1       1.023  14.857  19.469  0.00  0.00    +0.000 A 
ATOM      8  C   UNL     1       0.876  13.688  18.723  0.00  0.00    +0.000 A 
ATOM      9  C   UNL     1       0.372  12.510  19.314  0.00  0.00    +0.000 A 
ATOM     10  C   UNL     1       0.178  11.268  18.437  0.00  0.00    +0.000 C 
ATOM     11  N   UNL     1       1.018  10.155  18.894  0.00  0.00    +0.000 NA
ATOM     12  C   UNL     1       0.853   9.639  20.058  0.00  0.00    +0.000 C 
ENDROOT
BRANCH  10  13
ATOM     13  C   UNL     1      -1.279  10.906  18.074  0.00  0.00    +0.000 A 
ATOM     14  C   UNL     1      -2.347  11.745  18.462  0.00  0.00    +0.000 A 
ATOM     15  C   UNL     1      -3.668  11.454  18.103  0.00  0.00    +0.000 A 
ATOM     16  C   UNL     1      -3.964  10.321  17.362  0.00  0.00    +0.000 A 
ATOM     17  C   UNL     1      -2.931   9.481  16.948  0.00  0.00    +0.000 A 
ATOM     18  C   UNL     1      -1.598   9.782  17.287  0.00  0.00    +0.000 A 
ENDBRANCH  10  13
BRANCH   5  19
ATOM     19  N   UNL     1      -0.144  13.775  22.820  0.00  0.00    +0.000 N 
ATOM     20  H   UNL     1       0.407  13.304  23.532  0.00  0.00    +0.000 HD
BRANCH  19  21
ATOM     21  S   UNL     1      -1.688  14.253  23.310  0.00  0.00    +0.000 S 
ATOM     22  C   UNL     1      -1.347  15.190  24.780  0.00  0.00    +0.000 C 
ATOM     23  O   UNL     1      -2.149  15.175  22.295  0.00  0.00    +0.000 OA
ATOM     24  O   UNL     1      -2.448  13.088  23.677  0.00  0.00    +0.000 OA
ENDBRANCH  19  21
ENDBRANCH   5  19
BRANCH  12  25
ATOM     25  C   UNL     1       1.721   8.411  20.380  0.00  0.00    +0.000 C 
BRANCH  25  26
ATOM     26  C   UNL     1       2.297   7.677  19.170  0.00  0.00    +0.000 C 
BRANCH  26  27
ATOM     27  C   UNL     1       2.053   6.185  19.280  0.00  0.00    +0.000 A 
ATOM     28  C   UNL     1       2.115   5.357  18.150  0.00  0.00    +0.000 A 
ATOM     29  C   UNL     1       1.795   3.999  18.249  0.00  0.00    +0.000 A 
ATOM     30  C   UNL     1       1.413   3.457  19.474  0.00  0.00    +0.000 A 
ATOM     31  C   UNL     1       1.373   4.266  20.607  0.00  0.00    +0.000 A 
ATOM     32  C   UNL     1       1.691   5.623  20.511  0.00  0.00    +0.000 A 
ENDBRANCH  26  27
ENDBRANCH  25  26
ENDBRANCH  12  25
TORSDOF 6
ENDMDL
MODEL 7
REMARK VINA RESULT:      -7.1      9.981     13.369
REMARK  Name = 
REMARK  8 active torsions:
REMARK  status: ('A' for Active; 'I' for Inactive)
REMARK    1  A    between atoms: C_1  and  N_2
REMARK    2  A    between atoms: C_5  and  N_6
REMARK    3  A    between atoms: N_6  and  S_7
REMARK    4  A    between atoms: S_7  and  C_8
REMARK    5  A    between atoms: C_15  and  C_16
REMARK    6  A    between atoms: C_23  and  C_24
REMARK    7  A    between atoms: C_24  and  C_25
REMARK    8  A    between atoms: C_25  and  C_26
REMARK                            x       y       z     vdW  Elec       q    Type
REMARK                         _______ _______ _______ _____ _____    ______ ____
ROOT
ATOM      1  C   UNL     1      -2.400  14.747  21.061  0.00  0.00    +0.000 C 
ATOM      2  N   UNL     1      -3.336  13.625  21.115  0.00  0.00    +0.000 N 
ATOM      3  C   UNL     1      -4.132  13.488  19.902  0.00  0.00    +0.000 C 
ATOM      4  C   UNL     1      -5.157  12.387  19.820  0.00  0.00    +0.000 A 
ATOM      5  C   UNL     1      -5.368  11.725  18.583  0.00  0.00    +0.000 A 
ATOM      6  C   UNL     1      -6.412  10.805  18.441  0.00  0.00    +0.000 A 
ATOM      7  C   UNL     1      -7.225  10.492  19.528  0.00  0.00    +0.000 A 
ATOM      8  C   UNL     1      -7.036  11.139  20.749  0.00  0.00    +0.000 A 
ATOM      9  C   UNL     1      -6.026  12.112  20.904  0.00  0.00    +0.000 A 
ATOM     10  C   UNL     1      -5.896  12.833  22.251  0.00  0.00    +0.000 C 
ATOM     11  N   UNL     1      -4.593  12.571  22.873  0.00  0.00    +0.000 NA
ATOM     12  C   UNL     1      -3.505  12.948  22.308  0.00  0.00    +0.000 C 
ENDROOT
BRANCH  10  13
ATOM     13  C   UNL     1      -6.378  14.300  22.292  0.00  0.00    +0.000 A 
ATOM     14  C   UNL     1      -7.314  14.776  21.348  0.00  0.00    +0.000 A 
ATOM     15  C   UNL     1      -7.795  16.090  21.398  0.00  0.00    +0.000 A 
ATOM     16  C   UNL     1      -7.351  16.966  22.377  0.00  0.00    +0.000 A 
ATOM     17  C   UNL     1      -6.439  16.523  23.334  0.00  0.00    +0.000 A 
ATOM     18  C   UNL     1      -5.971  15.194  23.302  0.00  0.00    +0.000 A 
ENDBRANCH  10  13
BRANCH   5  19
ATOM     19  N   UNL     1      -4.570  12.021  17.436  0.00  0.00    +0.000 N 
ATOM     20  H   UNL     1      -4.889  12.681  16.732  0.00  0.00    +0.000 HD
BRANCH  19  21
ATOM     21  S   UNL     1      -3.299  11.020  16.955  0.00  0.00    +0.000 S 
ATOM     22  C   UNL     1      -1.895  11.791  17.724  0.00  0.00    +0.000 C 
ATOM     23  O   UNL     1      -3.527   9.756  17.621  0.00  0.00    +0.000 OA
ATOM     24  O   UNL     1      -3.143  11.108  15.528  0.00  0.00    +0.000 OA
ENDBRANCH  19  21
ENDBRANCH   5  19
BRANCH  12  25
ATOM     25  C   UNL     1      -2.213  12.712  23.108  0.00  0.00    +0.000 C 
BRANCH  25  26
ATOM     26  C   UNL     1      -1.906  11.254  23.448  0.00  0.00    +0.000 C 
BRANCH  26  27
ATOM     27  C   UNL     1      -0.857  10.692  22.510  0.00  0.00    +0.000 A 
ATOM     28  C   UNL     1      -0.363  11.451  21.439  0.00  0.00    +0.000 A 
ATOM     29  C   UNL     1       0.534  10.887  20.526  0.00  0.00    +0.000 A 
ATOM     30  C   UNL     1       0.946   9.564  20.675  0.00  0.00    +0.000 A 
ATOM     31  C   UNL     1       0.482   8.811  21.751  0.00  0.00    +0.000 A 
ATOM     32  C   UNL     1      -0.415   9.371  22.664  0.00  0.00    +0.000 A 
ENDBRANCH  26  27
ENDBRANCH  25  26
ENDBRANCH  12  25
TORSDOF 6
ENDMDL
MODEL 8
REMARK VINA RESULT:      -7.1      8.101     10.743
REMARK  Name = 
REMARK  8 active torsions:
REMARK  status: ('A' for Active; 'I' for Inactive)
REMARK    1  A    between atoms: C_1  and  N_2
REMARK    2  A    between atoms: C_5  and  N_6
REMARK    3  A    between atoms: N_6  and  S_7
REMARK    4  A    between atoms: S_7  and  C_8
REMARK    5  A    between atoms: C_15  and  C_16
REMARK    6  A    between atoms: C_23  and  C_24
REMARK    7  A    between atoms: C_24  and  C_25
REMARK    8  A    between atoms: C_25  and  C_26
REMARK                            x       y       z     vdW  Elec       q    Type
REMARK                         _______ _______ _______ _____ _____    ______ ____
ROOT
ATOM      1  C   UNL     1      -1.152  10.468  18.561  0.00  0.00    +0.000 C 
ATOM      2  N   UNL     1      -1.205  11.253  19.793  0.00  0.00    +0.000 N 
ATOM      3  C   UNL     1      -1.991  12.473  19.658  0.00  0.00    +0.000 C 
ATOM      4  C   UNL     1      -2.118  13.397  20.841  0.00  0.00    +0.000 A 
ATOM      5  C   UNL     1      -3.345  14.074  21.065  0.00  0.00    +0.000 A 
ATOM      6  C   UNL     1      -3.445  15.047  22.065  0.00  0.00    +0.000 A 
ATOM      7  C   UNL     1      -2.354  15.325  22.885  0.00  0.00    +0.000 A 
ATOM      8  C   UNL     1      -1.139  14.674  22.675  0.00  0.00    +0.000 A 
ATOM      9  C   UNL     1      -0.994  13.729  21.637  0.00  0.00    +0.000 A 
ATOM     10  C   UNL     1       0.378  13.082  21.413  0.00  0.00    +0.000 C 
ATOM     11  N   UNL     1       0.322  11.630  21.612  0.00  0.00    +0.000 NA
ATOM     12  C   UNL     1      -0.404  10.887  20.859  0.00  0.00    +0.000 C 
ENDROOT
BRANCH  10  13
ATOM     13  C   UNL     1       1.167  13.561  20.174  0.00  0.00    +0.000 A 
ATOM     14  C   UNL     1       1.146  14.920  19.789  0.00  0.00    +0.000 A 
ATOM     15  C   UNL     1       1.890  15.378  18.696  0.00  0.00    +0.000 A 
ATOM     16  C   UNL     1       2.662  14.500  17.951  0.00  0.00    +0.000 A 
ATOM     17  C   UNL     1       2.718  13.155  18.314  0.00  0.00    +0.000 A 
ATOM     18  C   UNL     1       1.990  12.694  19.428  0.00  0.00    +0.000 A 
ENDBRANCH  10  13
BRANCH   5  19
ATOM     19  N   UNL     1      -4.487  13.834  20.242  0.00  0.00    +0.000 N 
ATOM     20  H   UNL     1      -4.723  14.459  19.477  0.00  0.00    +0.000 HD
BRANCH  19  21
ATOM     21  S   UNL     1      -5.727  12.795  20.725  0.00  0.00    +0.000 S 
ATOM     22  C   UNL     1      -7.078  13.915  20.998  0.00  0.00    +0.000 C 
ATOM     23  O   UNL     1      -6.042  11.999  19.558  0.00  0.00    +0.000 OA
ATOM     24  O   UNL     1      -5.374  12.190  21.982  0.00  0.00    +0.000 OA
ENDBRANCH  19  21
ENDBRANCH   5  19
BRANCH  12  25
ATOM     25  C   UNL     1      -0.296   9.372  21.098  0.00  0.00    +0.000 C 
BRANCH  25  26
ATOM     26  C   UNL     1       1.097   8.862  21.467  0.00  0.00    +0.000 C 
BRANCH  26  27
ATOM     27  C   UNL     1       1.662   7.992  20.363  0.00  0.00    +0.000 A 
ATOM     28  C   UNL     1       1.954   8.526  19.100  0.00  0.00    +0.000 A 
ATOM     29  C   UNL     1       2.386   7.693  18.062  0.00  0.00    +0.000 A 
ATOM     30  C   UNL     1       2.531   6.324  18.277  0.00  0.00    +0.000 A 
ATOM     31  C   UNL     1       2.268   5.789  19.536  0.00  0.00    +0.000 A 
ATOM     32  C   UNL     1       1.836   6.618  20.574  0.00  0.00    +0.000 A 
ENDBRANCH  26  27
ENDBRANCH  25  26
ENDBRANCH  12  25
TORSDOF 6
ENDMDL
MODEL 9
REMARK VINA RESULT:      -7.1      8.122     10.680
REMARK  Name = 
REMARK  8 active torsions:
REMARK  status: ('A' for Active; 'I' for Inactive)
REMARK    1  A    between atoms: C_1  and  N_2
REMARK    2  A    between atoms: C_5  and  N_6
REMARK    3  A    between atoms: N_6  and  S_7
REMARK    4  A    between atoms: S_7  and  C_8
REMARK    5  A    between atoms: C_15  and  C_16
REMARK    6  A    between atoms: C_23  and  C_24
REMARK    7  A    between atoms: C_24  and  C_25
REMARK    8  A    between atoms: C_25  and  C_26
REMARK                            x       y       z     vdW  Elec       q    Type
REMARK                         _______ _______ _______ _____ _____    ______ ____
ROOT
ATOM      1  C   UNL     1      -1.194  10.658  18.470  0.00  0.00    +0.000 C 
ATOM      2  N   UNL     1      -1.197  11.384  19.739  0.00  0.00    +0.000 N 
ATOM      3  C   UNL     1      -1.936  12.638  19.677  0.00  0.00    +0.000 C 
ATOM      4  C   UNL     1      -2.007  13.507  20.905  0.00  0.00    +0.000 A 
ATOM      5  C   UNL     1      -3.203  14.220  21.183  0.00  0.00    +0.000 A 
ATOM      6  C   UNL     1      -3.248  15.145  22.231  0.00  0.00    +0.000 A 
ATOM      7  C   UNL     1      -2.134  15.342  23.043  0.00  0.00    +0.000 A 
ATOM      8  C   UNL     1      -0.950  14.655  22.780  0.00  0.00    +0.000 A 
ATOM      9  C   UNL     1      -0.859  13.757  21.696  0.00  0.00    +0.000 A 
ATOM     10  C   UNL     1       0.483  13.069  21.415  0.00  0.00    +0.000 C 
ATOM     11  N   UNL     1       0.373  11.612  21.546  0.00  0.00    +0.000 NA
ATOM     12  C   UNL     1      -0.394  10.936  20.771  0.00  0.00    +0.000 C 
ENDROOT
BRANCH  10  13
ATOM     13  C   UNL     1       1.270  13.577  20.187  0.00  0.00    +0.000 A 
ATOM     14  C   UNL     1       1.266  14.948  19.847  0.00  0.00    +0.000 A 
ATOM     15  C   UNL     1       2.009  15.431  18.763  0.00  0.00    +0.000 A 
ATOM     16  C   UNL     1       2.763  14.567  17.984  0.00  0.00    +0.000 A 
ATOM     17  C   UNL     1       2.801  13.210  18.303  0.00  0.00    +0.000 A 
ATOM     18  C   UNL     1       2.074  12.723  19.407  0.00  0.00    +0.000 A 
ENDBRANCH  10  13
BRANCH   5  19
ATOM     19  N   UNL     1      -4.367  14.064  20.371  0.00  0.00    +0.000 N 
ATOM     20  H   UNL     1      -4.609  14.752  19.663  0.00  0.00    +0.000 HD
BRANCH  19  21
ATOM     21  S   UNL     1      -5.614  13.008  20.798  0.00  0.00    +0.000 S 
ATOM     22  C   UNL     1      -5.657  11.891  19.416  0.00  0.00    +0.000 C 
ATOM     23  O   UNL     1      -5.125  12.274  21.944  0.00  0.00    +0.000 OA
ATOM     24  O   UNL     1      -6.855  13.735  20.836  0.00  0.00    +0.000 OA
ENDBRANCH  19  21
ENDBRANCH   5  19
BRANCH  12  25
ATOM     25  C   UNL     1      -0.341   9.408  20.936  0.00  0.00    +0.000 C 
BRANCH  25  26
ATOM     26  C   UNL     1       1.023   8.833  21.314  0.00  0.00    +0.000 C 
BRANCH  26  27
ATOM     27  C   UNL     1       1.657   8.128  20.132  0.00  0.00    +0.000 A 
ATOM     28  C   UNL     1       2.124   6.810  20.242  0.00  0.00    +0.000 A 
ATOM     29  C   UNL     1       2.791   6.204  19.172  0.00  0.00    +0.000 A 
ATOM     30  C   UNL     1       2.995   6.906  17.986  0.00  0.00    +0.000 A 
ATOM     31  C   UNL     1       2.511   8.206  17.858  0.00  0.00    +0.000 A 
ATOM     32  C   UNL     1       1.845   8.814  18.925  0.00  0.00    +0.000 A 
ENDBRANCH  26  27
ENDBRANCH  25  26
ENDBRANCH  12  25
TORSDOF 6
ENDMDL
