MODEL 1
REMARK VINA RESULT:      -8.3      0.000      0.000
REMARK  Name = 
REMARK  4 active torsions:
REMARK  status: ('A' for Active; 'I' for Inactive)
REMARK    1  A    between atoms: C_2  and  C_23
REMARK    2  A    between atoms: N_3  and  C_4
REMARK    3  A    between atoms: C_13  and  C_15
REMARK    4  A    between atoms: C_29  and  O_30
REMARK                            x       y       z     vdW  Elec       q    Type
REMARK                         _______ _______ _______ _____ _____    ______ ____
ROOT
ATOM      1  C   UNL     1       3.503   4.541  17.255  0.00  0.00    +0.000 A 
ATOM      2  C   UNL     1       2.968   3.408  17.887  0.00  0.00    +0.000 A 
ATOM      3  C   UNL     1       2.185   3.508  19.032  0.00  0.00    +0.000 A 
ATOM      4  C   UNL     1       1.907   4.745  19.603  0.00  0.00    +0.000 A 
ATOM      5  C   UNL     1       2.487   5.880  19.013  0.00  0.00    +0.000 A 
ATOM      6  C   UNL     1       3.283   5.800  17.871  0.00  0.00    +0.000 A 
ATOM      7  C   UNL     1       3.639   7.141  17.608  0.00  0.00    +0.000 A 
ATOM      8  N   UNL     1       3.127   8.010  18.486  0.00  0.00    +0.000 NA
ATOM      9  N   UNL     1       2.347   7.236  19.295  0.00  0.00    +0.000 N 
ATOM     10  C   UNL     1       1.480   7.839  20.238  0.00  0.00    +0.000 C 
ATOM     11  O   UNL     1       1.017   7.123  21.125  0.00  0.00    +0.000 OA
ENDROOT
BRANCH  10  12
ATOM     12  C   UNL     1       1.024   9.251  20.178  0.00  0.00    +0.000 A 
ATOM     13  C   UNL     1       0.553   9.801  18.972  0.00  0.00    +0.000 A 
ATOM     14 CL   UNL     1       0.384   8.901  17.501  0.00  0.00    +0.000 Cl
ATOM     15  C   UNL     1       0.064  11.114  18.933  0.00  0.00    +0.000 A 
ATOM     16  C   UNL     1      -0.036  11.864  20.098  0.00  0.00    +0.000 A 
ATOM     17  C   UNL     1       0.369  11.310  21.308  0.00  0.00    +0.000 A 
ATOM     18  C   UNL     1       0.914  10.017  21.351  0.00  0.00    +0.000 A 
ATOM     19 CL   UNL     1       1.431   9.461  22.907  0.00  0.00    +0.000 Cl
ENDBRANCH  10  12
BRANCH   1  22
ATOM     20  O   UNL     1       6.403   4.456  16.821  0.00  0.00    +0.000 OA
ATOM     21  C   UNL     1       5.591   4.438  15.898  0.00  0.00    +0.000 C 
ATOM     22  N   UNL     1       4.215   4.463  16.037  0.00  0.00    +0.000 N 
ATOM     23  H   UNL     1       3.678   4.320  15.187  0.00  0.00    +0.000 HD
BRANCH  21  24
ATOM     24  C   UNL     1       6.132   4.337  14.507  0.00  0.00    +0.000 A 
ATOM     25  C   UNL     1       5.415   3.516  13.612  0.00  0.00    +0.000 A 
ATOM     26  C   UNL     1       5.862   3.331  12.308  0.00  0.00    +0.000 A 
ATOM     27 CL   UNL     1       4.979   2.316  11.237  0.00  0.00    +0.000 Cl
ATOM     28  C   UNL     1       7.025   3.960  11.868  0.00  0.00    +0.000 A 
ATOM     29  C   UNL     1       7.741   4.784  12.737  0.00  0.00    +0.000 A 
ATOM     30  C   UNL     1       7.296   4.971  14.050  0.00  0.00    +0.000 A 
BRANCH  30  31
ATOM     31  O   UNL     1       8.022   5.791  14.879  0.00  0.00    +0.000 OA
ATOM     32  H   UNL     1       7.946   5.456  15.790  0.00  0.00    +0.000 HD
ENDBRANCH  30  31
ENDBRANCH  21  24
ENDBRANCH   1  22
TORSDOF 4
ENDMDL
MODEL 2
REMARK VINA RESULT:      -8.2      3.631      6.464
REMARK  Name = 
REMARK  4 active torsions:
REMARK  status: ('A' for Active; 'I' for Inactive)
REMARK    1  A    between atoms: C_2  and  C_23
REMARK    2  A    between atoms: N_3  and  C_4
REMARK    3  A    between atoms: C_13  and  C_15
REMARK    4  A    between atoms: C_29  and  O_30
REMARK                            x       y       z     vdW  Elec       q    Type
REMARK                         _______ _______ _______ _____ _____    ______ ____
ROOT
ATOM      1  C   UNL     1       1.679  10.100  18.093  0.00  0.00    +0.000 A 
ATOM      2  C   UNL     1       2.600  11.133  17.864  0.00  0.00    +0.000 A 
ATOM      3  C   UNL     1       2.307  12.458  18.169  0.00  0.00    +0.000 A 
ATOM      4  C   UNL     1       1.075  12.812  18.708  0.00  0.00    +0.000 A 
ATOM      5  C   UNL     1       0.124  11.794  18.886  0.00  0.00    +0.000 A 
ATOM      6  C   UNL     1       0.395  10.461  18.577  0.00  0.00    +0.000 A 
ATOM      7  C   UNL     1      -0.797   9.784  18.913  0.00  0.00    +0.000 A 
ATOM      8  N   UNL     1      -1.751  10.589  19.394  0.00  0.00    +0.000 NA
ATOM      9  N   UNL     1      -1.145  11.810  19.458  0.00  0.00    +0.000 N 
ATOM     10  C   UNL     1      -1.787  12.891  20.108  0.00  0.00    +0.000 C 
ATOM     11  O   UNL     1      -1.350  14.022  19.900  0.00  0.00    +0.000 OA
ENDROOT
BRANCH  10  12
ATOM     12  C   UNL     1      -2.892  12.745  21.089  0.00  0.00    +0.000 A 
ATOM     13  C   UNL     1      -2.638  12.809  22.470  0.00  0.00    +0.000 A 
ATOM     14 CL   UNL     1      -1.077  13.134  23.150  0.00  0.00    +0.000 Cl
ATOM     15  C   UNL     1      -3.690  12.734  23.392  0.00  0.00    +0.000 A 
ATOM     16  C   UNL     1      -5.008  12.675  22.954  0.00  0.00    +0.000 A 
ATOM     17  C   UNL     1      -5.278  12.673  21.589  0.00  0.00    +0.000 A 
ATOM     18  C   UNL     1      -4.229  12.690  20.657  0.00  0.00    +0.000 A 
ATOM     19 CL   UNL     1      -4.692  12.629  18.990  0.00  0.00    +0.000 Cl
ENDBRANCH  10  12
BRANCH   1  22
ATOM     20  O   UNL     1       2.149   7.992  20.078  0.00  0.00    +0.000 OA
ATOM     21  C   UNL     1       2.221   7.793  18.867  0.00  0.00    +0.000 C 
ATOM     22  N   UNL     1       1.999   8.740  17.882  0.00  0.00    +0.000 N 
ATOM     23  H   UNL     1       1.976   8.393  16.928  0.00  0.00    +0.000 HD
BRANCH  21  24
ATOM     24  C   UNL     1       2.532   6.402  18.414  0.00  0.00    +0.000 A 
ATOM     25  C   UNL     1       1.663   5.386  18.861  0.00  0.00    +0.000 A 
ATOM     26  C   UNL     1       1.893   4.057  18.523  0.00  0.00    +0.000 A 
ATOM     27 CL   UNL     1       0.827   2.833  19.090  0.00  0.00    +0.000 Cl
ATOM     28  C   UNL     1       2.987   3.712  17.732  0.00  0.00    +0.000 A 
ATOM     29  C   UNL     1       3.853   4.706  17.272  0.00  0.00    +0.000 A 
ATOM     30  C   UNL     1       3.626   6.044  17.612  0.00  0.00    +0.000 A 
BRANCH  30  31
ATOM     31  O   UNL     1       4.494   6.998  17.141  0.00  0.00    +0.000 OA
ATOM     32  H   UNL     1       5.090   7.259  17.865  0.00  0.00    +0.000 HD
ENDBRANCH  30  31
ENDBRANCH  21  24
ENDBRANCH   1  22
TORSDOF 4
ENDMDL
MODEL 3
REMARK VINA RESULT:      -8.1      0.122      1.682
REMARK  Name = 
REMARK  4 active torsions:
REMARK  status: ('A' for Active; 'I' for Inactive)
REMARK    1  A    between atoms: C_2  and  C_23
REMARK    2  A    between atoms: N_3  and  C_4
REMARK    3  A    between atoms: C_13  and  C_15
REMARK    4  A    between atoms: C_29  and  O_30
REMARK                            x       y       z     vdW  Elec       q    Type
REMARK                         _______ _______ _______ _____ _____    ______ ____
ROOT
ATOM      1  C   UNL     1       3.530   4.515  17.276  0.00  0.00    +0.000 A 
ATOM      2  C   UNL     1       3.007   3.372  17.900  0.00  0.00    +0.000 A 
ATOM      3  C   UNL     1       2.216   3.457  19.041  0.00  0.00    +0.000 A 
ATOM      4  C   UNL     1       1.919   4.688  19.615  0.00  0.00    +0.000 A 
ATOM      5  C   UNL     1       2.486   5.833  19.033  0.00  0.00    +0.000 A 
ATOM      6  C   UNL     1       3.290   5.769  17.895  0.00  0.00    +0.000 A 
ATOM      7  C   UNL     1       3.629   7.115  17.640  0.00  0.00    +0.000 A 
ATOM      8  N   UNL     1       3.101   7.974  18.518  0.00  0.00    +0.000 NA
ATOM      9  N   UNL     1       2.327   7.186  19.319  0.00  0.00    +0.000 N 
ATOM     10  C   UNL     1       1.446   7.773  20.259  0.00  0.00    +0.000 C 
ATOM     11  O   UNL     1       0.988   7.048  21.141  0.00  0.00    +0.000 OA
ENDROOT
BRANCH  10  12
ATOM     12  C   UNL     1       0.972   9.179  20.203  0.00  0.00    +0.000 A 
ATOM     13  C   UNL     1       1.036  10.003  21.340  0.00  0.00    +0.000 A 
ATOM     14 CL   UNL     1       1.725   9.511  22.852  0.00  0.00    +0.000 Cl
ATOM     15  C   UNL     1       0.646  11.348  21.267  0.00  0.00    +0.000 A 
ATOM     16  C   UNL     1       0.266  11.907  20.053  0.00  0.00    +0.000 A 
ATOM     17  C   UNL     1       0.257  11.117  18.907  0.00  0.00    +0.000 A 
ATOM     18  C   UNL     1       0.590   9.756  18.979  0.00  0.00    +0.000 A 
ATOM     19 CL   UNL     1       0.488   8.869  17.496  0.00  0.00    +0.000 Cl
ENDBRANCH  10  12
BRANCH   1  22
ATOM     20  O   UNL     1       6.432   4.421  16.860  0.00  0.00    +0.000 OA
ATOM     21  C   UNL     1       5.627   4.422  15.931  0.00  0.00    +0.000 C 
ATOM     22  N   UNL     1       4.250   4.452  16.062  0.00  0.00    +0.000 N 
ATOM     23  H   UNL     1       3.719   4.324  15.206  0.00  0.00    +0.000 HD
BRANCH  21  24
ATOM     24  C   UNL     1       6.177   4.339  14.543  0.00  0.00    +0.000 A 
ATOM     25  C   UNL     1       5.490   3.496  13.644  0.00  0.00    +0.000 A 
ATOM     26  C   UNL     1       5.949   3.326  12.342  0.00  0.00    +0.000 A 
ATOM     27 CL   UNL     1       5.103   2.283  11.267  0.00  0.00    +0.000 Cl
ATOM     28  C   UNL     1       7.093   3.991  11.907  0.00  0.00    +0.000 A 
ATOM     29  C   UNL     1       7.779   4.837  12.780  0.00  0.00    +0.000 A 
ATOM     30  C   UNL     1       7.322   5.010  14.091  0.00  0.00    +0.000 A 
BRANCH  30  31
ATOM     31  O   UNL     1       8.018   5.851  14.923  0.00  0.00    +0.000 OA
ATOM     32  H   UNL     1       8.465   5.316  15.603  0.00  0.00    +0.000 HD
ENDBRANCH  30  31
ENDBRANCH  21  24
ENDBRANCH   1  22
TORSDOF 4
ENDMDL
MODEL 4
REMARK VINA RESULT:      -8.1      1.422      2.332
REMARK  Name = 
REMARK  4 active torsions:
REMARK  status: ('A' for Active; 'I' for Inactive)
REMARK    1  A    between atoms: C_2  and  C_23
REMARK    2  A    between atoms: N_3  and  C_4
REMARK    3  A    between atoms: C_13  and  C_15
REMARK    4  A    between atoms: C_29  and  O_30
REMARK                            x       y       z     vdW  Elec       q    Type
REMARK                         _______ _______ _______ _____ _____    ______ ____
ROOT
ATOM      1  C   UNL     1       3.501   6.073  17.921  0.00  0.00    +0.000 A 
ATOM      2  C   UNL     1       3.136   5.067  18.830  0.00  0.00    +0.000 A 
ATOM      3  C   UNL     1       2.273   5.316  19.891  0.00  0.00    +0.000 A 
ATOM      4  C   UNL     1       1.740   6.584  20.098  0.00  0.00    +0.000 A 
ATOM      5  C   UNL     1       2.145   7.611  19.230  0.00  0.00    +0.000 A 
ATOM      6  C   UNL     1       3.018   7.384  18.165  0.00  0.00    +0.000 A 
ATOM      7  C   UNL     1       3.145   8.650  17.553  0.00  0.00    +0.000 A 
ATOM      8  N   UNL     1       2.428   9.607  18.151  0.00  0.00    +0.000 NA
ATOM      9  N   UNL     1       1.746   8.941  19.128  0.00  0.00    +0.000 N 
ATOM     10  C   UNL     1       0.723   9.595  19.856  0.00  0.00    +0.000 C 
ATOM     11  O   UNL     1       0.338   9.065  20.898  0.00  0.00    +0.000 OA
ENDROOT
BRANCH  10  12
ATOM     12  C   UNL     1       0.027  10.826  19.406  0.00  0.00    +0.000 A 
ATOM     13  C   UNL     1       0.366  12.080  19.946  0.00  0.00    +0.000 A 
ATOM     14 CL   UNL     1       1.642  12.323  21.093  0.00  0.00    +0.000 Cl
ATOM     15  C   UNL     1      -0.248  13.247  19.474  0.00  0.00    +0.000 A 
ATOM     16  C   UNL     1      -1.143  13.194  18.411  0.00  0.00    +0.000 A 
ATOM     17  C   UNL     1      -1.441  11.967  17.828  0.00  0.00    +0.000 A 
ATOM     18  C   UNL     1      -0.876  10.784  18.329  0.00  0.00    +0.000 A 
ATOM     19 CL   UNL     1      -1.367   9.317  17.552  0.00  0.00    +0.000 Cl
ENDBRANCH  10  12
BRANCH   1  22
ATOM     20  O   UNL     1       4.677   3.534  17.040  0.00  0.00    +0.000 OA
ATOM     21  C   UNL     1       4.833   4.588  16.426  0.00  0.00    +0.000 C 
ATOM     22  N   UNL     1       4.295   5.812  16.782  0.00  0.00    +0.000 N 
ATOM     23  H   UNL     1       4.413   6.563  16.109  0.00  0.00    +0.000 HD
BRANCH  21  24
ATOM     24  C   UNL     1       5.634   4.538  15.164  0.00  0.00    +0.000 A 
ATOM     25  C   UNL     1       5.098   3.771  14.109  0.00  0.00    +0.000 A 
ATOM     26  C   UNL     1       5.790   3.636  12.910  0.00  0.00    +0.000 A 
ATOM     27 CL   UNL     1       5.124   2.685  11.642  0.00  0.00    +0.000 Cl
ATOM     28  C   UNL     1       7.022   4.261  12.735  0.00  0.00    +0.000 A 
ATOM     29  C   UNL     1       7.562   5.033  13.765  0.00  0.00    +0.000 A 
ATOM     30  C   UNL     1       6.871   5.170  14.973  0.00  0.00    +0.000 A 
BRANCH  30  31
ATOM     31  O   UNL     1       7.429   5.939  15.965  0.00  0.00    +0.000 OA
ATOM     32  H   UNL     1       6.741   6.142  16.624  0.00  0.00    +0.000 HD
ENDBRANCH  30  31
ENDBRANCH  21  24
ENDBRANCH   1  22
TORSDOF 4
ENDMDL
MODEL 5
REMARK VINA RESULT:      -8.0      1.410      1.736
REMARK  Name = 
REMARK  4 active torsions:
REMARK  status: ('A' for Active; 'I' for Inactive)
REMARK    1  A    between atoms: C_2  and  C_23
REMARK    2  A    between atoms: N_3  and  C_4
REMARK    3  A    between atoms: C_13  and  C_15
REMARK    4  A    between atoms: C_29  and  O_30
REMARK                            x       y       z     vdW  Elec       q    Type
REMARK                         _______ _______ _______ _____ _____    ______ ____
ROOT
ATOM      1  C   UNL     1       3.551   5.999  18.171  0.00  0.00    +0.000 A 
ATOM      2  C   UNL     1       3.309   4.991  19.116  0.00  0.00    +0.000 A 
ATOM      3  C   UNL     1       2.451   5.186  20.193  0.00  0.00    +0.000 A 
ATOM      4  C   UNL     1       1.802   6.401  20.379  0.00  0.00    +0.000 A 
ATOM      5  C   UNL     1       2.083   7.436  19.473  0.00  0.00    +0.000 A 
ATOM      6  C   UNL     1       2.948   7.264  18.392  0.00  0.00    +0.000 A 
ATOM      7  C   UNL     1       2.934   8.517  17.742  0.00  0.00    +0.000 A 
ATOM      8  N   UNL     1       2.141   9.417  18.333  0.00  0.00    +0.000 NA
ATOM      9  N   UNL     1       1.552   8.717  19.345  0.00  0.00    +0.000 N 
ATOM     10  C   UNL     1       0.488   9.290  20.082  0.00  0.00    +0.000 C 
ATOM     11  O   UNL     1       0.181   8.757  21.148  0.00  0.00    +0.000 OA
ENDROOT
BRANCH  10  12
ATOM     12  C   UNL     1      -0.337  10.433  19.617  0.00  0.00    +0.000 A 
ATOM     13  C   UNL     1      -0.907  10.429  18.331  0.00  0.00    +0.000 A 
ATOM     14 CL   UNL     1      -0.779   9.103  17.223  0.00  0.00    +0.000 Cl
ATOM     15  C   UNL     1      -1.736  11.480  17.917  0.00  0.00    +0.000 A 
ATOM     16  C   UNL     1      -2.073  12.502  18.798  0.00  0.00    +0.000 A 
ATOM     17  C   UNL     1      -1.565  12.485  20.093  0.00  0.00    +0.000 A 
ATOM     18  C   UNL     1      -0.687  11.469  20.500  0.00  0.00    +0.000 A 
ATOM     19 CL   UNL     1      -0.082  11.589  22.118  0.00  0.00    +0.000 Cl
ENDBRANCH  10  12
BRANCH   1  22
ATOM     20  O   UNL     1       4.481   3.464  17.026  0.00  0.00    +0.000 OA
ATOM     21  C   UNL     1       4.757   4.557  16.535  0.00  0.00    +0.000 C 
ATOM     22  N   UNL     1       4.340   5.784  17.019  0.00  0.00    +0.000 N 
ATOM     23  H   UNL     1       4.549   6.587  16.434  0.00  0.00    +0.000 HD
BRANCH  21  24
ATOM     24  C   UNL     1       5.577   4.562  15.284  0.00  0.00    +0.000 A 
ATOM     25  C   UNL     1       5.072   3.818  14.198  0.00  0.00    +0.000 A 
ATOM     26  C   UNL     1       5.783   3.734  13.005  0.00  0.00    +0.000 A 
ATOM     27 CL   UNL     1       5.155   2.810  11.699  0.00  0.00    +0.000 Cl
ATOM     28  C   UNL     1       7.005   4.389  12.868  0.00  0.00    +0.000 A 
ATOM     29  C   UNL     1       7.515   5.139  13.929  0.00  0.00    +0.000 A 
ATOM     30  C   UNL     1       6.804   5.225  15.131  0.00  0.00    +0.000 A 
BRANCH  30  31
ATOM     31  O   UNL     1       7.332   5.973  16.154  0.00  0.00    +0.000 OA
ATOM     32  H   UNL     1       7.642   5.368  16.852  0.00  0.00    +0.000 HD
ENDBRANCH  30  31
ENDBRANCH  21  24
ENDBRANCH   1  22
TORSDOF 4
ENDMDL
MODEL 6
REMARK VINA RESULT:      -8.0      3.841      6.488
REMARK  Name = 
REMARK  4 active torsions:
REMARK  status: ('A' for Active; 'I' for Inactive)
REMARK    1  A    between atoms: C_2  and  C_23
REMARK    2  A    between atoms: N_3  and  C_4
REMARK    3  A    between atoms: C_13  and  C_15
REMARK    4  A    between atoms: C_29  and  O_30
REMARK                            x       y       z     vdW  Elec       q    Type
REMARK                         _______ _______ _______ _____ _____    ______ ____
ROOT
ATOM      1  C   UNL     1       1.653  10.156  18.229  0.00  0.00    +0.000 A 
ATOM      2  C   UNL     1       2.580  11.161  17.913  0.00  0.00    +0.000 A 
ATOM      3  C   UNL     1       2.302  12.507  18.127  0.00  0.00    +0.000 A 
ATOM      4  C   UNL     1       1.083  12.910  18.659  0.00  0.00    +0.000 A 
ATOM      5  C   UNL     1       0.126  11.916  18.923  0.00  0.00    +0.000 A 
ATOM      6  C   UNL     1       0.380  10.562  18.706  0.00  0.00    +0.000 A 
ATOM      7  C   UNL     1      -0.812   9.922  19.108  0.00  0.00    +0.000 A 
ATOM      8  N   UNL     1      -1.751  10.769  19.545  0.00  0.00    +0.000 NA
ATOM      9  N   UNL     1      -1.134  11.985  19.512  0.00  0.00    +0.000 N 
ATOM     10  C   UNL     1      -1.756  13.116  20.094  0.00  0.00    +0.000 C 
ATOM     11  O   UNL     1      -1.312  14.225  19.799  0.00  0.00    +0.000 OA
ENDROOT
BRANCH  10  12
ATOM     12  C   UNL     1      -2.846  13.050  21.100  0.00  0.00    +0.000 A 
ATOM     13  C   UNL     1      -4.179  12.850  20.699  0.00  0.00    +0.000 A 
ATOM     14 CL   UNL     1      -4.664  12.586  19.056  0.00  0.00    +0.000 Cl
ATOM     15  C   UNL     1      -5.198  12.725  21.653  0.00  0.00    +0.000 A 
ATOM     16  C   UNL     1      -4.896  12.719  23.010  0.00  0.00    +0.000 A 
ATOM     17  C   UNL     1      -3.574  12.855  23.419  0.00  0.00    +0.000 A 
ATOM     18  C   UNL     1      -2.552  13.038  22.474  0.00  0.00    +0.000 A 
ATOM     19 CL   UNL     1      -0.957  13.250  23.111  0.00  0.00    +0.000 Cl
ENDBRANCH  10  12
BRANCH   1  22
ATOM     20  O   UNL     1       2.001   8.159  20.350  0.00  0.00    +0.000 OA
ATOM     21  C   UNL     1       2.122   7.890  19.156  0.00  0.00    +0.000 C 
ATOM     22  N   UNL     1       1.958   8.781  18.111  0.00  0.00    +0.000 N 
ATOM     23  H   UNL     1       1.970   8.380  17.178  0.00  0.00    +0.000 HD
BRANCH  21  24
ATOM     24  C   UNL     1       2.428   6.470  18.798  0.00  0.00    +0.000 A 
ATOM     25  C   UNL     1       1.698   5.477  19.484  0.00  0.00    +0.000 A 
ATOM     26  C   UNL     1       1.940   4.128  19.246  0.00  0.00    +0.000 A 
ATOM     27 CL   UNL     1       1.048   2.935  20.103  0.00  0.00    +0.000 Cl
ATOM     28  C   UNL     1       2.906   3.741  18.320  0.00  0.00    +0.000 A 
ATOM     29  C   UNL     1       3.630   4.711  17.624  0.00  0.00    +0.000 A 
ATOM     30  C   UNL     1       3.392   6.068  17.862  0.00  0.00    +0.000 A 
BRANCH  30  31
ATOM     31  O   UNL     1       4.119   6.997  17.159  0.00  0.00    +0.000 OA
ATOM     32  H   UNL     1       4.776   7.394  17.757  0.00  0.00    +0.000 HD
ENDBRANCH  30  31
ENDBRANCH  21  24
ENDBRANCH   1  22
TORSDOF 4
ENDMDL
MODEL 7
REMARK VINA RESULT:      -7.9      3.804      6.637
REMARK  Name = 
REMARK  4 active torsions:
REMARK  status: ('A' for Active; 'I' for Inactive)
REMARK    1  A    between atoms: C_2  and  C_23
REMARK    2  A    between atoms: N_3  and  C_4
REMARK    3  A    between atoms: C_13  and  C_15
REMARK    4  A    between atoms: C_29  and  O_30
REMARK                            x       y       z     vdW  Elec       q    Type
REMARK                         _______ _______ _______ _____ _____    ______ ____
ROOT
ATOM      1  C   UNL     1       1.716  10.233  18.269  0.00  0.00    +0.000 A 
ATOM      2  C   UNL     1       2.571  11.294  17.933  0.00  0.00    +0.000 A 
ATOM      3  C   UNL     1       2.209  12.621  18.141  0.00  0.00    +0.000 A 
ATOM      4  C   UNL     1       0.973  12.948  18.687  0.00  0.00    +0.000 A 
ATOM      5  C   UNL     1       0.087  11.897  18.972  0.00  0.00    +0.000 A 
ATOM      6  C   UNL     1       0.426  10.560  18.761  0.00  0.00    +0.000 A 
ATOM      7  C   UNL     1      -0.716   9.847  19.185  0.00  0.00    +0.000 A 
ATOM      8  N   UNL     1      -1.702  10.634  19.629  0.00  0.00    +0.000 NA
ATOM      9  N   UNL     1      -1.167  11.888  19.578  0.00  0.00    +0.000 N 
ATOM     10  C   UNL     1      -1.853  12.980  20.161  0.00  0.00    +0.000 C 
ATOM     11  O   UNL     1      -1.487  14.114  19.852  0.00  0.00    +0.000 OA
ENDROOT
BRANCH  10  12
ATOM     12  C   UNL     1      -2.923  12.852  21.182  0.00  0.00    +0.000 A 
ATOM     13  C   UNL     1      -2.625  12.971  22.551  0.00  0.00    +0.000 A 
ATOM     14 CL   UNL     1      -1.049  13.348  23.167  0.00  0.00    +0.000 Cl
ATOM     15  C   UNL     1      -3.646  12.913  23.509  0.00  0.00    +0.000 A 
ATOM     16  C   UNL     1      -4.976  12.816  23.117  0.00  0.00    +0.000 A 
ATOM     17  C   UNL     1      -5.290  12.759  21.763  0.00  0.00    +0.000 A 
ATOM     18  C   UNL     1      -4.272  12.759  20.797  0.00  0.00    +0.000 A 
ATOM     19 CL   UNL     1      -4.787  12.629  19.150  0.00  0.00    +0.000 Cl
ENDBRANCH  10  12
BRANCH   1  22
ATOM     20  O   UNL     1       1.968   8.209  20.377  0.00  0.00    +0.000 OA
ATOM     21  C   UNL     1       2.219   7.975  19.197  0.00  0.00    +0.000 C 
ATOM     22  N   UNL     1       2.109   8.881  18.157  0.00  0.00    +0.000 N 
ATOM     23  H   UNL     1       2.234   8.503  17.222  0.00  0.00    +0.000 HD
BRANCH  21  24
ATOM     24  C   UNL     1       2.639   6.584  18.845  0.00  0.00    +0.000 A 
ATOM     25  C   UNL     1       3.519   6.450  17.751  0.00  0.00    +0.000 A 
ATOM     26  C   UNL     1       3.934   5.192  17.325  0.00  0.00    +0.000 A 
ATOM     27 CL   UNL     1       4.997   5.052  15.981  0.00  0.00    +0.000 Cl
ATOM     28  C   UNL     1       3.489   4.046  17.980  0.00  0.00    +0.000 A 
ATOM     29  C   UNL     1       2.626   4.161  19.072  0.00  0.00    +0.000 A 
ATOM     30  C   UNL     1       2.204   5.423  19.501  0.00  0.00    +0.000 A 
BRANCH  30  31
ATOM     31  O   UNL     1       1.357   5.501  20.580  0.00  0.00    +0.000 OA
ATOM     32  H   UNL     1       0.863   4.665  20.647  0.00  0.00    +0.000 HD
ENDBRANCH  30  31
ENDBRANCH  21  24
ENDBRANCH   1  22
TORSDOF 4
ENDMDL
MODEL 8
REMARK VINA RESULT:      -7.9      4.148      7.155
REMARK  Name = 
REMARK  4 active torsions:
REMARK  status: ('A' for Active; 'I' for Inactive)
REMARK    1  A    between atoms: C_2  and  C_23
REMARK    2  A    between atoms: N_3  and  C_4
REMARK    3  A    between atoms: C_13  and  C_15
REMARK    4  A    between atoms: C_29  and  O_30
REMARK                            x       y       z     vdW  Elec       q    Type
REMARK                         _______ _______ _______ _____ _____    ______ ____
ROOT
ATOM      1  C   UNL     1      -0.419  10.051  19.033  0.00  0.00    +0.000 A 
ATOM      2  C   UNL     1      -1.050  10.463  17.849  0.00  0.00    +0.000 A 
ATOM      3  C   UNL     1      -1.918  11.550  17.822  0.00  0.00    +0.000 A 
ATOM      4  C   UNL     1      -2.201  12.269  18.978  0.00  0.00    +0.000 A 
ATOM      5  C   UNL     1      -1.621  11.828  20.178  0.00  0.00    +0.000 A 
ATOM      6  C   UNL     1      -0.757  10.735  20.229  0.00  0.00    +0.000 A 
ATOM      7  C   UNL     1      -0.399  10.646  21.592  0.00  0.00    +0.000 A 
ATOM      8  N   UNL     1      -0.968  11.585  22.356  0.00  0.00    +0.000 NA
ATOM      9  N   UNL     1      -1.648  12.362  21.464  0.00  0.00    +0.000 N 
ATOM     10  C   UNL     1      -2.225  13.586  21.880  0.00  0.00    +0.000 C 
ATOM     11  O   UNL     1      -3.055  14.107  21.136  0.00  0.00    +0.000 OA
ENDROOT
BRANCH  10  12
ATOM     12  C   UNL     1      -1.834  14.325  23.107  0.00  0.00    +0.000 A 
ATOM     13  C   UNL     1      -0.776  15.252  23.078  0.00  0.00    +0.000 A 
ATOM     14 CL   UNL     1       0.099  15.675  21.643  0.00  0.00    +0.000 Cl
ATOM     15  C   UNL     1      -0.450  15.994  24.221  0.00  0.00    +0.000 A 
ATOM     16  C   UNL     1      -1.216  15.884  25.376  0.00  0.00    +0.000 A 
ATOM     17  C   UNL     1      -2.303  15.016  25.398  0.00  0.00    +0.000 A 
ATOM     18  C   UNL     1      -2.604  14.225  24.278  0.00  0.00    +0.000 A 
ATOM     19 CL   UNL     1      -3.947  13.146  24.448  0.00  0.00    +0.000 Cl
ENDBRANCH  10  12
BRANCH   1  22
ATOM     20  O   UNL     1       2.067   9.807  17.495  0.00  0.00    +0.000 OA
ATOM     21  C   UNL     1       1.693   8.952  18.295  0.00  0.00    +0.000 C 
ATOM     22  N   UNL     1       0.540   9.014  19.057  0.00  0.00    +0.000 N 
ATOM     23  H   UNL     1       0.432   8.289  19.760  0.00  0.00    +0.000 HD
BRANCH  21  24
ATOM     24  C   UNL     1       2.577   7.762  18.495  0.00  0.00    +0.000 A 
ATOM     25  C   UNL     1       3.467   7.456  17.445  0.00  0.00    +0.000 A 
ATOM     26  C   UNL     1       4.303   6.347  17.525  0.00  0.00    +0.000 A 
ATOM     27 CL   UNL     1       5.371   5.985  16.227  0.00  0.00    +0.000 Cl
ATOM     28  C   UNL     1       4.273   5.524  18.648  0.00  0.00    +0.000 A 
ATOM     29  C   UNL     1       3.406   5.818  19.702  0.00  0.00    +0.000 A 
ATOM     30  C   UNL     1       2.562   6.932  19.625  0.00  0.00    +0.000 A 
BRANCH  30  31
ATOM     31  O   UNL     1       1.723   7.194  20.680  0.00  0.00    +0.000 OA
ATOM     32  H   UNL     1       0.892   7.562  20.331  0.00  0.00    +0.000 HD
ENDBRANCH  30  31
ENDBRANCH  21  24
ENDBRANCH   1  22
TORSDOF 4
ENDMDL
MODEL 9
REMARK VINA RESULT:      -7.8      3.860      6.524
REMARK  Name = 
REMARK  4 active torsions:
REMARK  status: ('A' for Active; 'I' for Inactive)
REMARK    1  A    between atoms: C_2  and  C_23
REMARK    2  A    between atoms: N_3  and  C_4
REMARK    3  A    between atoms: C_13  and  C_15
REMARK    4  A    between atoms: C_29  and  O_30
REMARK                            x       y       z     vdW  Elec       q    Type
REMARK                         _______ _______ _______ _____ _____    ______ ____
ROOT
ATOM      1  C   UNL     1       1.697  10.280  18.299  0.00  0.00    +0.000 A 
ATOM      2  C   UNL     1       2.580  11.317  17.960  0.00  0.00    +0.000 A 
ATOM      3  C   UNL     1       2.246  12.654  18.148  0.00  0.00    +0.000 A 
ATOM      4  C   UNL     1       1.012  13.016  18.675  0.00  0.00    +0.000 A 
ATOM      5  C   UNL     1       0.099  11.988  18.962  0.00  0.00    +0.000 A 
ATOM      6  C   UNL     1       0.410  10.642  18.772  0.00  0.00    +0.000 A 
ATOM      7  C   UNL     1      -0.754   9.960  19.190  0.00  0.00    +0.000 A 
ATOM      8  N   UNL     1      -1.726  10.775  19.612  0.00  0.00    +0.000 NA
ATOM      9  N   UNL     1      -1.162  12.016  19.553  0.00  0.00    +0.000 N 
ATOM     10  C   UNL     1      -1.830  13.130  20.114  0.00  0.00    +0.000 C 
ATOM     11  O   UNL     1      -1.434  14.251  19.796  0.00  0.00    +0.000 OA
ENDROOT
BRANCH  10  12
ATOM     12  C   UNL     1      -2.915  13.039  21.124  0.00  0.00    +0.000 A 
ATOM     13  C   UNL     1      -4.247  12.826  20.727  0.00  0.00    +0.000 A 
ATOM     14 CL   UNL     1      -4.736  12.575  19.083  0.00  0.00    +0.000 Cl
ATOM     15  C   UNL     1      -5.259  12.678  21.684  0.00  0.00    +0.000 A 
ATOM     16  C   UNL     1      -4.951  12.660  23.039  0.00  0.00    +0.000 A 
ATOM     17  C   UNL     1      -3.628  12.808  23.444  0.00  0.00    +0.000 A 
ATOM     18  C   UNL     1      -2.614  13.015  22.496  0.00  0.00    +0.000 A 
ATOM     19 CL   UNL     1      -1.018  13.239  23.128  0.00  0.00    +0.000 Cl
ENDBRANCH  10  12
BRANCH   1  22
ATOM     20  O   UNL     1       1.928   8.290  20.442  0.00  0.00    +0.000 OA
ATOM     21  C   UNL     1       2.162   8.029  19.263  0.00  0.00    +0.000 C 
ATOM     22  N   UNL     1       2.060   8.917  18.208  0.00  0.00    +0.000 N 
ATOM     23  H   UNL     1       2.168   8.520  17.279  0.00  0.00    +0.000 HD
BRANCH  21  24
ATOM     24  C   UNL     1       2.549   6.622  18.933  0.00  0.00    +0.000 A 
ATOM     25  C   UNL     1       3.421   6.451  17.838  0.00  0.00    +0.000 A 
ATOM     26  C   UNL     1       3.807   5.177  17.433  0.00  0.00    +0.000 A 
ATOM     27 CL   UNL     1       4.861   4.991  16.088  0.00  0.00    +0.000 Cl
ATOM     28  C   UNL     1       3.338   4.053  18.108  0.00  0.00    +0.000 A 
ATOM     29  C   UNL     1       2.481   4.204  19.200  0.00  0.00    +0.000 A 
ATOM     30  C   UNL     1       2.090   5.483  19.610  0.00  0.00    +0.000 A 
BRANCH  30  31
ATOM     31  O   UNL     1       1.249   5.598  20.689  0.00  0.00    +0.000 OA
ATOM     32  H   UNL     1       1.487   4.915  21.341  0.00  0.00    +0.000 HD
ENDBRANCH  30  31
ENDBRANCH  21  24
ENDBRANCH   1  22
TORSDOF 4
ENDMDL
