MODEL 1
REMARK VINA RESULT:      -7.5      0.000      0.000
REMARK  Name = 
REMARK  3 active torsions:
REMARK  status: ('A' for Active; 'I' for Inactive)
REMARK    1  A    between atoms: C_1  and  N_2
REMARK    2  A    between atoms: C_7  and  C_9
REMARK    3  A    between atoms: C_14  and  C_15
REMARK                            x       y       z     vdW  Elec       q    Type
REMARK                         _______ _______ _______ _____ _____    ______ ____
ROOT
ATOM      1  C   UNL     1       3.899   4.315  18.187  0.00  0.00    +0.000 C 
ATOM      2  O   UNL     1       3.289   3.261  18.038  0.00  0.00    +0.000 OA
ATOM      3  N   UNL     1       5.180   4.551  17.716  0.00  0.00    +0.000 N 
ATOM      4  C   UNL     1       6.037   5.677  18.039  0.00  0.00    +0.000 C 
ATOM      5  C   UNL     1       6.730   5.973  16.725  0.00  0.00    +0.000 C 
ATOM      6  C   UNL     1       6.956   4.575  16.129  0.00  0.00    +0.000 C 
ATOM      7  C   UNL     1       5.758   3.754  16.641  0.00  0.00    +0.000 C 
ENDROOT
BRANCH   1  14
ATOM      8  C   UNL     1       0.914   9.721  20.973  0.00  0.00    +0.000 C 
ATOM      9  N   UNL     1       1.367   9.144  19.732  0.00  0.00    +0.000 N 
ATOM     10  C   UNL     1       1.372   9.719  18.497  0.00  0.00    +0.000 A 
ATOM     11  C   UNL     1       1.954   8.791  17.661  0.00  0.00    +0.000 A 
ATOM     12  C   UNL     1       2.261   7.677  18.488  0.00  0.00    +0.000 A 
ATOM     13  N   UNL     1       2.876   6.520  18.062  0.00  0.00    +0.000 N 
ATOM     14  C   UNL     1       3.189   5.473  18.904  0.00  0.00    +0.000 C 
ATOM     15  O   UNL     1       3.005   5.363  20.109  0.00  0.00    +0.000 OA
ATOM     16  N   UNL     1       1.868   7.905  19.740  0.00  0.00    +0.000 NA
ATOM     17  H   UNL     1       3.187   6.471  17.101  0.00  0.00    +0.000 HD
ENDBRANCH   1  14
BRANCH   6  18
ATOM     18  C   UNL     1       7.073   4.623  14.647  0.00  0.00    +0.000 A 
ATOM     19  C   UNL     1       6.417   3.987  13.610  0.00  0.00    +0.000 A 
ATOM     20  C   UNL     1       6.947   4.519  12.411  0.00  0.00    +0.000 A 
ATOM     21  C   UNL     1       7.894   5.441  12.788  0.00  0.00    +0.000 A 
ATOM     22  O   UNL     1       7.979   5.510  14.141  0.00  0.00    +0.000 OA
ENDBRANCH   6  18
TORSDOF 2
ENDMDL
MODEL 2
REMARK VINA RESULT:      -7.5      3.578      4.360
REMARK  Name = 
REMARK  3 active torsions:
REMARK  status: ('A' for Active; 'I' for Inactive)
REMARK    1  A    between atoms: C_1  and  N_2
REMARK    2  A    between atoms: C_7  and  C_9
REMARK    3  A    between atoms: C_14  and  C_15
REMARK                            x       y       z     vdW  Elec       q    Type
REMARK                         _______ _______ _______ _____ _____    ______ ____
ROOT
ATOM      1  C   UNL     1       7.001   4.426  17.178  0.00  0.00    +0.000 C 
ATOM      2  O   UNL     1       8.181   4.238  17.457  0.00  0.00    +0.000 OA
ATOM      3  N   UNL     1       6.540   4.764  15.916  0.00  0.00    +0.000 N 
ATOM      4  C   UNL     1       5.205   5.211  15.565  0.00  0.00    +0.000 C 
ATOM      5  C   UNL     1       4.958   4.545  14.227  0.00  0.00    +0.000 C 
ATOM      6  C   UNL     1       6.335   4.607  13.549  0.00  0.00    +0.000 C 
ATOM      7  C   UNL     1       7.330   4.508  14.719  0.00  0.00    +0.000 C 
ENDROOT
BRANCH   1  14
ATOM      8  C   UNL     1       2.059   3.406  21.699  0.00  0.00    +0.000 C 
ATOM      9  N   UNL     1       2.578   2.993  20.418  0.00  0.00    +0.000 N 
ATOM     10  C   UNL     1       2.023   2.113  19.538  0.00  0.00    +0.000 A 
ATOM     11  C   UNL     1       2.867   2.105  18.448  0.00  0.00    +0.000 A 
ATOM     12  C   UNL     1       3.913   3.010  18.770  0.00  0.00    +0.000 A 
ATOM     13  N   UNL     1       4.972   3.323  17.947  0.00  0.00    +0.000 N 
ATOM     14  C   UNL     1       5.951   4.234  18.283  0.00  0.00    +0.000 C 
ATOM     15  O   UNL     1       6.073   4.905  19.300  0.00  0.00    +0.000 OA
ATOM     16  N   UNL     1       3.730   3.517  19.988  0.00  0.00    +0.000 NA
ATOM     17  H   UNL     1       4.987   2.926  17.017  0.00  0.00    +0.000 HD
ENDBRANCH   1  14
BRANCH   6  18
ATOM     18  C   UNL     1       6.491   3.539  12.524  0.00  0.00    +0.000 A 
ATOM     19  C   UNL     1       7.555   3.074  11.776  0.00  0.00    +0.000 A 
ATOM     20  C   UNL     1       7.070   1.979  11.022  0.00  0.00    +0.000 A 
ATOM     21  C   UNL     1       5.742   1.846  11.353  0.00  0.00    +0.000 A 
ATOM     22  O   UNL     1       5.382   2.788  12.262  0.00  0.00    +0.000 OA
ENDBRANCH   6  18
TORSDOF 2
ENDMDL
MODEL 3
REMARK VINA RESULT:      -7.4      3.885      6.038
REMARK  Name = 
REMARK  3 active torsions:
REMARK  status: ('A' for Active; 'I' for Inactive)
REMARK    1  A    between atoms: C_1  and  N_2
REMARK    2  A    between atoms: C_7  and  C_9
REMARK    3  A    between atoms: C_14  and  C_15
REMARK                            x       y       z     vdW  Elec       q    Type
REMARK                         _______ _______ _______ _____ _____    ______ ____
ROOT
ATOM      1  C   UNL     1       6.987   6.036  17.018  0.00  0.00    +0.000 C 
ATOM      2  O   UNL     1       7.685   5.272  16.358  0.00  0.00    +0.000 OA
ATOM      3  N   UNL     1       5.603   5.993  17.059  0.00  0.00    +0.000 N 
ATOM      4  C   UNL     1       4.714   6.986  17.632  0.00  0.00    +0.000 C 
ATOM      5  C   UNL     1       3.620   6.148  18.262  0.00  0.00    +0.000 C 
ATOM      6  C   UNL     1       3.453   4.990  17.265  0.00  0.00    +0.000 C 
ATOM      7  C   UNL     1       4.865   4.794  16.684  0.00  0.00    +0.000 C 
ENDROOT
BRANCH   1  14
ATOM      8  C   UNL     1      10.113  10.954  20.475  0.00  0.00    +0.000 C 
ATOM      9  N   UNL     1       9.326  10.666  19.301  0.00  0.00    +0.000 N 
ATOM     10  C   UNL     1       8.981  11.521  18.297  0.00  0.00    +0.000 A 
ATOM     11  C   UNL     1       8.284  10.756  17.387  0.00  0.00    +0.000 A 
ATOM     12  C   UNL     1       8.251   9.447  17.938  0.00  0.00    +0.000 A 
ATOM     13  N   UNL     1       7.664   8.351  17.344  0.00  0.00    +0.000 N 
ATOM     14  C   UNL     1       7.684   7.087  17.895  0.00  0.00    +0.000 C 
ATOM     15  O   UNL     1       8.189   6.704  18.942  0.00  0.00    +0.000 OA
ATOM     16  N   UNL     1       8.868   9.424  19.118  0.00  0.00    +0.000 NA
ATOM     17  H   UNL     1       7.271   8.464  16.419  0.00  0.00    +0.000 HD
ENDBRANCH   1  14
BRANCH   6  18
ATOM     18  C   UNL     1       2.889   3.779  17.920  0.00  0.00    +0.000 A 
ATOM     19  C   UNL     1       1.618   3.399  18.304  0.00  0.00    +0.000 A 
ATOM     20  C   UNL     1       1.728   2.085  18.817  0.00  0.00    +0.000 A 
ATOM     21  C   UNL     1       3.057   1.746  18.719  0.00  0.00    +0.000 A 
ATOM     22  O   UNL     1       3.768   2.767  18.178  0.00  0.00    +0.000 OA
ENDBRANCH   6  18
TORSDOF 2
ENDMDL
MODEL 4
REMARK VINA RESULT:      -7.4      4.315      6.192
REMARK  Name = 
REMARK  3 active torsions:
REMARK  status: ('A' for Active; 'I' for Inactive)
REMARK    1  A    between atoms: C_1  and  N_2
REMARK    2  A    between atoms: C_7  and  C_9
REMARK    3  A    between atoms: C_14  and  C_15
REMARK                            x       y       z     vdW  Elec       q    Type
REMARK                         _______ _______ _______ _____ _____    ______ ____
ROOT
ATOM      1  C   UNL     1       7.679   6.277  18.398  0.00  0.00    +0.000 C 
ATOM      2  O   UNL     1       8.168   5.809  19.422  0.00  0.00    +0.000 OA
ATOM      3  N   UNL     1       6.867   5.571  17.525  0.00  0.00    +0.000 N 
ATOM      4  C   UNL     1       6.439   5.984  16.202  0.00  0.00    +0.000 C 
ATOM      5  C   UNL     1       5.011   5.483  16.129  0.00  0.00    +0.000 C 
ATOM      6  C   UNL     1       5.074   4.143  16.878  0.00  0.00    +0.000 C 
ATOM      7  C   UNL     1       6.165   4.363  17.942  0.00  0.00    +0.000 C 
ENDROOT
BRANCH   1  14
ATOM      8  C   UNL     1       8.915  12.872  17.461  0.00  0.00    +0.000 C 
ATOM      9  N   UNL     1       9.164  11.746  18.327  0.00  0.00    +0.000 N 
ATOM     10  C   UNL     1       9.825  11.739  19.518  0.00  0.00    +0.000 A 
ATOM     11  C   UNL     1       9.740  10.442  19.977  0.00  0.00    +0.000 A 
ATOM     12  C   UNL     1       9.013   9.735  18.983  0.00  0.00    +0.000 A 
ATOM     13  N   UNL     1       8.679   8.399  19.045  0.00  0.00    +0.000 N 
ATOM     14  C   UNL     1       7.940   7.755  18.074  0.00  0.00    +0.000 C 
ATOM     15  O   UNL     1       7.462   8.200  17.039  0.00  0.00    +0.000 OA
ATOM     16  N   UNL     1       8.697  10.544  17.974  0.00  0.00    +0.000 NA
ATOM     17  H   UNL     1       8.918   7.886  19.883  0.00  0.00    +0.000 HD
ENDBRANCH   1  14
BRANCH   6  18
ATOM     18  C   UNL     1       3.748   3.762  17.434  0.00  0.00    +0.000 A 
ATOM     19  C   UNL     1       2.575   4.450  17.677  0.00  0.00    +0.000 A 
ATOM     20  C   UNL     1       1.642   3.500  18.156  0.00  0.00    +0.000 A 
ATOM     21  C   UNL     1       2.302   2.294  18.179  0.00  0.00    +0.000 A 
ATOM     22  O   UNL     1       3.580   2.443  17.745  0.00  0.00    +0.000 OA
ENDBRANCH   6  18
TORSDOF 2
ENDMDL
MODEL 5
REMARK VINA RESULT:      -7.2      1.348      1.858
REMARK  Name = 
REMARK  3 active torsions:
REMARK  status: ('A' for Active; 'I' for Inactive)
REMARK    1  A    between atoms: C_1  and  N_2
REMARK    2  A    between atoms: C_7  and  C_9
REMARK    3  A    between atoms: C_14  and  C_15
REMARK                            x       y       z     vdW  Elec       q    Type
REMARK                         _______ _______ _______ _____ _____    ______ ____
ROOT
ATOM      1  C   UNL     1       3.022   5.643  17.943  0.00  0.00    +0.000 C 
ATOM      2  O   UNL     1       2.221   4.715  17.873  0.00  0.00    +0.000 OA
ATOM      3  N   UNL     1       4.371   5.536  17.649  0.00  0.00    +0.000 N 
ATOM      4  C   UNL     1       5.404   6.519  17.917  0.00  0.00    +0.000 C 
ATOM      5  C   UNL     1       6.299   6.420  16.699  0.00  0.00    +0.000 C 
ATOM      6  C   UNL     1       6.290   4.916  16.382  0.00  0.00    +0.000 C 
ATOM      7  C   UNL     1       4.890   4.452  16.824  0.00  0.00    +0.000 C 
ENDROOT
BRANCH   1  14
ATOM      8  C   UNL     1       0.473  11.544  20.084  0.00  0.00    +0.000 C 
ATOM      9  N   UNL     1       0.861  10.218  20.497  0.00  0.00    +0.000 N 
ATOM     10  C   UNL     1       0.712   9.649  21.726  0.00  0.00    +0.000 A 
ATOM     11  C   UNL     1       1.182   8.360  21.593  0.00  0.00    +0.000 A 
ATOM     12  C   UNL     1       1.604   8.248  20.242  0.00  0.00    +0.000 A 
ATOM     13  N   UNL     1       2.129   7.110  19.668  0.00  0.00    +0.000 N 
ATOM     14  C   UNL     1       2.496   7.030  18.341  0.00  0.00    +0.000 C 
ATOM     15  O   UNL     1       2.435   7.883  17.464  0.00  0.00    +0.000 OA
ATOM     16  N   UNL     1       1.425   9.401  19.601  0.00  0.00    +0.000 NA
ATOM     17  H   UNL     1       2.169   6.269  20.227  0.00  0.00    +0.000 HD
ENDBRANCH   1  14
BRANCH   6  18
ATOM     18  C   UNL     1       6.594   4.656  14.949  0.00  0.00    +0.000 A 
ATOM     19  C   UNL     1       6.025   3.858  13.976  0.00  0.00    +0.000 A 
ATOM     20  C   UNL     1       6.740   4.106  12.781  0.00  0.00    +0.000 A 
ATOM     21  C   UNL     1       7.702   5.036  13.098  0.00  0.00    +0.000 A 
ATOM     22  O   UNL     1       7.622   5.374  14.410  0.00  0.00    +0.000 OA
ENDBRANCH   6  18
TORSDOF 2
ENDMDL
MODEL 6
REMARK VINA RESULT:      -7.2      4.365      6.688
REMARK  Name = 
REMARK  3 active torsions:
REMARK  status: ('A' for Active; 'I' for Inactive)
REMARK    1  A    between atoms: C_1  and  N_2
REMARK    2  A    between atoms: C_7  and  C_9
REMARK    3  A    between atoms: C_14  and  C_15
REMARK                            x       y       z     vdW  Elec       q    Type
REMARK                         _______ _______ _______ _____ _____    ______ ____
ROOT
ATOM      1  C   UNL     1       7.553   6.401  18.383  0.00  0.00    +0.000 C 
ATOM      2  O   UNL     1       8.261   5.727  19.126  0.00  0.00    +0.000 OA
ATOM      3  N   UNL     1       6.354   5.969  17.841  0.00  0.00    +0.000 N 
ATOM      4  C   UNL     1       5.584   6.617  16.796  0.00  0.00    +0.000 C 
ATOM      5  C   UNL     1       4.150   6.396  17.235  0.00  0.00    +0.000 C 
ATOM      6  C   UNL     1       4.186   4.982  17.837  0.00  0.00    +0.000 C 
ATOM      7  C   UNL     1       5.603   4.866  18.428  0.00  0.00    +0.000 C 
ENDROOT
BRANCH   1  14
ATOM      8  C   UNL     1       9.492  12.827  17.455  0.00  0.00    +0.000 C 
ATOM      9  N   UNL     1       9.479  11.731  18.394  0.00  0.00    +0.000 N 
ATOM     10  C   UNL     1       9.902  11.737  19.689  0.00  0.00    +0.000 A 
ATOM     11  C   UNL     1       9.625  10.476  20.171  0.00  0.00    +0.000 A 
ATOM     12  C   UNL     1       9.040   9.774  19.084  0.00  0.00    +0.000 A 
ATOM     13  N   UNL     1       8.589   8.473  19.130  0.00  0.00    +0.000 N 
ATOM     14  C   UNL     1       7.994   7.837  18.061  0.00  0.00    +0.000 C 
ATOM     15  O   UNL     1       7.757   8.262  16.938  0.00  0.00    +0.000 OA
ATOM     16  N   UNL     1       8.987  10.551  18.003  0.00  0.00    +0.000 NA
ATOM     17  H   UNL     1       8.623   7.989  20.017  0.00  0.00    +0.000 HD
ENDBRANCH   1  14
BRANCH   6  18
ATOM     18  C   UNL     1       3.095   4.780  18.827  0.00  0.00    +0.000 A 
ATOM     19  C   UNL     1       1.867   4.148  18.788  0.00  0.00    +0.000 A 
ATOM     20  C   UNL     1       1.321   4.246  20.090  0.00  0.00    +0.000 A 
ATOM     21  C   UNL     1       2.245   4.934  20.841  0.00  0.00    +0.000 A 
ATOM     22  O   UNL     1       3.322   5.263  20.084  0.00  0.00    +0.000 OA
ENDBRANCH   6  18
TORSDOF 2
ENDMDL
MODEL 7
REMARK VINA RESULT:      -7.0      1.089      1.207
REMARK  Name = 
REMARK  3 active torsions:
REMARK  status: ('A' for Active; 'I' for Inactive)
REMARK    1  A    between atoms: C_1  and  N_2
REMARK    2  A    between atoms: C_7  and  C_9
REMARK    3  A    between atoms: C_14  and  C_15
REMARK                            x       y       z     vdW  Elec       q    Type
REMARK                         _______ _______ _______ _____ _____    ______ ____
ROOT
ATOM      1  C   UNL     1       3.335   4.261  19.305  0.00  0.00    +0.000 C 
ATOM      2  O   UNL     1       2.702   3.218  19.173  0.00  0.00    +0.000 OA
ATOM      3  N   UNL     1       4.628   4.455  18.848  0.00  0.00    +0.000 N 
ATOM      4  C   UNL     1       5.506   5.568  19.156  0.00  0.00    +0.000 C 
ATOM      5  C   UNL     1       6.225   5.814  17.845  0.00  0.00    +0.000 C 
ATOM      6  C   UNL     1       6.428   4.395  17.289  0.00  0.00    +0.000 C 
ATOM      7  C   UNL     1       5.203   3.617  17.803  0.00  0.00    +0.000 C 
ENDROOT
BRANCH   1  14
ATOM      8  C   UNL     1       0.471   9.815  21.925  0.00  0.00    +0.000 C 
ATOM      9  N   UNL     1       0.989   9.223  20.715  0.00  0.00    +0.000 N 
ATOM     10  C   UNL     1       1.130   9.811  19.494  0.00  0.00    +0.000 A 
ATOM     11  C   UNL     1       1.721   8.856  18.694  0.00  0.00    +0.000 A 
ATOM     12  C   UNL     1       1.889   7.717  19.525  0.00  0.00    +0.000 A 
ATOM     13  N   UNL     1       2.464   6.528  19.132  0.00  0.00    +0.000 N 
ATOM     14  C   UNL     1       2.641   5.454  19.980  0.00  0.00    +0.000 C 
ATOM     15  O   UNL     1       2.352   5.342  21.164  0.00  0.00    +0.000 OA
ATOM     16  N   UNL     1       1.409   7.955  20.744  0.00  0.00    +0.000 NA
ATOM     17  H   UNL     1       2.849   6.469  18.199  0.00  0.00    +0.000 HD
ENDBRANCH   1  14
BRANCH   6  18
ATOM     18  C   UNL     1       6.569   4.401  15.808  0.00  0.00    +0.000 A 
ATOM     19  C   UNL     1       5.934   3.731  14.781  0.00  0.00    +0.000 A 
ATOM     20  C   UNL     1       6.480   4.232  13.574  0.00  0.00    +0.000 A 
ATOM     21  C   UNL     1       7.414   5.173  13.940  0.00  0.00    +0.000 A 
ATOM     22  O   UNL     1       7.476   5.281  15.291  0.00  0.00    +0.000 OA
ENDBRANCH   6  18
TORSDOF 2
ENDMDL
MODEL 8
REMARK VINA RESULT:      -6.8      2.866      7.648
REMARK  Name = 
REMARK  3 active torsions:
REMARK  status: ('A' for Active; 'I' for Inactive)
REMARK    1  A    between atoms: C_1  and  N_2
REMARK    2  A    between atoms: C_7  and  C_9
REMARK    3  A    between atoms: C_14  and  C_15
REMARK                            x       y       z     vdW  Elec       q    Type
REMARK                         _______ _______ _______ _____ _____    ______ ____
ROOT
ATOM      1  C   UNL     1       5.537   6.002  15.983  0.00  0.00    +0.000 C 
ATOM      2  O   UNL     1       5.144   7.126  15.685  0.00  0.00    +0.000 OA
ATOM      3  N   UNL     1       5.451   5.454  17.252  0.00  0.00    +0.000 N 
ATOM      4  C   UNL     1       6.084   4.235  17.722  0.00  0.00    +0.000 C 
ATOM      5  C   UNL     1       5.035   3.629  18.632  0.00  0.00    +0.000 C 
ATOM      6  C   UNL     1       4.413   4.860  19.311  0.00  0.00    +0.000 C 
ATOM      7  C   UNL     1       4.513   5.964  18.243  0.00  0.00    +0.000 C 
ENDROOT
BRANCH   1  14
ATOM      8  C   UNL     1       7.677   1.891  11.040  0.00  0.00    +0.000 C 
ATOM      9  N   UNL     1       6.520   2.541  11.604  0.00  0.00    +0.000 N 
ATOM     10  C   UNL     1       5.218   2.402  11.225  0.00  0.00    +0.000 A 
ATOM     11  C   UNL     1       4.495   3.180  12.104  0.00  0.00    +0.000 A 
ATOM     12  C   UNL     1       5.456   3.760  12.975  0.00  0.00    +0.000 A 
ATOM     13  N   UNL     1       5.166   4.602  14.027  0.00  0.00    +0.000 N 
ATOM     14  C   UNL     1       6.125   5.118  14.873  0.00  0.00    +0.000 C 
ATOM     15  O   UNL     1       7.337   4.947  14.869  0.00  0.00    +0.000 OA
ATOM     16  N   UNL     1       6.685   3.378  12.632  0.00  0.00    +0.000 NA
ATOM     17  H   UNL     1       4.194   4.783  14.238  0.00  0.00    +0.000 HD
ENDBRANCH   1  14
BRANCH   6  18
ATOM     18  C   UNL     1       3.026   4.587  19.777  0.00  0.00    +0.000 A 
ATOM     19  C   UNL     1       2.116   5.286  20.545  0.00  0.00    +0.000 A 
ATOM     20  C   UNL     1       0.931   4.513  20.571  0.00  0.00    +0.000 A 
ATOM     21  C   UNL     1       1.192   3.390  19.821  0.00  0.00    +0.000 A 
ATOM     22  O   UNL     1       2.459   3.425  19.337  0.00  0.00    +0.000 OA
ENDBRANCH   6  18
TORSDOF 2
ENDMDL
MODEL 9
REMARK VINA RESULT:      -6.8      4.078      6.561
REMARK  Name = 
REMARK  3 active torsions:
REMARK  status: ('A' for Active; 'I' for Inactive)
REMARK    1  A    between atoms: C_1  and  N_2
REMARK    2  A    between atoms: C_7  and  C_9
REMARK    3  A    between atoms: C_14  and  C_15
REMARK                            x       y       z     vdW  Elec       q    Type
REMARK                         _______ _______ _______ _____ _____    ______ ____
ROOT
ATOM      1  C   UNL     1       7.261   6.002  18.124  0.00  0.00    +0.000 C 
ATOM      2  O   UNL     1       8.160   5.359  18.657  0.00  0.00    +0.000 OA
ATOM      3  N   UNL     1       6.018   5.486  17.796  0.00  0.00    +0.000 N 
ATOM      4  C   UNL     1       4.999   6.115  16.977  0.00  0.00    +0.000 C 
ATOM      5  C   UNL     1       3.709   5.725  17.670  0.00  0.00    +0.000 C 
ATOM      6  C   UNL     1       3.988   4.288  18.139  0.00  0.00    +0.000 C 
ATOM      7  C   UNL     1       5.500   4.279  18.428  0.00  0.00    +0.000 C 
ENDROOT
BRANCH   1  14
ATOM      8  C   UNL     1       8.480  12.620  17.332  0.00  0.00    +0.000 C 
ATOM      9  N   UNL     1       8.833  11.447  18.094  0.00  0.00    +0.000 N 
ATOM     10  C   UNL     1       9.667  11.370  19.168  0.00  0.00    +0.000 A 
ATOM     11  C   UNL     1       9.625  10.053  19.571  0.00  0.00    +0.000 A 
ATOM     12  C   UNL     1       8.741   9.407  18.667  0.00  0.00    +0.000 A 
ATOM     13  N   UNL     1       8.392   8.075  18.714  0.00  0.00    +0.000 N 
ATOM     14  C   UNL     1       7.502   7.492  17.837  0.00  0.00    +0.000 C 
ATOM     15  O   UNL     1       6.881   7.996  16.910  0.00  0.00    +0.000 OA
ATOM     16  N   UNL     1       8.293  10.271  17.758  0.00  0.00    +0.000 NA
ATOM     17  H   UNL     1       8.744   7.517  19.480  0.00  0.00    +0.000 HD
ENDBRANCH   1  14
BRANCH   6  18
ATOM     18  C   UNL     1       3.142   3.918  19.305  0.00  0.00    +0.000 A 
ATOM     19  C   UNL     1       2.639   4.615  20.387  0.00  0.00    +0.000 A 
ATOM     20  C   UNL     1       1.838   3.705  21.116  0.00  0.00    +0.000 A 
ATOM     21  C   UNL     1       1.904   2.510  20.439  0.00  0.00    +0.000 A 
ATOM     22  O   UNL     1       2.693   2.629  19.341  0.00  0.00    +0.000 OA
ENDBRANCH   6  18
TORSDOF 2
ENDMDL
