MODEL 1
REMARK VINA RESULT:      -7.6      0.000      0.000
REMARK  Name = 
REMARK  5 active torsions:
REMARK  status: ('A' for Active; 'I' for Inactive)
REMARK    1  A    between atoms: C_5  and  O_6
REMARK    2  A    between atoms: O_6  and  C_7
REMARK    3  A    between atoms: C_7  and  C_8
REMARK    4  A    between atoms: C_8  and  S_9
REMARK    5  A    between atoms: S_9  and  C_10
REMARK                            x       y       z     vdW  Elec       q    Type
REMARK                         _______ _______ _______ _____ _____    ______ ____
ROOT
ATOM      1 CL   UNL     1       1.235   2.674  21.716  0.00  0.00    +0.000 Cl
ATOM      2  C   UNL     1       1.860   3.084  20.150  0.00  0.00    +0.000 A 
ATOM      3  C   UNL     1       2.139   2.021  19.294  0.00  0.00    +0.000 A 
ATOM      4  C   UNL     1       2.640   2.260  18.016  0.00  0.00    +0.000 A 
ATOM      5  C   UNL     1       2.867   3.568  17.575  0.00  0.00    +0.000 A 
ATOM      6  C   UNL     1       2.585   4.663  18.440  0.00  0.00    +0.000 A 
ATOM      7  C   UNL     1       2.794   6.004  18.043  0.00  0.00    +0.000 A 
ATOM      8  C   UNL     1       2.523   7.077  18.894  0.00  0.00    +0.000 A 
ATOM      9  C   UNL     1       2.033   6.842  20.168  0.00  0.00    +0.000 A 
ATOM     10  C   UNL     1       1.812   5.531  20.590  0.00  0.00    +0.000 A 
ATOM     11  C   UNL     1       2.077   4.422  19.749  0.00  0.00    +0.000 A 
ENDROOT
BRANCH   5  12
ATOM     12  O   UNL     1       3.361   3.876  16.320  0.00  0.00    +0.000 OA
BRANCH  12  13
ATOM     13  C   UNL     1       4.788   3.863  16.162  0.00  0.00    +0.000 C 
BRANCH  13  14
ATOM     14  C   UNL     1       5.202   4.593  14.877  0.00  0.00    +0.000 C 
BRANCH  14  15
ATOM     15  S   UNL     1       7.026   4.697  14.863  0.00  0.00    +0.000 S 
BRANCH  15  16
ATOM     16  C   UNL     1       7.391   5.475  16.417  0.00  0.00    +0.000 A 
ATOM     17  N   UNL     1       7.375   6.812  16.527  0.00  0.00    +0.000 NA
ATOM     18  C   UNL     1       7.662   7.308  17.750  0.00  0.00    +0.000 A 
ATOM     19  C   UNL     1       7.959   6.530  18.845  0.00  0.00    +0.000 A 
ATOM     20  C   UNL     1       7.951   5.176  18.625  0.00  0.00    +0.000 A 
ATOM     21  N   UNL     1       7.671   4.628  17.427  0.00  0.00    +0.000 NA
ENDBRANCH  15  16
ENDBRANCH  14  15
ENDBRANCH  13  14
ENDBRANCH  12  13
ENDBRANCH   5  12
TORSDOF 5
ENDMDL
MODEL 2
REMARK VINA RESULT:      -7.5      0.550      1.166
REMARK  Name = 
REMARK  5 active torsions:
REMARK  status: ('A' for Active; 'I' for Inactive)
REMARK    1  A    between atoms: C_5  and  O_6
REMARK    2  A    between atoms: O_6  and  C_7
REMARK    3  A    between atoms: C_7  and  C_8
REMARK    4  A    between atoms: C_8  and  S_9
REMARK    5  A    between atoms: S_9  and  C_10
REMARK                            x       y       z     vdW  Elec       q    Type
REMARK                         _______ _______ _______ _____ _____    ______ ____
ROOT
ATOM      1 CL   UNL     1       1.466   2.787  21.736  0.00  0.00    +0.000 Cl
ATOM      2  C   UNL     1       2.165   3.427  20.283  0.00  0.00    +0.000 A 
ATOM      3  C   UNL     1       2.710   2.502  19.395  0.00  0.00    +0.000 A 
ATOM      4  C   UNL     1       3.289   2.929  18.202  0.00  0.00    +0.000 A 
ATOM      5  C   UNL     1       3.327   4.290  17.878  0.00  0.00    +0.000 A 
ATOM      6  C   UNL     1       2.773   5.245  18.776  0.00  0.00    +0.000 A 
ATOM      7  C   UNL     1       2.783   6.631  18.496  0.00  0.00    +0.000 A 
ATOM      8  C   UNL     1       2.245   7.567  19.380  0.00  0.00    +0.000 A 
ATOM      9  C   UNL     1       1.676   7.146  20.571  0.00  0.00    +0.000 A 
ATOM     10  C   UNL     1       1.647   5.785  20.877  0.00  0.00    +0.000 A 
ATOM     11  C   UNL     1       2.184   4.812  19.999  0.00  0.00    +0.000 A 
ENDROOT
BRANCH   5  12
ATOM     12  O   UNL     1       3.885   4.782  16.711  0.00  0.00    +0.000 OA
BRANCH  12  13
ATOM     13  C   UNL     1       4.747   3.898  15.979  0.00  0.00    +0.000 C 
BRANCH  13  14
ATOM     14  C   UNL     1       5.270   4.576  14.705  0.00  0.00    +0.000 C 
BRANCH  14  15
ATOM     15  S   UNL     1       7.095   4.591  14.797  0.00  0.00    +0.000 S 
BRANCH  15  16
ATOM     16  C   UNL     1       7.406   5.320  16.386  0.00  0.00    +0.000 A 
ATOM     17  N   UNL     1       7.707   4.547  17.440  0.00  0.00    +0.000 NA
ATOM     18  C   UNL     1       7.930   5.195  18.604  0.00  0.00    +0.000 A 
ATOM     19  C   UNL     1       7.865   6.561  18.748  0.00  0.00    +0.000 A 
ATOM     20  C   UNL     1       7.548   7.259  17.610  0.00  0.00    +0.000 A 
ATOM     21  N   UNL     1       7.316   6.664  16.425  0.00  0.00    +0.000 NA
ENDBRANCH  15  16
ENDBRANCH  14  15
ENDBRANCH  13  14
ENDBRANCH  12  13
ENDBRANCH   5  12
TORSDOF 5
ENDMDL
MODEL 3
REMARK VINA RESULT:      -6.9      4.752      7.019
REMARK  Name = 
REMARK  5 active torsions:
REMARK  status: ('A' for Active; 'I' for Inactive)
REMARK    1  A    between atoms: C_5  and  O_6
REMARK    2  A    between atoms: O_6  and  C_7
REMARK    3  A    between atoms: C_7  and  C_8
REMARK    4  A    between atoms: C_8  and  S_9
REMARK    5  A    between atoms: S_9  and  C_10
REMARK                            x       y       z     vdW  Elec       q    Type
REMARK                         _______ _______ _______ _____ _____    ______ ____
ROOT
ATOM      1 CL   UNL     1       3.492   1.770  18.199  0.00  0.00    +0.000 Cl
ATOM      2  C   UNL     1       3.213   3.453  18.519  0.00  0.00    +0.000 A 
ATOM      3  C   UNL     1       2.355   3.750  19.576  0.00  0.00    +0.000 A 
ATOM      4  C   UNL     1       2.077   5.076  19.904  0.00  0.00    +0.000 A 
ATOM      5  C   UNL     1       2.658   6.124  19.181  0.00  0.00    +0.000 A 
ATOM      6  C   UNL     1       3.537   5.832  18.100  0.00  0.00    +0.000 A 
ATOM      7  C   UNL     1       4.152   6.853  17.339  0.00  0.00    +0.000 A 
ATOM      8  C   UNL     1       5.009   6.567  16.275  0.00  0.00    +0.000 A 
ATOM      9  C   UNL     1       5.279   5.250  15.940  0.00  0.00    +0.000 A 
ATOM     10  C   UNL     1       4.692   4.218  16.673  0.00  0.00    +0.000 A 
ATOM     11  C   UNL     1       3.819   4.478  17.759  0.00  0.00    +0.000 A 
ENDROOT
BRANCH   5  12
ATOM     12  O   UNL     1       2.427   7.460  19.454  0.00  0.00    +0.000 OA
BRANCH  12  13
ATOM     13  C   UNL     1       1.541   7.757  20.544  0.00  0.00    +0.000 C 
BRANCH  13  14
ATOM     14  C   UNL     1       1.043   9.207  20.462  0.00  0.00    +0.000 C 
BRANCH  14  15
ATOM     15  S   UNL     1       1.114   9.719  18.710  0.00  0.00    +0.000 S 
BRANCH  15  16
ATOM     16  C   UNL     1      -0.505  10.392  18.427  0.00  0.00    +0.000 A 
ATOM     17  N   UNL     1      -0.946  11.428  19.156  0.00  0.00    +0.000 NA
ATOM     18  C   UNL     1      -2.188  11.871  18.864  0.00  0.00    +0.000 A 
ATOM     19  C   UNL     1      -2.989  11.325  17.888  0.00  0.00    +0.000 A 
ATOM     20  C   UNL     1      -2.444  10.269  17.202  0.00  0.00    +0.000 A 
ATOM     21  N   UNL     1      -1.211   9.788  17.452  0.00  0.00    +0.000 NA
ENDBRANCH  15  16
ENDBRANCH  14  15
ENDBRANCH  13  14
ENDBRANCH  12  13
ENDBRANCH   5  12
TORSDOF 5
ENDMDL
MODEL 4
REMARK VINA RESULT:      -6.8      1.002      1.006
REMARK  Name = 
REMARK  5 active torsions:
REMARK  status: ('A' for Active; 'I' for Inactive)
REMARK    1  A    between atoms: C_5  and  O_6
REMARK    2  A    between atoms: O_6  and  C_7
REMARK    3  A    between atoms: C_7  and  C_8
REMARK    4  A    between atoms: C_8  and  S_9
REMARK    5  A    between atoms: S_9  and  C_10
REMARK                            x       y       z     vdW  Elec       q    Type
REMARK                         _______ _______ _______ _____ _____    ______ ____
ROOT
ATOM      1 CL   UNL     1       2.132   2.463  21.901  0.00  0.00    +0.000 Cl
ATOM      2  C   UNL     1       2.642   2.936  20.311  0.00  0.00    +0.000 A 
ATOM      3  C   UNL     1       3.136   1.924  19.491  0.00  0.00    +0.000 A 
ATOM      4  C   UNL     1       3.565   2.214  18.197  0.00  0.00    +0.000 A 
ATOM      5  C   UNL     1       3.503   3.523  17.705  0.00  0.00    +0.000 A 
ATOM      6  C   UNL     1       2.999   4.565  18.533  0.00  0.00    +0.000 A 
ATOM      7  C   UNL     1       2.912   5.902  18.084  0.00  0.00    +0.000 A 
ATOM      8  C   UNL     1       2.423   6.925  18.899  0.00  0.00    +0.000 A 
ATOM      9  C   UNL     1       2.004   6.641  20.188  0.00  0.00    +0.000 A 
ATOM     10  C   UNL     1       2.074   5.330  20.662  0.00  0.00    +0.000 A 
ATOM     11  C   UNL     1       2.564   4.272  19.857  0.00  0.00    +0.000 A 
ENDROOT
BRANCH   5  12
ATOM     12  O   UNL     1       3.911   3.880  16.432  0.00  0.00    +0.000 OA
BRANCH  12  13
ATOM     13  C   UNL     1       5.295   3.680  16.113  0.00  0.00    +0.000 C 
BRANCH  13  14
ATOM     14  C   UNL     1       5.790   4.753  15.133  0.00  0.00    +0.000 C 
BRANCH  14  15
ATOM     15  S   UNL     1       5.263   6.378  15.779  0.00  0.00    +0.000 S 
BRANCH  15  16
ATOM     16  C   UNL     1       6.501   6.740  17.000  0.00  0.00    +0.000 A 
ATOM     17  N   UNL     1       7.152   7.913  16.979  0.00  0.00    +0.000 NA
ATOM     18  C   UNL     1       8.073   8.096  17.950  0.00  0.00    +0.000 A 
ATOM     19  C   UNL     1       8.358   7.166  18.923  0.00  0.00    +0.000 A 
ATOM     20  C   UNL     1       7.638   6.001  18.854  0.00  0.00    +0.000 A 
ATOM     21  N   UNL     1       6.709   5.766  17.907  0.00  0.00    +0.000 NA
ENDBRANCH  15  16
ENDBRANCH  14  15
ENDBRANCH  13  14
ENDBRANCH  12  13
ENDBRANCH   5  12
TORSDOF 5
ENDMDL
MODEL 5
REMARK VINA RESULT:      -6.8      4.923      7.215
REMARK  Name = 
REMARK  5 active torsions:
REMARK  status: ('A' for Active; 'I' for Inactive)
REMARK    1  A    between atoms: C_5  and  O_6
REMARK    2  A    between atoms: O_6  and  C_7
REMARK    3  A    between atoms: C_7  and  C_8
REMARK    4  A    between atoms: C_8  and  S_9
REMARK    5  A    between atoms: S_9  and  C_10
REMARK                            x       y       z     vdW  Elec       q    Type
REMARK                         _______ _______ _______ _____ _____    ______ ____
ROOT
ATOM      1 CL   UNL     1       3.952   2.191  19.583  0.00  0.00    +0.000 Cl
ATOM      2  C   UNL     1       3.407   3.838  19.541  0.00  0.00    +0.000 A 
ATOM      3  C   UNL     1       2.498   4.217  20.527  0.00  0.00    +0.000 A 
ATOM      4  C   UNL     1       2.010   5.521  20.570  0.00  0.00    +0.000 A 
ATOM      5  C   UNL     1       2.429   6.468  19.628  0.00  0.00    +0.000 A 
ATOM      6  C   UNL     1       3.358   6.093  18.617  0.00  0.00    +0.000 A 
ATOM      7  C   UNL     1       3.814   7.010  17.642  0.00  0.00    +0.000 A 
ATOM      8  C   UNL     1       4.721   6.641  16.647  0.00  0.00    +0.000 A 
ATOM      9  C   UNL     1       5.200   5.343  16.596  0.00  0.00    +0.000 A 
ATOM     10  C   UNL     1       4.772   4.412  17.545  0.00  0.00    +0.000 A 
ATOM     11  C   UNL     1       3.854   4.759  18.567  0.00  0.00    +0.000 A 
ENDROOT
BRANCH   5  12
ATOM     12  O   UNL     1       1.986   7.778  19.614  0.00  0.00    +0.000 OA
BRANCH  12  13
ATOM     13  C   UNL     1       1.343   8.260  20.802  0.00  0.00    +0.000 C 
BRANCH  13  14
ATOM     14  C   UNL     1       0.686   9.625  20.553  0.00  0.00    +0.000 C 
BRANCH  14  15
ATOM     15  S   UNL     1       0.829   9.990  18.769  0.00  0.00    +0.000 S 
BRANCH  15  16
ATOM     16  C   UNL     1      -0.834  10.421  18.318  0.00  0.00    +0.000 A 
ATOM     17  N   UNL     1      -1.429   9.827  17.273  0.00  0.00    +0.000 NA
ATOM     18  C   UNL     1      -2.695  10.220  17.012  0.00  0.00    +0.000 A 
ATOM     19  C   UNL     1      -3.373  11.166  17.745  0.00  0.00    +0.000 A 
ATOM     20  C   UNL     1      -2.674  11.713  18.791  0.00  0.00    +0.000 A 
ATOM     21  N   UNL     1      -1.411  11.359  19.095  0.00  0.00    +0.000 NA
ENDBRANCH  15  16
ENDBRANCH  14  15
ENDBRANCH  13  14
ENDBRANCH  12  13
ENDBRANCH   5  12
TORSDOF 5
ENDMDL
MODEL 6
REMARK VINA RESULT:      -6.7      3.348      5.835
REMARK  Name = 
REMARK  5 active torsions:
REMARK  status: ('A' for Active; 'I' for Inactive)
REMARK    1  A    between atoms: C_5  and  O_6
REMARK    2  A    between atoms: O_6  and  C_7
REMARK    3  A    between atoms: C_7  and  C_8
REMARK    4  A    between atoms: C_8  and  S_9
REMARK    5  A    between atoms: S_9  and  C_10
REMARK                            x       y       z     vdW  Elec       q    Type
REMARK                         _______ _______ _______ _____ _____    ______ ____
ROOT
ATOM      1 CL   UNL     1       7.983   7.435  17.888  0.00  0.00    +0.000 Cl
ATOM      2  C   UNL     1       6.899   6.080  17.870  0.00  0.00    +0.000 A 
ATOM      3  C   UNL     1       6.313   5.737  19.086  0.00  0.00    +0.000 A 
ATOM      4  C   UNL     1       5.428   4.664  19.162  0.00  0.00    +0.000 A 
ATOM      5  C   UNL     1       5.112   3.921  18.019  0.00  0.00    +0.000 A 
ATOM      6  C   UNL     1       5.704   4.262  16.771  0.00  0.00    +0.000 A 
ATOM      7  C   UNL     1       5.418   3.546  15.586  0.00  0.00    +0.000 A 
ATOM      8  C   UNL     1       6.003   3.877  14.362  0.00  0.00    +0.000 A 
ATOM      9  C   UNL     1       6.890   4.938  14.286  0.00  0.00    +0.000 A 
ATOM     10  C   UNL     1       7.192   5.668  15.436  0.00  0.00    +0.000 A 
ATOM     11  C   UNL     1       6.613   5.355  16.690  0.00  0.00    +0.000 A 
ENDROOT
BRANCH   5  12
ATOM     12  O   UNL     1       4.241   2.845  18.024  0.00  0.00    +0.000 OA
BRANCH  12  13
ATOM     13  C   UNL     1       3.971   2.234  19.293  0.00  0.00    +0.000 C 
BRANCH  13  14
ATOM     14  C   UNL     1       2.467   2.258  19.601  0.00  0.00    +0.000 C 
BRANCH  14  15
ATOM     15  S   UNL     1       1.654   3.266  18.313  0.00  0.00    +0.000 S 
BRANCH  15  16
ATOM     16  C   UNL     1       1.848   4.922  18.923  0.00  0.00    +0.000 A 
ATOM     17  N   UNL     1       2.249   5.905  18.103  0.00  0.00    +0.000 NA
ATOM     18  C   UNL     1       2.363   7.130  18.660  0.00  0.00    +0.000 A 
ATOM     19  C   UNL     1       2.097   7.401  19.983  0.00  0.00    +0.000 A 
ATOM     20  C   UNL     1       1.696   6.326  20.735  0.00  0.00    +0.000 A 
ATOM     21  N   UNL     1       1.566   5.085  20.230  0.00  0.00    +0.000 NA
ENDBRANCH  15  16
ENDBRANCH  14  15
ENDBRANCH  13  14
ENDBRANCH  12  13
ENDBRANCH   5  12
TORSDOF 5
ENDMDL
MODEL 7
REMARK VINA RESULT:      -6.7      5.012      7.282
REMARK  Name = 
REMARK  5 active torsions:
REMARK  status: ('A' for Active; 'I' for Inactive)
REMARK    1  A    between atoms: C_5  and  O_6
REMARK    2  A    between atoms: O_6  and  C_7
REMARK    3  A    between atoms: C_7  and  C_8
REMARK    4  A    between atoms: C_8  and  S_9
REMARK    5  A    between atoms: S_9  and  C_10
REMARK                            x       y       z     vdW  Elec       q    Type
REMARK                         _______ _______ _______ _____ _____    ______ ____
ROOT
ATOM      1 CL   UNL     1       2.680   2.111  19.532  0.00  0.00    +0.000 Cl
ATOM      2  C   UNL     1       2.523   3.838  19.583  0.00  0.00    +0.000 A 
ATOM      3  C   UNL     1       1.708   4.358  20.587  0.00  0.00    +0.000 A 
ATOM      4  C   UNL     1       1.528   5.735  20.703  0.00  0.00    +0.000 A 
ATOM      5  C   UNL     1       2.166   6.612  19.819  0.00  0.00    +0.000 A 
ATOM      6  C   UNL     1       3.002   6.093  18.791  0.00  0.00    +0.000 A 
ATOM      7  C   UNL     1       3.670   6.935  17.873  0.00  0.00    +0.000 A 
ATOM      8  C   UNL     1       4.486   6.425  16.860  0.00  0.00    +0.000 A 
ATOM      9  C   UNL     1       4.659   5.056  16.736  0.00  0.00    +0.000 A 
ATOM     10  C   UNL     1       4.016   4.197  17.628  0.00  0.00    +0.000 A 
ATOM     11  C   UNL     1       3.184   4.686  18.665  0.00  0.00    +0.000 A 
ENDROOT
BRANCH   5  12
ATOM     12  O   UNL     1       2.032   7.988  19.879  0.00  0.00    +0.000 OA
BRANCH  12  13
ATOM     13  C   UNL     1       1.396   8.529  21.046  0.00  0.00    +0.000 C 
BRANCH  13  14
ATOM     14  C   UNL     1       0.111   9.281  20.668  0.00  0.00    +0.000 C 
BRANCH  14  15
ATOM     15  S   UNL     1       0.502  10.366  19.252  0.00  0.00    +0.000 S 
BRANCH  15  16
ATOM     16  C   UNL     1      -1.080  10.593  18.478  0.00  0.00    +0.000 A 
ATOM     17  N   UNL     1      -1.949  11.494  18.960  0.00  0.00    +0.000 NA
ATOM     18  C   UNL     1      -3.123  11.595  18.301  0.00  0.00    +0.000 A 
ATOM     19  C   UNL     1      -3.453  10.841  17.198  0.00  0.00    +0.000 A 
ATOM     20  C   UNL     1      -2.496   9.948  16.788  0.00  0.00    +0.000 A 
ATOM     21  N   UNL     1      -1.309   9.807  17.408  0.00  0.00    +0.000 NA
ENDBRANCH  15  16
ENDBRANCH  14  15
ENDBRANCH  13  14
ENDBRANCH  12  13
ENDBRANCH   5  12
TORSDOF 5
ENDMDL
MODEL 8
REMARK VINA RESULT:      -6.7      4.079      5.716
REMARK  Name = 
REMARK  5 active torsions:
REMARK  status: ('A' for Active; 'I' for Inactive)
REMARK    1  A    between atoms: C_5  and  O_6
REMARK    2  A    between atoms: O_6  and  C_7
REMARK    3  A    between atoms: C_7  and  C_8
REMARK    4  A    between atoms: C_8  and  S_9
REMARK    5  A    between atoms: S_9  and  C_10
REMARK                            x       y       z     vdW  Elec       q    Type
REMARK                         _______ _______ _______ _____ _____    ______ ____
ROOT
ATOM      1 CL   UNL     1      -1.006  12.461  18.816  0.00  0.00    +0.000 Cl
ATOM      2  C   UNL     1      -0.123  11.021  19.211  0.00  0.00    +0.000 A 
ATOM      3  C   UNL     1       0.544  10.393  18.161  0.00  0.00    +0.000 A 
ATOM      4  C   UNL     1       1.280   9.232  18.390  0.00  0.00    +0.000 A 
ATOM      5  C   UNL     1       1.364   8.686  19.676  0.00  0.00    +0.000 A 
ATOM      6  C   UNL     1       0.688   9.319  20.757  0.00  0.00    +0.000 A 
ATOM      7  C   UNL     1       0.742   8.810  22.075  0.00  0.00    +0.000 A 
ATOM      8  C   UNL     1       0.074   9.428  23.134  0.00  0.00    +0.000 A 
ATOM      9  C   UNL     1      -0.666  10.576  22.907  0.00  0.00    +0.000 A 
ATOM     10  C   UNL     1      -0.737  11.108  21.619  0.00  0.00    +0.000 A 
ATOM     11  C   UNL     1      -0.070  10.503  20.525  0.00  0.00    +0.000 A 
ENDROOT
BRANCH   5  12
ATOM     12  O   UNL     1       2.077   7.538  19.973  0.00  0.00    +0.000 OA
BRANCH  12  13
ATOM     13  C   UNL     1       2.858   6.966  18.913  0.00  0.00    +0.000 C 
BRANCH  13  14
ATOM     14  C   UNL     1       2.560   5.467  18.764  0.00  0.00    +0.000 C 
BRANCH  14  15
ATOM     15  S   UNL     1       3.969   4.549  19.476  0.00  0.00    +0.000 S 
BRANCH  15  16
ATOM     16  C   UNL     1       5.160   4.566  18.160  0.00  0.00    +0.000 A 
ATOM     17  N   UNL     1       4.758   4.586  16.881  0.00  0.00    +0.000 NA
ATOM     18  C   UNL     1       5.739   4.601  15.952  0.00  0.00    +0.000 A 
ATOM     19  C   UNL     1       7.081   4.598  16.252  0.00  0.00    +0.000 A 
ATOM     20  C   UNL     1       7.386   4.576  17.590  0.00  0.00    +0.000 A 
ATOM     21  N   UNL     1       6.448   4.560  18.556  0.00  0.00    +0.000 NA
ENDBRANCH  15  16
ENDBRANCH  14  15
ENDBRANCH  13  14
ENDBRANCH  12  13
ENDBRANCH   5  12
TORSDOF 5
ENDMDL
MODEL 9
REMARK VINA RESULT:      -6.7      3.430      5.765
REMARK  Name = 
REMARK  5 active torsions:
REMARK  status: ('A' for Active; 'I' for Inactive)
REMARK    1  A    between atoms: C_5  and  O_6
REMARK    2  A    between atoms: O_6  and  C_7
REMARK    3  A    between atoms: C_7  and  C_8
REMARK    4  A    between atoms: C_8  and  S_9
REMARK    5  A    between atoms: S_9  and  C_10
REMARK                            x       y       z     vdW  Elec       q    Type
REMARK                         _______ _______ _______ _____ _____    ______ ____
ROOT
ATOM      1 CL   UNL     1       8.006   6.623  18.606  0.00  0.00    +0.000 Cl
ATOM      2  C   UNL     1       6.767   5.461  18.253  0.00  0.00    +0.000 A 
ATOM      3  C   UNL     1       6.028   4.992  19.337  0.00  0.00    +0.000 A 
ATOM      4  C   UNL     1       5.011   4.059  19.144  0.00  0.00    +0.000 A 
ATOM      5  C   UNL     1       4.716   3.584  17.861  0.00  0.00    +0.000 A 
ATOM      6  C   UNL     1       5.463   4.056  16.746  0.00  0.00    +0.000 A 
ATOM      7  C   UNL     1       5.205   3.611  15.429  0.00  0.00    +0.000 A 
ATOM      8  C   UNL     1       5.942   4.070  14.335  0.00  0.00    +0.000 A 
ATOM      9  C   UNL     1       6.959   4.990  14.525  0.00  0.00    +0.000 A 
ATOM     10  C   UNL     1       7.239   5.453  15.812  0.00  0.00    +0.000 A 
ATOM     11  C   UNL     1       6.507   5.006  16.940  0.00  0.00    +0.000 A 
ENDROOT
BRANCH   5  12
ATOM     12  O   UNL     1       3.721   2.660  17.599  0.00  0.00    +0.000 OA
BRANCH  12  13
ATOM     13  C   UNL     1       2.919   2.235  18.711  0.00  0.00    +0.000 C 
BRANCH  13  14
ATOM     14  C   UNL     1       1.595   3.011  18.758  0.00  0.00    +0.000 C 
BRANCH  14  15
ATOM     15  S   UNL     1       1.543   3.921  20.341  0.00  0.00    +0.000 S 
BRANCH  15  16
ATOM     16  C   UNL     1       1.791   5.606  19.837  0.00  0.00    +0.000 A 
ATOM     17  N   UNL     1       1.594   6.610  20.705  0.00  0.00    +0.000 NA
ATOM     18  C   UNL     1       1.812   7.855  20.229  0.00  0.00    +0.000 A 
ATOM     19  C   UNL     1       2.212   8.126  18.941  0.00  0.00    +0.000 A 
ATOM     20  C   UNL     1       2.384   7.030  18.134  0.00  0.00    +0.000 A 
ATOM     21  N   UNL     1       2.180   5.768  18.557  0.00  0.00    +0.000 NA
ENDBRANCH  15  16
ENDBRANCH  14  15
ENDBRANCH  13  14
ENDBRANCH  12  13
ENDBRANCH   5  12
TORSDOF 5
ENDMDL
