MODEL 1
REMARK VINA RESULT:      -7.7      0.000      0.000
REMARK  Name = 
REMARK  4 active torsions:
REMARK  status: ('A' for Active; 'I' for Inactive)
REMARK    1  A    between atoms: C_1  and  C_2
REMARK    2  A    between atoms: C_5  and  C_6
REMARK    3  A    between atoms: C_11  and  C_12
REMARK    4  A    between atoms: C_12  and  C_14
REMARK                            x       y       z     vdW  Elec       q    Type
REMARK                         _______ _______ _______ _____ _____    ______ ____
ROOT
ATOM      1  C   UNL     1       7.379   7.670  17.339  0.00  0.00    +0.000 C 
ATOM      2  C   UNL     1       6.151   6.813  17.363  0.00  0.00    +0.000 A 
ATOM      3  N   UNL     1       5.009   7.208  17.965  0.00  0.00    +0.000 NA
ATOM      4  C   UNL     1       4.157   6.182  17.798  0.00  0.00    +0.000 A 
ATOM      5  C   UNL     1       2.842   6.123  18.278  0.00  0.00    +0.000 A 
ATOM      6  C   UNL     1       2.206   7.249  19.036  0.00  0.00    +0.000 C 
ATOM      7  C   UNL     1       2.114   4.947  18.036  0.00  0.00    +0.000 A 
ATOM      8  C   UNL     1       2.710   3.873  17.363  0.00  0.00    +0.000 A 
ATOM      9  C   UNL     1       4.028   3.985  16.918  0.00  0.00    +0.000 A 
ATOM     10  N   UNL     1       4.706   5.152  17.123  0.00  0.00    +0.000 N 
ATOM     11  C   UNL     1       5.966   5.540  16.803  0.00  0.00    +0.000 A 
ENDROOT
BRANCH  11  12
ATOM     12  C   UNL     1       6.983   4.740  16.048  0.00  0.00    +0.000 C 
ATOM     13  O   UNL     1       7.874   4.190  16.674  0.00  0.00    +0.000 OA
BRANCH  12  14
ATOM     14  C   UNL     1       6.940   4.564  14.566  0.00  0.00    +0.000 A 
ATOM     15  C   UNL     1       7.748   5.363  13.738  0.00  0.00    +0.000 A 
ATOM     16  C   UNL     1       7.767   5.160  12.354  0.00  0.00    +0.000 A 
ATOM     17  C   UNL     1       6.961   4.176  11.777  0.00  0.00    +0.000 A 
ATOM     18  C   UNL     1       6.118   3.408  12.580  0.00  0.00    +0.000 A 
ATOM     19  C   UNL     1       6.099   3.603  13.963  0.00  0.00    +0.000 A 
ENDBRANCH  12  14
ENDBRANCH  11  12
TORSDOF 2
ENDMDL
MODEL 2
REMARK VINA RESULT:      -7.5      2.069      2.642
REMARK  Name = 
REMARK  4 active torsions:
REMARK  status: ('A' for Active; 'I' for Inactive)
REMARK    1  A    between atoms: C_1  and  C_2
REMARK    2  A    between atoms: C_5  and  C_6
REMARK    3  A    between atoms: C_11  and  C_12
REMARK    4  A    between atoms: C_12  and  C_14
REMARK                            x       y       z     vdW  Elec       q    Type
REMARK                         _______ _______ _______ _____ _____    ______ ____
ROOT
ATOM      1  C   UNL     1       7.621   5.647  18.243  0.00  0.00    +0.000 C 
ATOM      2  C   UNL     1       6.326   4.897  18.167  0.00  0.00    +0.000 A 
ATOM      3  N   UNL     1       5.892   4.107  19.173  0.00  0.00    +0.000 NA
ATOM      4  C   UNL     1       4.728   3.599  18.734  0.00  0.00    +0.000 A 
ATOM      5  C   UNL     1       3.914   2.697  19.433  0.00  0.00    +0.000 A 
ATOM      6  C   UNL     1       4.249   2.202  20.808  0.00  0.00    +0.000 C 
ATOM      7  C   UNL     1       2.748   2.245  18.794  0.00  0.00    +0.000 A 
ATOM      8  C   UNL     1       2.445   2.670  17.495  0.00  0.00    +0.000 A 
ATOM      9  C   UNL     1       3.299   3.561  16.844  0.00  0.00    +0.000 A 
ATOM     10  N   UNL     1       4.405   4.024  17.496  0.00  0.00    +0.000 N 
ATOM     11  C   UNL     1       5.389   4.880  17.123  0.00  0.00    +0.000 A 
ENDROOT
BRANCH  11  12
ATOM     12  C   UNL     1       5.485   5.619  15.824  0.00  0.00    +0.000 C 
ATOM     13  O   UNL     1       5.106   6.778  15.783  0.00  0.00    +0.000 OA
BRANCH  12  14
ATOM     14  C   UNL     1       6.047   5.008  14.583  0.00  0.00    +0.000 A 
ATOM     15  C   UNL     1       5.333   4.002  13.908  0.00  0.00    +0.000 A 
ATOM     16  C   UNL     1       5.818   3.472  12.707  0.00  0.00    +0.000 A 
ATOM     17  C   UNL     1       7.031   3.920  12.180  0.00  0.00    +0.000 A 
ATOM     18  C   UNL     1       7.774   4.883  12.863  0.00  0.00    +0.000 A 
ATOM     19  C   UNL     1       7.292   5.420  14.059  0.00  0.00    +0.000 A 
ENDBRANCH  12  14
ENDBRANCH  11  12
TORSDOF 2
ENDMDL
MODEL 3
REMARK VINA RESULT:      -7.4      2.913      4.201
REMARK  Name = 
REMARK  4 active torsions:
REMARK  status: ('A' for Active; 'I' for Inactive)
REMARK    1  A    between atoms: C_1  and  C_2
REMARK    2  A    between atoms: C_5  and  C_6
REMARK    3  A    between atoms: C_11  and  C_12
REMARK    4  A    between atoms: C_12  and  C_14
REMARK                            x       y       z     vdW  Elec       q    Type
REMARK                         _______ _______ _______ _____ _____    ______ ____
ROOT
ATOM      1  C   UNL     1       2.838   7.668  18.014  0.00  0.00    +0.000 C 
ATOM      2  C   UNL     1       2.891   6.172  18.081  0.00  0.00    +0.000 A 
ATOM      3  N   UNL     1       1.940   5.446  18.708  0.00  0.00    +0.000 NA
ATOM      4  C   UNL     1       2.339   4.169  18.576  0.00  0.00    +0.000 A 
ATOM      5  C   UNL     1       1.675   3.047  19.092  0.00  0.00    +0.000 A 
ATOM      6  C   UNL     1       0.387   3.147  19.852  0.00  0.00    +0.000 C 
ATOM      7  C   UNL     1       2.267   1.791  18.884  0.00  0.00    +0.000 A 
ATOM      8  C   UNL     1       3.489   1.688  18.210  0.00  0.00    +0.000 A 
ATOM      9  C   UNL     1       4.110   2.842  17.728  0.00  0.00    +0.000 A 
ATOM     10  N   UNL     1       3.499   4.050  17.900  0.00  0.00    +0.000 N 
ATOM     11  C   UNL     1       3.857   5.310  17.542  0.00  0.00    +0.000 A 
ENDROOT
BRANCH  11  12
ATOM     12  C   UNL     1       5.078   5.706  16.771  0.00  0.00    +0.000 C 
ATOM     13  O   UNL     1       5.089   5.527  15.564  0.00  0.00    +0.000 OA
BRANCH  12  14
ATOM     14  C   UNL     1       6.274   6.331  17.410  0.00  0.00    +0.000 A 
ATOM     15  C   UNL     1       6.691   7.615  17.017  0.00  0.00    +0.000 A 
ATOM     16  C   UNL     1       7.769   8.238  17.657  0.00  0.00    +0.000 A 
ATOM     17  C   UNL     1       8.457   7.578  18.677  0.00  0.00    +0.000 A 
ATOM     18  C   UNL     1       8.085   6.285  19.045  0.00  0.00    +0.000 A 
ATOM     19  C   UNL     1       7.007   5.660  18.413  0.00  0.00    +0.000 A 
ENDBRANCH  12  14
ENDBRANCH  11  12
TORSDOF 2
ENDMDL
MODEL 4
REMARK VINA RESULT:      -7.3      2.071      2.415
REMARK  Name = 
REMARK  4 active torsions:
REMARK  status: ('A' for Active; 'I' for Inactive)
REMARK    1  A    between atoms: C_1  and  C_2
REMARK    2  A    between atoms: C_5  and  C_6
REMARK    3  A    between atoms: C_11  and  C_12
REMARK    4  A    between atoms: C_12  and  C_14
REMARK                            x       y       z     vdW  Elec       q    Type
REMARK                         _______ _______ _______ _____ _____    ______ ____
ROOT
ATOM      1  C   UNL     1       7.657   5.689  18.262  0.00  0.00    +0.000 C 
ATOM      2  C   UNL     1       6.372   4.924  18.179  0.00  0.00    +0.000 A 
ATOM      3  N   UNL     1       5.946   4.122  19.178  0.00  0.00    +0.000 NA
ATOM      4  C   UNL     1       4.789   3.602  18.733  0.00  0.00    +0.000 A 
ATOM      5  C   UNL     1       3.984   2.686  19.424  0.00  0.00    +0.000 A 
ATOM      6  C   UNL     1       4.322   2.185  20.797  0.00  0.00    +0.000 C 
ATOM      7  C   UNL     1       2.825   2.225  18.780  0.00  0.00    +0.000 A 
ATOM      8  C   UNL     1       2.519   2.654  17.483  0.00  0.00    +0.000 A 
ATOM      9  C   UNL     1       3.364   3.560  16.840  0.00  0.00    +0.000 A 
ATOM     10  N   UNL     1       4.463   4.032  17.498  0.00  0.00    +0.000 N 
ATOM     11  C   UNL     1       5.438   4.903  17.133  0.00  0.00    +0.000 A 
ENDROOT
BRANCH  11  12
ATOM     12  C   UNL     1       5.527   5.652  15.839  0.00  0.00    +0.000 C 
ATOM     13  O   UNL     1       5.232   6.836  15.829  0.00  0.00    +0.000 OA
BRANCH  12  14
ATOM     14  C   UNL     1       5.985   5.020  14.566  0.00  0.00    +0.000 A 
ATOM     15  C   UNL     1       7.241   5.350  14.027  0.00  0.00    +0.000 A 
ATOM     16  C   UNL     1       7.708   4.713  12.873  0.00  0.00    +0.000 A 
ATOM     17  C   UNL     1       6.917   3.759  12.227  0.00  0.00    +0.000 A 
ATOM     18  C   UNL     1       5.649   3.456  12.723  0.00  0.00    +0.000 A 
ATOM     19  C   UNL     1       5.180   4.085  13.878  0.00  0.00    +0.000 A 
ENDBRANCH  12  14
ENDBRANCH  11  12
TORSDOF 2
ENDMDL
MODEL 5
REMARK VINA RESULT:      -7.2      2.977      4.335
REMARK  Name = 
REMARK  4 active torsions:
REMARK  status: ('A' for Active; 'I' for Inactive)
REMARK    1  A    between atoms: C_1  and  C_2
REMARK    2  A    between atoms: C_5  and  C_6
REMARK    3  A    between atoms: C_11  and  C_12
REMARK    4  A    between atoms: C_12  and  C_14
REMARK                            x       y       z     vdW  Elec       q    Type
REMARK                         _______ _______ _______ _____ _____    ______ ____
ROOT
ATOM      1  C   UNL     1       2.746   7.680  18.173  0.00  0.00    +0.000 C 
ATOM      2  C   UNL     1       2.826   6.184  18.187  0.00  0.00    +0.000 A 
ATOM      3  N   UNL     1       1.895   5.418  18.797  0.00  0.00    +0.000 NA
ATOM      4  C   UNL     1       2.316   4.155  18.617  0.00  0.00    +0.000 A 
ATOM      5  C   UNL     1       1.678   3.004  19.098  0.00  0.00    +0.000 A 
ATOM      6  C   UNL     1       0.395   3.053  19.874  0.00  0.00    +0.000 C 
ATOM      7  C   UNL     1       2.290   1.767  18.841  0.00  0.00    +0.000 A 
ATOM      8  C   UNL     1       3.508   1.710  18.152  0.00  0.00    +0.000 A 
ATOM      9  C   UNL     1       4.102   2.891  17.706  0.00  0.00    +0.000 A 
ATOM     10  N   UNL     1       3.471   4.081  17.926  0.00  0.00    +0.000 N 
ATOM     11  C   UNL     1       3.802   5.359  17.609  0.00  0.00    +0.000 A 
ENDROOT
BRANCH  11  12
ATOM     12  C   UNL     1       5.009   5.804  16.842  0.00  0.00    +0.000 C 
ATOM     13  O   UNL     1       5.013   5.664  15.629  0.00  0.00    +0.000 OA
BRANCH  12  14
ATOM     14  C   UNL     1       6.197   6.434  17.490  0.00  0.00    +0.000 A 
ATOM     15  C   UNL     1       6.892   5.750  18.502  0.00  0.00    +0.000 A 
ATOM     16  C   UNL     1       8.047   6.301  19.069  0.00  0.00    +0.000 A 
ATOM     17  C   UNL     1       8.506   7.552  18.650  0.00  0.00    +0.000 A 
ATOM     18  C   UNL     1       7.800   8.264  17.681  0.00  0.00    +0.000 A 
ATOM     19  C   UNL     1       6.649   7.716  17.109  0.00  0.00    +0.000 A 
ENDBRANCH  12  14
ENDBRANCH  11  12
TORSDOF 2
ENDMDL
MODEL 6
REMARK VINA RESULT:      -7.1      2.133      6.557
REMARK  Name = 
REMARK  4 active torsions:
REMARK  status: ('A' for Active; 'I' for Inactive)
REMARK    1  A    between atoms: C_1  and  C_2
REMARK    2  A    between atoms: C_5  and  C_6
REMARK    3  A    between atoms: C_11  and  C_12
REMARK    4  A    between atoms: C_12  and  C_14
REMARK                            x       y       z     vdW  Elec       q    Type
REMARK                         _______ _______ _______ _____ _____    ______ ____
ROOT
ATOM      1  C   UNL     1       1.670   3.373  17.875  0.00  0.00    +0.000 C 
ATOM      2  C   UNL     1       2.945   4.104  17.583  0.00  0.00    +0.000 A 
ATOM      3  N   UNL     1       3.760   3.751  16.565  0.00  0.00    +0.000 NA
ATOM      4  C   UNL     1       4.792   4.610  16.637  0.00  0.00    +0.000 A 
ATOM      5  C   UNL     1       5.909   4.618  15.791  0.00  0.00    +0.000 A 
ATOM      6  C   UNL     1       6.073   3.653  14.656  0.00  0.00    +0.000 C 
ATOM      7  C   UNL     1       6.908   5.572  16.045  0.00  0.00    +0.000 A 
ATOM      8  C   UNL     1       6.786   6.453  17.127  0.00  0.00    +0.000 A 
ATOM      9  C   UNL     1       5.655   6.391  17.942  0.00  0.00    +0.000 A 
ATOM     10  N   UNL     1       4.673   5.487  17.654  0.00  0.00    +0.000 N 
ATOM     11  C   UNL     1       3.488   5.210  18.254  0.00  0.00    +0.000 A 
ENDROOT
BRANCH  11  12
ATOM     12  C   UNL     1       2.901   5.912  19.440  0.00  0.00    +0.000 C 
ATOM     13  O   UNL     1       2.985   5.378  20.534  0.00  0.00    +0.000 OA
BRANCH  12  14
ATOM     14  C   UNL     1       2.240   7.247  19.347  0.00  0.00    +0.000 A 
ATOM     15  C   UNL     1       1.603   7.797  20.473  0.00  0.00    +0.000 A 
ATOM     16  C   UNL     1       1.040   9.077  20.416  0.00  0.00    +0.000 A 
ATOM     17  C   UNL     1       1.084   9.812  19.229  0.00  0.00    +0.000 A 
ATOM     18  C   UNL     1       1.671   9.260  18.090  0.00  0.00    +0.000 A 
ATOM     19  C   UNL     1       2.239   7.985  18.143  0.00  0.00    +0.000 A 
ENDBRANCH  12  14
ENDBRANCH  11  12
TORSDOF 2
ENDMDL
MODEL 7
REMARK VINA RESULT:      -7.1      2.391      4.185
REMARK  Name = 
REMARK  4 active torsions:
REMARK  status: ('A' for Active; 'I' for Inactive)
REMARK    1  A    between atoms: C_1  and  C_2
REMARK    2  A    between atoms: C_5  and  C_6
REMARK    3  A    between atoms: C_11  and  C_12
REMARK    4  A    between atoms: C_12  and  C_14
REMARK                            x       y       z     vdW  Elec       q    Type
REMARK                         _______ _______ _______ _____ _____    ______ ____
ROOT
ATOM      1  C   UNL     1       2.565   3.012  21.062  0.00  0.00    +0.000 C 
ATOM      2  C   UNL     1       2.543   4.348  20.385  0.00  0.00    +0.000 A 
ATOM      3  N   UNL     1       2.008   5.442  20.968  0.00  0.00    +0.000 NA
ATOM      4  C   UNL     1       2.152   6.422  20.060  0.00  0.00    +0.000 A 
ATOM      5  C   UNL     1       1.721   7.747  20.210  0.00  0.00    +0.000 A 
ATOM      6  C   UNL     1       1.050   8.244  21.456  0.00  0.00    +0.000 C 
ATOM      7  C   UNL     1       1.928   8.623  19.133  0.00  0.00    +0.000 A 
ATOM      8  C   UNL     1       2.518   8.162  17.950  0.00  0.00    +0.000 A 
ATOM      9  C   UNL     1       2.917   6.829  17.854  0.00  0.00    +0.000 A 
ATOM     10  N   UNL     1       2.749   6.002  18.926  0.00  0.00    +0.000 N 
ATOM     11  C   UNL     1       3.040   4.690  19.118  0.00  0.00    +0.000 A 
ENDROOT
BRANCH  11  12
ATOM     12  C   UNL     1       3.711   3.772  18.143  0.00  0.00    +0.000 C 
ATOM     13  O   UNL     1       3.222   2.672  17.948  0.00  0.00    +0.000 OA
BRANCH  12  14
ATOM     14  C   UNL     1       4.938   4.153  17.382  0.00  0.00    +0.000 A 
ATOM     15  C   UNL     1       6.113   4.502  18.070  0.00  0.00    +0.000 A 
ATOM     16  C   UNL     1       7.287   4.793  17.367  0.00  0.00    +0.000 A 
ATOM     17  C   UNL     1       7.295   4.765  15.970  0.00  0.00    +0.000 A 
ATOM     18  C   UNL     1       6.124   4.467  15.273  0.00  0.00    +0.000 A 
ATOM     19  C   UNL     1       4.951   4.171  15.970  0.00  0.00    +0.000 A 
ENDBRANCH  12  14
ENDBRANCH  11  12
TORSDOF 2
ENDMDL
MODEL 8
REMARK VINA RESULT:      -7.1      2.810      4.757
REMARK  Name = 
REMARK  4 active torsions:
REMARK  status: ('A' for Active; 'I' for Inactive)
REMARK    1  A    between atoms: C_1  and  C_2
REMARK    2  A    between atoms: C_5  and  C_6
REMARK    3  A    between atoms: C_11  and  C_12
REMARK    4  A    between atoms: C_12  and  C_14
REMARK                            x       y       z     vdW  Elec       q    Type
REMARK                         _______ _______ _______ _____ _____    ______ ____
ROOT
ATOM      1  C   UNL     1       2.196   4.007  21.012  0.00  0.00    +0.000 C 
ATOM      2  C   UNL     1       2.150   5.348  20.346  0.00  0.00    +0.000 A 
ATOM      3  N   UNL     1       1.596   6.428  20.938  0.00  0.00    +0.000 NA
ATOM      4  C   UNL     1       1.724   7.418  20.038  0.00  0.00    +0.000 A 
ATOM      5  C   UNL     1       1.270   8.734  20.201  0.00  0.00    +0.000 A 
ATOM      6  C   UNL     1       0.591   9.208  21.450  0.00  0.00    +0.000 C 
ATOM      7  C   UNL     1       1.461   9.623  19.131  0.00  0.00    +0.000 A 
ATOM      8  C   UNL     1       2.058   9.182  17.943  0.00  0.00    +0.000 A 
ATOM      9  C   UNL     1       2.480   7.856  17.836  0.00  0.00    +0.000 A 
ATOM     10  N   UNL     1       2.327   7.017  18.901  0.00  0.00    +0.000 N 
ATOM     11  C   UNL     1       2.641   5.709  19.082  0.00  0.00    +0.000 A 
ENDROOT
BRANCH  11  12
ATOM     12  C   UNL     1       3.326   4.812  18.099  0.00  0.00    +0.000 C 
ATOM     13  O   UNL     1       2.647   4.039  17.443  0.00  0.00    +0.000 OA
BRANCH  12  14
ATOM     14  C   UNL     1       4.801   4.837  17.868  0.00  0.00    +0.000 A 
ATOM     15  C   UNL     1       5.666   5.270  18.888  0.00  0.00    +0.000 A 
ATOM     16  C   UNL     1       7.053   5.232  18.707  0.00  0.00    +0.000 A 
ATOM     17  C   UNL     1       7.592   4.787  17.497  0.00  0.00    +0.000 A 
ATOM     18  C   UNL     1       6.745   4.399  16.459  0.00  0.00    +0.000 A 
ATOM     19  C   UNL     1       5.360   4.430  16.637  0.00  0.00    +0.000 A 
ENDBRANCH  12  14
ENDBRANCH  11  12
TORSDOF 2
ENDMDL
MODEL 9
REMARK VINA RESULT:      -7.1      2.558      4.434
REMARK  Name = 
REMARK  4 active torsions:
REMARK  status: ('A' for Active; 'I' for Inactive)
REMARK    1  A    between atoms: C_1  and  C_2
REMARK    2  A    between atoms: C_5  and  C_6
REMARK    3  A    between atoms: C_11  and  C_12
REMARK    4  A    between atoms: C_12  and  C_14
REMARK                            x       y       z     vdW  Elec       q    Type
REMARK                         _______ _______ _______ _____ _____    ______ ____
ROOT
ATOM      1  C   UNL     1       2.439   3.136  21.176  0.00  0.00    +0.000 C 
ATOM      2  C   UNL     1       2.394   4.465  20.485  0.00  0.00    +0.000 A 
ATOM      3  N   UNL     1       1.919   5.575  21.090  0.00  0.00    +0.000 NA
ATOM      4  C   UNL     1       2.019   6.543  20.163  0.00  0.00    +0.000 A 
ATOM      5  C   UNL     1       1.622   7.877  20.327  0.00  0.00    +0.000 A 
ATOM      6  C   UNL     1       1.046   8.399  21.609  0.00  0.00    +0.000 C 
ATOM      7  C   UNL     1       1.771   8.738  19.228  0.00  0.00    +0.000 A 
ATOM      8  C   UNL     1       2.271   8.254  18.013  0.00  0.00    +0.000 A 
ATOM      9  C   UNL     1       2.640   6.912  17.906  0.00  0.00    +0.000 A 
ATOM     10  N   UNL     1       2.531   6.100  18.997  0.00  0.00    +0.000 N 
ATOM     11  C   UNL     1       2.811   4.785  19.185  0.00  0.00    +0.000 A 
ENDROOT
BRANCH  11  12
ATOM     12  C   UNL     1       3.398   3.845  18.177  0.00  0.00    +0.000 C 
ATOM     13  O   UNL     1       2.743   2.874  17.835  0.00  0.00    +0.000 OA
BRANCH  12  14
ATOM     14  C   UNL     1       4.739   4.056  17.555  0.00  0.00    +0.000 A 
ATOM     15  C   UNL     1       4.905   3.893  16.168  0.00  0.00    +0.000 A 
ATOM     16  C   UNL     1       6.140   4.155  15.566  0.00  0.00    +0.000 A 
ATOM     17  C   UNL     1       7.229   4.557  16.342  0.00  0.00    +0.000 A 
ATOM     18  C   UNL     1       7.093   4.677  17.725  0.00  0.00    +0.000 A 
ATOM     19  C   UNL     1       5.860   4.421  18.331  0.00  0.00    +0.000 A 
ENDBRANCH  12  14
ENDBRANCH  11  12
TORSDOF 2
ENDMDL
