MODEL 1
REMARK VINA RESULT:      -8.3      0.000      0.000
REMARK  Name = 
REMARK  13 active torsions:
REMARK  status: ('A' for Active; 'I' for Inactive)
REMARK    1  A    between atoms: C_1  and  C_2
REMARK    2  A    between atoms: C_2  and  O_3
REMARK    3  A    between atoms: O_3  and  C_4
REMARK    4  A    between atoms: C_4  and  C_6
REMARK    5  A    between atoms: C_8  and  C_9
REMARK    6  A    between atoms: N_15  and  C_16
REMARK    7  A    between atoms: C_16  and  C_17
REMARK    8  A    between atoms: C_17  and  C_18
REMARK    9  A    between atoms: N_20  and  C_21
REMARK   10  A    between atoms: C_21  and  C_22
REMARK   11  A    between atoms: C_22  and  C_23
REMARK   12  A    between atoms: C_26  and  C_27
REMARK   13  A    between atoms: C_30  and  C_31
REMARK                            x       y       z     vdW  Elec       q    Type
REMARK                         _______ _______ _______ _____ _____    ______ ____
ROOT
ATOM      1  C   UNL     1       5.459   4.524  16.715  0.00  0.00    +0.000 A 
ATOM      2  C   UNL     1       4.829   3.679  17.660  0.00  0.00    +0.000 A 
ATOM      3  C   UNL     1       3.686   4.298  18.151  0.00  0.00    +0.000 A 
ATOM      4  N   UNL     1       3.606   5.542  17.494  0.00  0.00    +0.000 N 
ATOM      5  C   UNL     1       4.679   5.672  16.614  0.00  0.00    +0.000 A 
ATOM      6  C   UNL     1       5.004   6.794  15.672  0.00  0.00    +0.000 C 
ENDROOT
BRANCH   3   7
ATOM      7  C   UNL     1       2.780   3.769  19.211  0.00  0.00    +0.000 A 
ATOM      8  C   UNL     1       3.042   4.058  20.563  0.00  0.00    +0.000 A 
ATOM      9  C   UNL     1       2.216   3.585  21.592  0.00  0.00    +0.000 A 
ATOM     10  C   UNL     1       1.089   2.825  21.292  0.00  0.00    +0.000 A 
ATOM     11  C   UNL     1       0.817   2.510  19.968  0.00  0.00    +0.000 A 
ATOM     12  C   UNL     1       1.672   2.949  18.949  0.00  0.00    +0.000 A 
ENDBRANCH   3   7
BRANCH   1  13
ATOM     13  C   UNL     1       6.659   4.264  15.918  0.00  0.00    +0.000 C 
ATOM     14  O   UNL     1       7.772   4.679  16.203  0.00  0.00    +0.000 OA
BRANCH  13  15
ATOM     15  O   UNL     1       6.374   3.618  14.750  0.00  0.00    +0.000 OA
BRANCH  15  17
ATOM     16  C   UNL     1       6.330   3.537  12.375  0.00  0.00    +0.000 C 
ATOM     17  C   UNL     1       6.776   4.345  13.582  0.00  0.00    +0.000 C 
ENDBRANCH  15  17
ENDBRANCH  13  15
ENDBRANCH   1  13
BRANCH   4  18
ATOM     18  C   UNL     1       2.526   6.492  17.763  0.00  0.00    +0.000 C 
BRANCH  18  19
ATOM     19  C   UNL     1       2.737   7.563  18.802  0.00  0.00    +0.000 C 
BRANCH  19  20
ATOM     20  C   UNL     1       2.027   8.843  18.474  0.00  0.00    +0.000 C 
ATOM     21  O   UNL     1       2.105   9.413  17.394  0.00  0.00    +0.000 OA
ATOM     22  N   UNL     1       1.338   9.318  19.565  0.00  0.00    +0.000 N 
ATOM     23  H   UNL     1       1.475   8.872  20.465  0.00  0.00    +0.000 HD
BRANCH  22  24
ATOM     24  C   UNL     1       0.656  10.589  19.521  0.00  0.00    +0.000 C 
BRANCH  24  25
ATOM     25  C   UNL     1      -0.831  10.426  19.812  0.00  0.00    +0.000 C 
BRANCH  25  26
ATOM     26  C   UNL     1      -1.635  10.526  18.546  0.00  0.00    +0.000 A 
ATOM     27  C   UNL     1      -2.725  11.400  18.473  0.00  0.00    +0.000 A 
ATOM     28  C   UNL     1      -3.501  11.460  17.316  0.00  0.00    +0.000 A 
ATOM     29  C   UNL     1      -3.199  10.646  16.219  0.00  0.00    +0.000 A 
ATOM     30  C   UNL     1      -4.018  10.711  14.965  0.00  0.00    +0.000 C 
ATOM     31  C   UNL     1      -2.116   9.763  16.299  0.00  0.00    +0.000 A 
ATOM     32  C   UNL     1      -1.340   9.702  17.455  0.00  0.00    +0.000 A 
ENDBRANCH  25  26
ENDBRANCH  24  25
ENDBRANCH  22  24
ENDBRANCH  19  20
ENDBRANCH  18  19
ENDBRANCH   4  18
TORSDOF 10
ENDMDL
MODEL 2
REMARK VINA RESULT:      -7.8      1.070      1.194
REMARK  Name = 
REMARK  13 active torsions:
REMARK  status: ('A' for Active; 'I' for Inactive)
REMARK    1  A    between atoms: C_1  and  C_2
REMARK    2  A    between atoms: C_2  and  O_3
REMARK    3  A    between atoms: O_3  and  C_4
REMARK    4  A    between atoms: C_4  and  C_6
REMARK    5  A    between atoms: C_8  and  C_9
REMARK    6  A    between atoms: N_15  and  C_16
REMARK    7  A    between atoms: C_16  and  C_17
REMARK    8  A    between atoms: C_17  and  C_18
REMARK    9  A    between atoms: N_20  and  C_21
REMARK   10  A    between atoms: C_21  and  C_22
REMARK   11  A    between atoms: C_22  and  C_23
REMARK   12  A    between atoms: C_26  and  C_27
REMARK   13  A    between atoms: C_30  and  C_31
REMARK                            x       y       z     vdW  Elec       q    Type
REMARK                         _______ _______ _______ _____ _____    ______ ____
ROOT
ATOM      1  C   UNL     1       5.240   4.605  16.286  0.00  0.00    +0.000 A 
ATOM      2  C   UNL     1       4.477   3.706  17.068  0.00  0.00    +0.000 A 
ATOM      3  C   UNL     1       3.687   4.419  17.962  0.00  0.00    +0.000 A 
ATOM      4  N   UNL     1       3.962   5.780  17.723  0.00  0.00    +0.000 N 
ATOM      5  C   UNL     1       4.899   5.890  16.696  0.00  0.00    +0.000 A 
ATOM      6  C   UNL     1       5.475   7.124  16.064  0.00  0.00    +0.000 C 
ENDROOT
BRANCH   3   7
ATOM      7  C   UNL     1       2.790   3.842  19.005  0.00  0.00    +0.000 A 
ATOM      8  C   UNL     1       3.292   3.583  20.294  0.00  0.00    +0.000 A 
ATOM      9  C   UNL     1       2.486   3.044  21.305  0.00  0.00    +0.000 A 
ATOM     10  C   UNL     1       1.142   2.771  21.059  0.00  0.00    +0.000 A 
ATOM     11  C   UNL     1       0.626   3.000  19.792  0.00  0.00    +0.000 A 
ATOM     12  C   UNL     1       1.450   3.497  18.774  0.00  0.00    +0.000 A 
ENDBRANCH   3   7
BRANCH   1  13
ATOM     13  C   UNL     1       6.169   4.302  15.196  0.00  0.00    +0.000 C 
ATOM     14  O   UNL     1       7.371   4.519  15.242  0.00  0.00    +0.000 OA
BRANCH  13  15
ATOM     15  O   UNL     1       5.526   3.871  14.072  0.00  0.00    +0.000 OA
BRANCH  15  17
ATOM     16  C   UNL     1       5.634   2.958  11.881  0.00  0.00    +0.000 C 
ATOM     17  C   UNL     1       6.382   3.765  12.929  0.00  0.00    +0.000 C 
ENDBRANCH  15  17
ENDBRANCH  13  15
ENDBRANCH   1  13
BRANCH   4  18
ATOM     18  C   UNL     1       3.318   6.847  18.488  0.00  0.00    +0.000 C 
BRANCH  18  19
ATOM     19  C   UNL     1       2.245   7.675  17.828  0.00  0.00    +0.000 C 
BRANCH  19  20
ATOM     20  C   UNL     1       1.731   8.774  18.708  0.00  0.00    +0.000 C 
ATOM     21  O   UNL     1       1.542   8.659  19.912  0.00  0.00    +0.000 OA
ATOM     22  N   UNL     1       1.439   9.899  17.973  0.00  0.00    +0.000 N 
ATOM     23  H   UNL     1       1.461   9.844  16.961  0.00  0.00    +0.000 HD
BRANCH  22  24
ATOM     24  C   UNL     1       0.837  11.058  18.588  0.00  0.00    +0.000 C 
BRANCH  24  25
ATOM     25  C   UNL     1      -0.271  10.655  19.553  0.00  0.00    +0.000 C 
BRANCH  25  26
ATOM     26  C   UNL     1      -1.623  10.914  18.950  0.00  0.00    +0.000 A 
ATOM     27  C   UNL     1      -2.438  11.930  19.461  0.00  0.00    +0.000 A 
ATOM     28  C   UNL     1      -3.711  12.141  18.934  0.00  0.00    +0.000 A 
ATOM     29  C   UNL     1      -4.188  11.336  17.893  0.00  0.00    +0.000 A 
ATOM     30  C   UNL     1      -5.550  11.562  17.310  0.00  0.00    +0.000 C 
ATOM     31  C   UNL     1      -3.376  10.313  17.392  0.00  0.00    +0.000 A 
ATOM     32  C   UNL     1      -2.103  10.100  17.918  0.00  0.00    +0.000 A 
ENDBRANCH  25  26
ENDBRANCH  24  25
ENDBRANCH  22  24
ENDBRANCH  19  20
ENDBRANCH  18  19
ENDBRANCH   4  18
TORSDOF 10
ENDMDL
MODEL 3
REMARK VINA RESULT:      -7.8      1.185      1.713
REMARK  Name = 
REMARK  13 active torsions:
REMARK  status: ('A' for Active; 'I' for Inactive)
REMARK    1  A    between atoms: C_1  and  C_2
REMARK    2  A    between atoms: C_2  and  O_3
REMARK    3  A    between atoms: O_3  and  C_4
REMARK    4  A    between atoms: C_4  and  C_6
REMARK    5  A    between atoms: C_8  and  C_9
REMARK    6  A    between atoms: N_15  and  C_16
REMARK    7  A    between atoms: C_16  and  C_17
REMARK    8  A    between atoms: C_17  and  C_18
REMARK    9  A    between atoms: N_20  and  C_21
REMARK   10  A    between atoms: C_21  and  C_22
REMARK   11  A    between atoms: C_22  and  C_23
REMARK   12  A    between atoms: C_26  and  C_27
REMARK   13  A    between atoms: C_30  and  C_31
REMARK                            x       y       z     vdW  Elec       q    Type
REMARK                         _______ _______ _______ _____ _____    ______ ____
ROOT
ATOM      1  C   UNL     1       5.369   4.709  16.396  0.00  0.00    +0.000 A 
ATOM      2  C   UNL     1       4.729   3.799  17.271  0.00  0.00    +0.000 A 
ATOM      3  C   UNL     1       3.692   4.442  17.937  0.00  0.00    +0.000 A 
ATOM      4  N   UNL     1       3.689   5.768  17.461  0.00  0.00    +0.000 N 
ATOM      5  C   UNL     1       4.702   5.925  16.516  0.00  0.00    +0.000 A 
ATOM      6  C   UNL     1       5.068   7.135  15.708  0.00  0.00    +0.000 C 
ENDROOT
BRANCH   3   7
ATOM      7  C   UNL     1       2.819   3.851  18.992  0.00  0.00    +0.000 A 
ATOM      8  C   UNL     1       3.344   3.594  20.272  0.00  0.00    +0.000 A 
ATOM      9  C   UNL     1       2.559   3.043  21.293  0.00  0.00    +0.000 A 
ATOM     10  C   UNL     1       1.215   2.756  21.068  0.00  0.00    +0.000 A 
ATOM     11  C   UNL     1       0.676   2.983  19.810  0.00  0.00    +0.000 A 
ATOM     12  C   UNL     1       1.478   3.492  18.780  0.00  0.00    +0.000 A 
ENDBRANCH   3   7
BRANCH   1  13
ATOM     13  C   UNL     1       6.475   4.458  15.470  0.00  0.00    +0.000 C 
ATOM     14  O   UNL     1       7.472   5.160  15.390  0.00  0.00    +0.000 OA
BRANCH  13  15
ATOM     15  O   UNL     1       6.209   3.429  14.614  0.00  0.00    +0.000 OA
BRANCH  15  17
ATOM     16  C   UNL     1       6.516   3.568  12.262  0.00  0.00    +0.000 C 
ATOM     17  C   UNL     1       5.557   3.844  13.407  0.00  0.00    +0.000 C 
ENDBRANCH  15  17
ENDBRANCH  13  15
ENDBRANCH   1  13
BRANCH   4  18
ATOM     18  C   UNL     1       2.732   6.763  17.946  0.00  0.00    +0.000 C 
BRANCH  18  19
ATOM     19  C   UNL     1       2.653   7.040  19.426  0.00  0.00    +0.000 C 
BRANCH  19  20
ATOM     20  C   UNL     1       1.740   8.181  19.758  0.00  0.00    +0.000 C 
ATOM     21  O   UNL     1       1.298   8.403  20.877  0.00  0.00    +0.000 OA
ATOM     22  N   UNL     1       1.415   8.897  18.630  0.00  0.00    +0.000 N 
ATOM     23  H   UNL     1       1.686   8.536  17.723  0.00  0.00    +0.000 HD
BRANCH  22  24
ATOM     24  C   UNL     1       0.468   9.986  18.684  0.00  0.00    +0.000 C 
BRANCH  24  25
ATOM     25  C   UNL     1      -0.663   9.781  17.683  0.00  0.00    +0.000 C 
BRANCH  25  26
ATOM     26  C   UNL     1      -1.908  10.492  18.134  0.00  0.00    +0.000 A 
ATOM     27  C   UNL     1      -3.149  10.152  17.586  0.00  0.00    +0.000 A 
ATOM     28  C   UNL     1      -4.299  10.842  17.968  0.00  0.00    +0.000 A 
ATOM     29  C   UNL     1      -4.222  11.883  18.900  0.00  0.00    +0.000 A 
ATOM     30  C   UNL     1      -5.452  12.624  19.329  0.00  0.00    +0.000 C 
ATOM     31  C   UNL     1      -2.977  12.230  19.438  0.00  0.00    +0.000 A 
ATOM     32  C   UNL     1      -1.827  11.541  19.056  0.00  0.00    +0.000 A 
ENDBRANCH  25  26
ENDBRANCH  24  25
ENDBRANCH  22  24
ENDBRANCH  19  20
ENDBRANCH  18  19
ENDBRANCH   4  18
TORSDOF 10
ENDMDL
MODEL 4
REMARK VINA RESULT:      -7.8      1.402      2.225
REMARK  Name = 
REMARK  13 active torsions:
REMARK  status: ('A' for Active; 'I' for Inactive)
REMARK    1  A    between atoms: C_1  and  C_2
REMARK    2  A    between atoms: C_2  and  O_3
REMARK    3  A    between atoms: O_3  and  C_4
REMARK    4  A    between atoms: C_4  and  C_6
REMARK    5  A    between atoms: C_8  and  C_9
REMARK    6  A    between atoms: N_15  and  C_16
REMARK    7  A    between atoms: C_16  and  C_17
REMARK    8  A    between atoms: C_17  and  C_18
REMARK    9  A    between atoms: N_20  and  C_21
REMARK   10  A    between atoms: C_21  and  C_22
REMARK   11  A    between atoms: C_22  and  C_23
REMARK   12  A    between atoms: C_26  and  C_27
REMARK   13  A    between atoms: C_30  and  C_31
REMARK                            x       y       z     vdW  Elec       q    Type
REMARK                         _______ _______ _______ _____ _____    ______ ____
ROOT
ATOM      1  C   UNL     1       5.045   4.663  16.026  0.00  0.00    +0.000 A 
ATOM      2  C   UNL     1       4.257   3.823  16.848  0.00  0.00    +0.000 A 
ATOM      3  C   UNL     1       3.554   4.594  17.766  0.00  0.00    +0.000 A 
ATOM      4  N   UNL     1       3.910   5.932  17.502  0.00  0.00    +0.000 N 
ATOM      5  C   UNL     1       4.809   5.971  16.437  0.00  0.00    +0.000 A 
ATOM      6  C   UNL     1       5.439   7.158  15.769  0.00  0.00    +0.000 C 
ENDROOT
BRANCH   3   7
ATOM      7  C   UNL     1       2.665   4.087  18.851  0.00  0.00    +0.000 A 
ATOM      8  C   UNL     1       1.562   3.274  18.528  0.00  0.00    +0.000 A 
ATOM      9  C   UNL     1       0.702   2.773  19.515  0.00  0.00    +0.000 A 
ATOM     10  C   UNL     1       0.937   3.053  20.858  0.00  0.00    +0.000 A 
ATOM     11  C   UNL     1       2.008   3.866  21.203  0.00  0.00    +0.000 A 
ATOM     12  C   UNL     1       2.837   4.400  20.208  0.00  0.00    +0.000 A 
ENDBRANCH   3   7
BRANCH   1  13
ATOM     13  C   UNL     1       5.906   4.289  14.902  0.00  0.00    +0.000 C 
ATOM     14  O   UNL     1       7.126   4.340  14.930  0.00  0.00    +0.000 OA
BRANCH  13  15
ATOM     15  O   UNL     1       5.191   4.003  13.775  0.00  0.00    +0.000 OA
BRANCH  15  17
ATOM     16  C   UNL     1       5.022   3.025  11.617  0.00  0.00    +0.000 C 
ATOM     17  C   UNL     1       5.975   3.405  12.737  0.00  0.00    +0.000 C 
ENDBRANCH  15  17
ENDBRANCH  13  15
ENDBRANCH   1  13
BRANCH   4  18
ATOM     18  C   UNL     1       3.372   7.046  18.283  0.00  0.00    +0.000 C 
BRANCH  18  19
ATOM     19  C   UNL     1       2.549   8.097  17.584  0.00  0.00    +0.000 C 
BRANCH  19  20
ATOM     20  C   UNL     1       1.575   8.780  18.497  0.00  0.00    +0.000 C 
ATOM     21  O   UNL     1       1.518   8.590  19.705  0.00  0.00    +0.000 OA
ATOM     22  N   UNL     1       0.719   9.590  17.789  0.00  0.00    +0.000 N 
ATOM     23  H   UNL     1       0.729   9.549  16.776  0.00  0.00    +0.000 HD
BRANCH  22  24
ATOM     24  C   UNL     1      -0.371  10.276  18.442  0.00  0.00    +0.000 C 
BRANCH  24  25
ATOM     25  C   UNL     1      -1.564  10.427  17.506  0.00  0.00    +0.000 C 
BRANCH  25  26
ATOM     26  C   UNL     1      -2.735  11.028  18.231  0.00  0.00    +0.000 A 
ATOM     27  C   UNL     1      -4.041  10.702  17.849  0.00  0.00    +0.000 A 
ATOM     28  C   UNL     1      -5.129  11.295  18.489  0.00  0.00    +0.000 A 
ATOM     29  C   UNL     1      -4.926  12.223  19.515  0.00  0.00    +0.000 A 
ATOM     30  C   UNL     1      -6.088  12.857  20.219  0.00  0.00    +0.000 C 
ATOM     31  C   UNL     1      -3.619  12.557  19.887  0.00  0.00    +0.000 A 
ATOM     32  C   UNL     1      -2.530  11.966  19.248  0.00  0.00    +0.000 A 
ENDBRANCH  25  26
ENDBRANCH  24  25
ENDBRANCH  22  24
ENDBRANCH  19  20
ENDBRANCH  18  19
ENDBRANCH   4  18
TORSDOF 10
ENDMDL
MODEL 5
REMARK VINA RESULT:      -7.7      2.156      2.825
REMARK  Name = 
REMARK  13 active torsions:
REMARK  status: ('A' for Active; 'I' for Inactive)
REMARK    1  A    between atoms: C_1  and  C_2
REMARK    2  A    between atoms: C_2  and  O_3
REMARK    3  A    between atoms: O_3  and  C_4
REMARK    4  A    between atoms: C_4  and  C_6
REMARK    5  A    between atoms: C_8  and  C_9
REMARK    6  A    between atoms: N_15  and  C_16
REMARK    7  A    between atoms: C_16  and  C_17
REMARK    8  A    between atoms: C_17  and  C_18
REMARK    9  A    between atoms: N_20  and  C_21
REMARK   10  A    between atoms: C_21  and  C_22
REMARK   11  A    between atoms: C_22  and  C_23
REMARK   12  A    between atoms: C_26  and  C_27
REMARK   13  A    between atoms: C_30  and  C_31
REMARK                            x       y       z     vdW  Elec       q    Type
REMARK                         _______ _______ _______ _____ _____    ______ ____
ROOT
ATOM      1  C   UNL     1       5.587   4.969  16.734  0.00  0.00    +0.000 A 
ATOM      2  C   UNL     1       4.796   3.991  17.382  0.00  0.00    +0.000 A 
ATOM      3  C   UNL     1       3.837   4.613  18.172  0.00  0.00    +0.000 A 
ATOM      4  N   UNL     1       4.036   5.998  18.004  0.00  0.00    +0.000 N 
ATOM      5  C   UNL     1       5.094   6.211  17.121  0.00  0.00    +0.000 A 
ATOM      6  C   UNL     1       5.653   7.504  16.604  0.00  0.00    +0.000 C 
ENDROOT
BRANCH   3   7
ATOM      7  C   UNL     1       2.853   3.936  19.065  0.00  0.00    +0.000 A 
ATOM      8  C   UNL     1       3.136   3.793  20.437  0.00  0.00    +0.000 A 
ATOM      9  C   UNL     1       2.240   3.168  21.313  0.00  0.00    +0.000 A 
ATOM     10  C   UNL     1       1.020   2.687  20.844  0.00  0.00    +0.000 A 
ATOM     11  C   UNL     1       0.723   2.799  19.493  0.00  0.00    +0.000 A 
ATOM     12  C   UNL     1       1.644   3.385  18.615  0.00  0.00    +0.000 A 
ENDBRANCH   3   7
BRANCH   1  13
ATOM     13  C   UNL     1       6.679   4.772  15.779  0.00  0.00    +0.000 C 
ATOM     14  O   UNL     1       7.846   4.604  16.100  0.00  0.00    +0.000 OA
BRANCH  13  15
ATOM     15  O   UNL     1       6.271   4.929  14.487  0.00  0.00    +0.000 OA
BRANCH  15  17
ATOM     16  C   UNL     1       6.589   3.887  12.375  0.00  0.00    +0.000 C 
ATOM     17  C   UNL     1       6.079   3.691  13.793  0.00  0.00    +0.000 C 
ENDBRANCH  15  17
ENDBRANCH  13  15
ENDBRANCH   1  13
BRANCH   4  18
ATOM     18  C   UNL     1       3.211   6.988  18.696  0.00  0.00    +0.000 C 
BRANCH  18  19
ATOM     19  C   UNL     1       1.991   7.537  18.000  0.00  0.00    +0.000 C 
BRANCH  19  20
ATOM     20  C   UNL     1       1.848   9.021  18.158  0.00  0.00    +0.000 C 
ATOM     21  O   UNL     1       2.437   9.844  17.471  0.00  0.00    +0.000 OA
ATOM     22  N   UNL     1       1.024   9.327  19.215  0.00  0.00    +0.000 N 
ATOM     23  H   UNL     1       0.722   8.584  19.835  0.00  0.00    +0.000 HD
BRANCH  22  24
ATOM     24  C   UNL     1       0.811  10.695  19.625  0.00  0.00    +0.000 C 
BRANCH  24  25
ATOM     25  C   UNL     1       0.785  10.817  21.144  0.00  0.00    +0.000 C 
BRANCH  25  26
ATOM     26  C   UNL     1      -0.511  11.419  21.607  0.00  0.00    +0.000 A 
ATOM     27  C   UNL     1      -0.965  11.194  22.911  0.00  0.00    +0.000 A 
ATOM     28  C   UNL     1      -2.190  11.712  23.328  0.00  0.00    +0.000 A 
ATOM     29  C   UNL     1      -2.979  12.459  22.446  0.00  0.00    +0.000 A 
ATOM     30  C   UNL     1      -4.292  13.032  22.887  0.00  0.00    +0.000 C 
ATOM     31  C   UNL     1      -2.530  12.672  21.139  0.00  0.00    +0.000 A 
ATOM     32  C   UNL     1      -1.305  12.154  20.720  0.00  0.00    +0.000 A 
ENDBRANCH  25  26
ENDBRANCH  24  25
ENDBRANCH  22  24
ENDBRANCH  19  20
ENDBRANCH  18  19
ENDBRANCH   4  18
TORSDOF 10
ENDMDL
MODEL 6
REMARK VINA RESULT:      -7.7      1.955      2.943
REMARK  Name = 
REMARK  13 active torsions:
REMARK  status: ('A' for Active; 'I' for Inactive)
REMARK    1  A    between atoms: C_1  and  C_2
REMARK    2  A    between atoms: C_2  and  O_3
REMARK    3  A    between atoms: O_3  and  C_4
REMARK    4  A    between atoms: C_4  and  C_6
REMARK    5  A    between atoms: C_8  and  C_9
REMARK    6  A    between atoms: N_15  and  C_16
REMARK    7  A    between atoms: C_16  and  C_17
REMARK    8  A    between atoms: C_17  and  C_18
REMARK    9  A    between atoms: N_20  and  C_21
REMARK   10  A    between atoms: C_21  and  C_22
REMARK   11  A    between atoms: C_22  and  C_23
REMARK   12  A    between atoms: C_26  and  C_27
REMARK   13  A    between atoms: C_30  and  C_31
REMARK                            x       y       z     vdW  Elec       q    Type
REMARK                         _______ _______ _______ _____ _____    ______ ____
ROOT
ATOM      1  C   UNL     1       5.411   4.634  16.746  0.00  0.00    +0.000 A 
ATOM      2  C   UNL     1       4.772   3.772  17.669  0.00  0.00    +0.000 A 
ATOM      3  C   UNL     1       3.655   4.404  18.202  0.00  0.00    +0.000 A 
ATOM      4  N   UNL     1       3.601   5.674  17.594  0.00  0.00    +0.000 N 
ATOM      5  C   UNL     1       4.664   5.806  16.701  0.00  0.00    +0.000 A 
ATOM      6  C   UNL     1       5.007   6.953  15.797  0.00  0.00    +0.000 C 
ENDROOT
BRANCH   3   7
ATOM      7  C   UNL     1       2.751   3.861  19.257  0.00  0.00    +0.000 A 
ATOM      8  C   UNL     1       1.564   3.201  18.890  0.00  0.00    +0.000 A 
ATOM      9  C   UNL     1       0.687   2.673  19.847  0.00  0.00    +0.000 A 
ATOM     10  C   UNL     1       0.988   2.770  21.203  0.00  0.00    +0.000 A 
ATOM     11  C   UNL     1       2.144   3.432  21.594  0.00  0.00    +0.000 A 
ATOM     12  C   UNL     1       2.992   3.996  20.633  0.00  0.00    +0.000 A 
ENDBRANCH   3   7
BRANCH   1  13
ATOM     13  C   UNL     1       6.590   4.370  15.920  0.00  0.00    +0.000 C 
ATOM     14  O   UNL     1       7.686   4.875  16.111  0.00  0.00    +0.000 OA
BRANCH  13  15
ATOM     15  O   UNL     1       6.297   3.599  14.832  0.00  0.00    +0.000 OA
BRANCH  15  17
ATOM     16  C   UNL     1       6.123   3.312  12.480  0.00  0.00    +0.000 C 
ATOM     17  C   UNL     1       6.318   4.323  13.596  0.00  0.00    +0.000 C 
ENDBRANCH  15  17
ENDBRANCH  13  15
ENDBRANCH   1  13
BRANCH   4  18
ATOM     18  C   UNL     1       2.554   6.643  17.916  0.00  0.00    +0.000 C 
BRANCH  18  19
ATOM     19  C   UNL     1       2.882   8.114  17.878  0.00  0.00    +0.000 C 
BRANCH  19  20
ATOM     20  C   UNL     1       1.921   8.948  18.670  0.00  0.00    +0.000 C 
ATOM     21  O   UNL     1       1.468   8.624  19.760  0.00  0.00    +0.000 OA
ATOM     22  N   UNL     1       1.568  10.083  17.980  0.00  0.00    +0.000 N 
ATOM     23  H   UNL     1       1.857  10.180  17.013  0.00  0.00    +0.000 HD
BRANCH  22  24
ATOM     24  C   UNL     1       0.576  10.995  18.498  0.00  0.00    +0.000 C 
BRANCH  24  25
ATOM     25  C   UNL     1       1.036  11.621  19.810  0.00  0.00    +0.000 C 
BRANCH  25  26
ATOM     26  C   UNL     1      -0.114  11.758  20.766  0.00  0.00    +0.000 A 
ATOM     27  C   UNL     1      -1.202  12.577  20.444  0.00  0.00    +0.000 A 
ATOM     28  C   UNL     1      -2.248  12.744  21.351  0.00  0.00    +0.000 A 
ATOM     29  C   UNL     1      -2.219  12.097  22.591  0.00  0.00    +0.000 A 
ATOM     30  C   UNL     1      -3.345  12.258  23.568  0.00  0.00    +0.000 C 
ATOM     31  C   UNL     1      -1.125  11.288  22.916  0.00  0.00    +0.000 A 
ATOM     32  C   UNL     1      -0.077  11.121  22.011  0.00  0.00    +0.000 A 
ENDBRANCH  25  26
ENDBRANCH  24  25
ENDBRANCH  22  24
ENDBRANCH  19  20
ENDBRANCH  18  19
ENDBRANCH   4  18
TORSDOF 10
ENDMDL
MODEL 7
REMARK VINA RESULT:      -7.6      5.268      8.864
REMARK  Name = 
REMARK  13 active torsions:
REMARK  status: ('A' for Active; 'I' for Inactive)
REMARK    1  A    between atoms: C_1  and  C_2
REMARK    2  A    between atoms: C_2  and  O_3
REMARK    3  A    between atoms: O_3  and  C_4
REMARK    4  A    between atoms: C_4  and  C_6
REMARK    5  A    between atoms: C_8  and  C_9
REMARK    6  A    between atoms: N_15  and  C_16
REMARK    7  A    between atoms: C_16  and  C_17
REMARK    8  A    between atoms: C_17  and  C_18
REMARK    9  A    between atoms: N_20  and  C_21
REMARK   10  A    between atoms: C_21  and  C_22
REMARK   11  A    between atoms: C_22  and  C_23
REMARK   12  A    between atoms: C_26  and  C_27
REMARK   13  A    between atoms: C_30  and  C_31
REMARK                            x       y       z     vdW  Elec       q    Type
REMARK                         _______ _______ _______ _____ _____    ______ ____
ROOT
ATOM      1  C   UNL     1       3.743   4.142  17.536  0.00  0.00    +0.000 A 
ATOM      2  C   UNL     1       4.024   3.803  16.191  0.00  0.00    +0.000 A 
ATOM      3  C   UNL     1       5.265   4.314  15.830  0.00  0.00    +0.000 A 
ATOM      4  N   UNL     1       5.760   4.974  16.973  0.00  0.00    +0.000 N 
ATOM      5  C   UNL     1       4.836   4.858  18.012  0.00  0.00    +0.000 A 
ATOM      6  C   UNL     1       4.928   5.357  19.424  0.00  0.00    +0.000 C 
ENDROOT
BRANCH   3   7
ATOM      7  C   UNL     1       5.897   4.235  14.481  0.00  0.00    +0.000 A 
ATOM      8  C   UNL     1       7.040   5.005  14.197  0.00  0.00    +0.000 A 
ATOM      9  C   UNL     1       7.667   4.959  12.945  0.00  0.00    +0.000 A 
ATOM     10  C   UNL     1       7.180   4.120  11.947  0.00  0.00    +0.000 A 
ATOM     11  C   UNL     1       6.044   3.362  12.194  0.00  0.00    +0.000 A 
ATOM     12  C   UNL     1       5.396   3.447  13.433  0.00  0.00    +0.000 A 
ENDBRANCH   3   7
BRANCH   1  13
ATOM     13  C   UNL     1       2.576   3.777  18.341  0.00  0.00    +0.000 C 
ATOM     14  O   UNL     1       1.588   4.483  18.472  0.00  0.00    +0.000 OA
BRANCH  13  15
ATOM     15  O   UNL     1       2.770   2.619  19.037  0.00  0.00    +0.000 OA
BRANCH  15  17
ATOM     16  C   UNL     1       2.565   2.858  21.392  0.00  0.00    +0.000 C 
ATOM     17  C   UNL     1       1.849   2.441  20.120  0.00  0.00    +0.000 C 
ENDBRANCH  15  17
ENDBRANCH  13  15
ENDBRANCH   1  13
BRANCH   4  18
ATOM     18  C   UNL     1       7.055   5.654  16.976  0.00  0.00    +0.000 C 
BRANCH  18  19
ATOM     19  C   UNL     1       7.089   7.160  17.038  0.00  0.00    +0.000 C 
BRANCH  19  20
ATOM     20  C   UNL     1       7.990   7.679  18.118  0.00  0.00    +0.000 C 
ATOM     21  O   UNL     1       8.441   6.992  19.024  0.00  0.00    +0.000 OA
ATOM     22  N   UNL     1       8.182   9.035  17.991  0.00  0.00    +0.000 N 
ATOM     23  H   UNL     1       7.628   9.548  17.315  0.00  0.00    +0.000 HD
BRANCH  22  24
ATOM     24  C   UNL     1       8.934   9.778  18.973  0.00  0.00    +0.000 C 
BRANCH  24  25
ATOM     25  C   UNL     1       9.655  10.960  18.336  0.00  0.00    +0.000 C 
BRANCH  25  26
ATOM     26  C   UNL     1       9.848  12.067  19.333  0.00  0.00    +0.000 A 
ATOM     27  C   UNL     1       9.492  11.876  20.672  0.00  0.00    +0.000 A 
ATOM     28  C   UNL     1       9.626  12.918  21.590  0.00  0.00    +0.000 A 
ATOM     29  C   UNL     1      10.113  14.163  21.180  0.00  0.00    +0.000 A 
ATOM     30  C   UNL     1      10.273  15.287  22.159  0.00  0.00    +0.000 C 
ATOM     31  C   UNL     1      10.456  14.356  19.837  0.00  0.00    +0.000 A 
ATOM     32  C   UNL     1      10.322  13.316  18.918  0.00  0.00    +0.000 A 
ENDBRANCH  25  26
ENDBRANCH  24  25
ENDBRANCH  22  24
ENDBRANCH  19  20
ENDBRANCH  18  19
ENDBRANCH   4  18
TORSDOF 10
ENDMDL
MODEL 8
REMARK VINA RESULT:      -7.6      1.253      1.792
REMARK  Name = 
REMARK  13 active torsions:
REMARK  status: ('A' for Active; 'I' for Inactive)
REMARK    1  A    between atoms: C_1  and  C_2
REMARK    2  A    between atoms: C_2  and  O_3
REMARK    3  A    between atoms: O_3  and  C_4
REMARK    4  A    between atoms: C_4  and  C_6
REMARK    5  A    between atoms: C_8  and  C_9
REMARK    6  A    between atoms: N_15  and  C_16
REMARK    7  A    between atoms: C_16  and  C_17
REMARK    8  A    between atoms: C_17  and  C_18
REMARK    9  A    between atoms: N_20  and  C_21
REMARK   10  A    between atoms: C_21  and  C_22
REMARK   11  A    between atoms: C_22  and  C_23
REMARK   12  A    between atoms: C_26  and  C_27
REMARK   13  A    between atoms: C_30  and  C_31
REMARK                            x       y       z     vdW  Elec       q    Type
REMARK                         _______ _______ _______ _____ _____    ______ ____
ROOT
ATOM      1  C   UNL     1       5.442   4.912  16.820  0.00  0.00    +0.000 A 
ATOM      2  C   UNL     1       4.850   3.990  17.715  0.00  0.00    +0.000 A 
ATOM      3  C   UNL     1       3.686   4.533  18.244  0.00  0.00    +0.000 A 
ATOM      4  N   UNL     1       3.554   5.809  17.661  0.00  0.00    +0.000 N 
ATOM      5  C   UNL     1       4.617   6.032  16.787  0.00  0.00    +0.000 A 
ATOM      6  C   UNL     1       4.894   7.219  15.912  0.00  0.00    +0.000 C 
ENDROOT
BRANCH   3   7
ATOM      7  C   UNL     1       2.806   3.908  19.274  0.00  0.00    +0.000 A 
ATOM      8  C   UNL     1       3.063   4.127  20.640  0.00  0.00    +0.000 A 
ATOM      9  C   UNL     1       2.262   3.563  21.641  0.00  0.00    +0.000 A 
ATOM     10  C   UNL     1       1.162   2.779  21.301  0.00  0.00    +0.000 A 
ATOM     11  C   UNL     1       0.896   2.532  19.961  0.00  0.00    +0.000 A 
ATOM     12  C   UNL     1       1.728   3.063  18.967  0.00  0.00    +0.000 A 
ENDBRANCH   3   7
BRANCH   1  13
ATOM     13  C   UNL     1       6.647   4.746  16.006  0.00  0.00    +0.000 C 
ATOM     14  O   UNL     1       7.601   5.509  16.033  0.00  0.00    +0.000 OA
BRANCH  13  15
ATOM     15  O   UNL     1       6.533   3.718  15.116  0.00  0.00    +0.000 OA
BRANCH  15  17
ATOM     16  C   UNL     1       6.562   3.818  12.742  0.00  0.00    +0.000 C 
ATOM     17  C   UNL     1       5.713   4.030  13.983  0.00  0.00    +0.000 C 
ENDBRANCH  15  17
ENDBRANCH  13  15
ENDBRANCH   1  13
BRANCH   4  18
ATOM     18  C   UNL     1       2.439   6.698  17.987  0.00  0.00    +0.000 C 
BRANCH  18  19
ATOM     19  C   UNL     1       2.668   8.188  17.986  0.00  0.00    +0.000 C 
BRANCH  19  20
ATOM     20  C   UNL     1       1.616   8.942  18.743  0.00  0.00    +0.000 C 
ATOM     21  O   UNL     1       1.505   8.928  19.961  0.00  0.00    +0.000 OA
ATOM     22  N   UNL     1       0.759   9.589  17.884  0.00  0.00    +0.000 N 
ATOM     23  H   UNL     1       0.823   9.400  16.890  0.00  0.00    +0.000 HD
BRANCH  22  24
ATOM     24  C   UNL     1      -0.396  10.301  18.378  0.00  0.00    +0.000 C 
BRANCH  24  25
ATOM     25  C   UNL     1      -1.534  10.274  17.365  0.00  0.00    +0.000 C 
BRANCH  25  26
ATOM     26  C   UNL     1      -2.789  10.847  17.959  0.00  0.00    +0.000 A 
ATOM     27  C   UNL     1      -2.712  11.834  18.947  0.00  0.00    +0.000 A 
ATOM     28  C   UNL     1      -3.875  12.333  19.533  0.00  0.00    +0.000 A 
ATOM     29  C   UNL     1      -5.128  11.850  19.142  0.00  0.00    +0.000 A 
ATOM     30  C   UNL     1      -6.385  12.389  19.756  0.00  0.00    +0.000 C 
ATOM     31  C   UNL     1      -5.202  10.854  18.162  0.00  0.00    +0.000 A 
ATOM     32  C   UNL     1      -4.041  10.353  17.576  0.00  0.00    +0.000 A 
ENDBRANCH  25  26
ENDBRANCH  24  25
ENDBRANCH  22  24
ENDBRANCH  19  20
ENDBRANCH  18  19
ENDBRANCH   4  18
TORSDOF 10
ENDMDL
MODEL 9
REMARK VINA RESULT:      -7.6      1.673      2.685
REMARK  Name = 
REMARK  13 active torsions:
REMARK  status: ('A' for Active; 'I' for Inactive)
REMARK    1  A    between atoms: C_1  and  C_2
REMARK    2  A    between atoms: C_2  and  O_3
REMARK    3  A    between atoms: O_3  and  C_4
REMARK    4  A    between atoms: C_4  and  C_6
REMARK    5  A    between atoms: C_8  and  C_9
REMARK    6  A    between atoms: N_15  and  C_16
REMARK    7  A    between atoms: C_16  and  C_17
REMARK    8  A    between atoms: C_17  and  C_18
REMARK    9  A    between atoms: N_20  and  C_21
REMARK   10  A    between atoms: C_21  and  C_22
REMARK   11  A    between atoms: C_22  and  C_23
REMARK   12  A    between atoms: C_26  and  C_27
REMARK   13  A    between atoms: C_30  and  C_31
REMARK                            x       y       z     vdW  Elec       q    Type
REMARK                         _______ _______ _______ _____ _____    ______ ____
ROOT
ATOM      1  C   UNL     1       5.272   4.797  16.310  0.00  0.00    +0.000 A 
ATOM      2  C   UNL     1       4.502   3.865  17.045  0.00  0.00    +0.000 A 
ATOM      3  C   UNL     1       3.684   4.539  17.943  0.00  0.00    +0.000 A 
ATOM      4  N   UNL     1       3.949   5.911  17.755  0.00  0.00    +0.000 N 
ATOM      5  C   UNL     1       4.908   6.065  16.754  0.00  0.00    +0.000 A 
ATOM      6  C   UNL     1       5.484   7.324  16.177  0.00  0.00    +0.000 C 
ENDROOT
BRANCH   3   7
ATOM      7  C   UNL     1       2.771   3.919  18.946  0.00  0.00    +0.000 A 
ATOM      8  C   UNL     1       3.236   3.654  20.247  0.00  0.00    +0.000 A 
ATOM      9  C   UNL     1       2.413   3.075  21.222  0.00  0.00    +0.000 A 
ATOM     10  C   UNL     1       1.088   2.766  20.926  0.00  0.00    +0.000 A 
ATOM     11  C   UNL     1       0.607   3.000  19.645  0.00  0.00    +0.000 A 
ATOM     12  C   UNL     1       1.450   3.537  18.664  0.00  0.00    +0.000 A 
ENDBRANCH   3   7
BRANCH   1  13
ATOM     13  C   UNL     1       6.229   4.540  15.233  0.00  0.00    +0.000 C 
ATOM     14  O   UNL     1       7.441   4.513  15.387  0.00  0.00    +0.000 OA
BRANCH  13  15
ATOM     15  O   UNL     1       5.625   4.464  14.011  0.00  0.00    +0.000 OA
BRANCH  15  17
ATOM     16  C   UNL     1       6.814   3.925  12.026  0.00  0.00    +0.000 C 
ATOM     17  C   UNL     1       6.070   3.355  13.221  0.00  0.00    +0.000 C 
ENDBRANCH  15  17
ENDBRANCH  13  15
ENDBRANCH   1  13
BRANCH   4  18
ATOM     18  C   UNL     1       3.276   6.945  18.541  0.00  0.00    +0.000 C 
BRANCH  18  19
ATOM     19  C   UNL     1       2.178   7.752  17.898  0.00  0.00    +0.000 C 
BRANCH  19  20
ATOM     20  C   UNL     1       1.665   8.850  18.781  0.00  0.00    +0.000 C 
ATOM     21  O   UNL     1       1.423   8.715  19.973  0.00  0.00    +0.000 OA
ATOM     22  N   UNL     1       1.443   9.999  18.060  0.00  0.00    +0.000 N 
ATOM     23  H   UNL     1       1.505   9.965  17.049  0.00  0.00    +0.000 HD
BRANCH  22  24
ATOM     24  C   UNL     1       0.855  11.165  18.676  0.00  0.00    +0.000 C 
BRANCH  24  25
ATOM     25  C   UNL     1      -0.665  11.140  18.564  0.00  0.00    +0.000 C 
BRANCH  25  26
ATOM     26  C   UNL     1      -1.301  11.531  19.868  0.00  0.00    +0.000 A 
ATOM     27  C   UNL     1      -2.457  12.318  19.878  0.00  0.00    +0.000 A 
ATOM     28  C   UNL     1      -3.022  12.722  21.087  0.00  0.00    +0.000 A 
ATOM     29  C   UNL     1      -2.437  12.348  22.301  0.00  0.00    +0.000 A 
ATOM     30  C   UNL     1      -3.042  12.765  23.607  0.00  0.00    +0.000 C 
ATOM     31  C   UNL     1      -1.273  11.571  22.289  0.00  0.00    +0.000 A 
ATOM     32  C   UNL     1      -0.707  11.167  21.081  0.00  0.00    +0.000 A 
ENDBRANCH  25  26
ENDBRANCH  24  25
ENDBRANCH  22  24
ENDBRANCH  19  20
ENDBRANCH  18  19
ENDBRANCH   4  18
TORSDOF 10
ENDMDL
