MODEL 1
REMARK VINA RESULT:      -7.2      0.000      0.000
REMARK  Name = 
REMARK  10 active torsions:
REMARK  status: ('A' for Active; 'I' for Inactive)
REMARK    1  A    between atoms: C_1  and  C_2
REMARK    2  A    between atoms: C_2  and  C_3
REMARK    3  A    between atoms: C_3  and  C_4
REMARK    4  A    between atoms: C_3  and  S_19
REMARK    5  A    between atoms: C_4  and  C_6
REMARK    6  A    between atoms: C_9  and  O_10
REMARK    7  A    between atoms: O_10  and  C_11
REMARK    8  A    between atoms: C_11  and  C_12
REMARK    9  A    between atoms: C_12  and  O_14
REMARK   10  A    between atoms: S_19  and  C_20
REMARK                            x       y       z     vdW  Elec       q    Type
REMARK                         _______ _______ _______ _____ _____    ______ ____
ROOT
ATOM      1  C   UNL     1       3.927   6.600  17.951  0.00  0.00    +0.000 A 
ATOM      2  C   UNL     1       3.172   7.782  17.913  0.00  0.00    +0.000 A 
ATOM      3  C   UNL     1       2.220   8.065  18.891  0.00  0.00    +0.000 A 
ATOM      4  C   UNL     1       1.983   7.166  19.927  0.00  0.00    +0.000 A 
ATOM      5  C   UNL     1       2.638   5.921  19.914  0.00  0.00    +0.000 A 
ATOM      6 CL   UNL     1       2.201   4.755  21.132  0.00  0.00    +0.000 Cl
ATOM      7  C   UNL     1       3.628   5.640  18.942  0.00  0.00    +0.000 A 
ATOM      8 CL   UNL     1       4.488   4.131  19.032  0.00  0.00    +0.000 Cl
ENDROOT
BRANCH   1   9
ATOM      9  C   UNL     1       5.008   6.409  16.921  0.00  0.00    +0.000 C 
ATOM     10  O   UNL     1       4.736   6.401  15.722  0.00  0.00    +0.000 OA
BRANCH   9  11
ATOM     11  C   UNL     1       6.457   6.233  17.369  0.00  0.00    +0.000 C 
BRANCH  11  12
ATOM     12  S   UNL     1       7.188   4.937  16.378  0.00  0.00    +0.000 S 
ATOM     13  C   UNL     1       5.862   3.847  15.901  0.00  0.00    +0.000 C 
ATOM     14  O   UNL     1       7.694   5.561  15.167  0.00  0.00    +0.000 OA
ATOM     15  O   UNL     1       8.099   4.195  17.232  0.00  0.00    +0.000 OA
ENDBRANCH  11  12
BRANCH  11  17
ATOM     16  C   UNL     1       8.288   7.661  18.414  0.00  0.00    +0.000 C 
ATOM     17  C   UNL     1       7.249   7.545  17.303  0.00  0.00    +0.000 C 
ENDBRANCH  11  17
ENDBRANCH   9  11
ENDBRANCH   1   9
BRANCH   4  18
ATOM     18  O   UNL     1       1.120   7.447  20.964  0.00  0.00    +0.000 OA
BRANCH  18  19
ATOM     19  C   UNL     1       0.734   8.825  21.062  0.00  0.00    +0.000 C 
BRANCH  19  20
ATOM     20  C   UNL     1       1.080   9.401  22.423  0.00  0.00    +0.000 C 
ATOM     21  O   UNL     1       0.264   9.970  23.138  0.00  0.00    +0.000 OA
BRANCH  20  22
ATOM     22  O   UNL     1       2.368   9.231  22.777  0.00  0.00    +0.000 OA
ATOM     23  H   UNL     1       2.504   9.484  23.718  0.00  0.00    +0.000 HD
ENDBRANCH  20  22
ENDBRANCH  19  20
ENDBRANCH  18  19
ENDBRANCH   4  18
TORSDOF 8
ENDMDL
MODEL 2
REMARK VINA RESULT:      -7.1      3.091      3.734
REMARK  Name = 
REMARK  10 active torsions:
REMARK  status: ('A' for Active; 'I' for Inactive)
REMARK    1  A    between atoms: C_1  and  C_2
REMARK    2  A    between atoms: C_2  and  C_3
REMARK    3  A    between atoms: C_3  and  C_4
REMARK    4  A    between atoms: C_3  and  S_19
REMARK    5  A    between atoms: C_4  and  C_6
REMARK    6  A    between atoms: C_9  and  O_10
REMARK    7  A    between atoms: O_10  and  C_11
REMARK    8  A    between atoms: C_11  and  C_12
REMARK    9  A    between atoms: C_12  and  O_14
REMARK   10  A    between atoms: S_19  and  C_20
REMARK                            x       y       z     vdW  Elec       q    Type
REMARK                         _______ _______ _______ _____ _____    ______ ____
ROOT
ATOM      1  C   UNL     1       4.336   5.794  17.318  0.00  0.00    +0.000 A 
ATOM      2  C   UNL     1       3.395   6.547  18.035  0.00  0.00    +0.000 A 
ATOM      3  C   UNL     1       2.259   5.955  18.584  0.00  0.00    +0.000 A 
ATOM      4  C   UNL     1       2.022   4.593  18.418  0.00  0.00    +0.000 A 
ATOM      5  C   UNL     1       2.887   3.845  17.597  0.00  0.00    +0.000 A 
ATOM      6 CL   UNL     1       2.476   2.183  17.277  0.00  0.00    +0.000 Cl
ATOM      7  C   UNL     1       4.058   4.434  17.062  0.00  0.00    +0.000 A 
ATOM      8 CL   UNL     1       5.153   3.441  16.145  0.00  0.00    +0.000 Cl
ENDROOT
BRANCH   1   9
ATOM      9  C   UNL     1       5.588   6.481  16.842  0.00  0.00    +0.000 C 
ATOM     10  O   UNL     1       5.734   6.763  15.654  0.00  0.00    +0.000 OA
BRANCH   9  11
ATOM     11  C   UNL     1       6.681   6.841  17.846  0.00  0.00    +0.000 C 
BRANCH  11  12
ATOM     12  S   UNL     1       7.282   5.322  18.574  0.00  0.00    +0.000 S 
ATOM     13  C   UNL     1       8.519   5.782  19.770  0.00  0.00    +0.000 C 
ATOM     14  O   UNL     1       6.172   4.732  19.303  0.00  0.00    +0.000 OA
ATOM     15  O   UNL     1       7.930   4.560  17.522  0.00  0.00    +0.000 OA
ENDBRANCH  11  12
BRANCH  11  17
ATOM     16  C   UNL     1       8.024   9.001  17.931  0.00  0.00    +0.000 C 
ATOM     17  C   UNL     1       7.801   7.675  17.212  0.00  0.00    +0.000 C 
ENDBRANCH  11  17
ENDBRANCH   9  11
ENDBRANCH   1   9
BRANCH   4  18
ATOM     18  O   UNL     1       0.964   3.949  19.021  0.00  0.00    +0.000 OA
BRANCH  18  19
ATOM     19  C   UNL     1       0.888   4.131  20.442  0.00  0.00    +0.000 C 
BRANCH  19  20
ATOM     20  C   UNL     1       1.684   3.071  21.179  0.00  0.00    +0.000 C 
ATOM     21  O   UNL     1       2.188   3.254  22.281  0.00  0.00    +0.000 OA
BRANCH  20  22
ATOM     22  O   UNL     1       1.788   1.904  20.514  0.00  0.00    +0.000 OA
ATOM     23  H   UNL     1       1.185   1.230  20.901  0.00  0.00    +0.000 HD
ENDBRANCH  20  22
ENDBRANCH  19  20
ENDBRANCH  18  19
ENDBRANCH   4  18
TORSDOF 8
ENDMDL
MODEL 3
REMARK VINA RESULT:      -6.8      1.940      2.816
REMARK  Name = 
REMARK  10 active torsions:
REMARK  status: ('A' for Active; 'I' for Inactive)
REMARK    1  A    between atoms: C_1  and  C_2
REMARK    2  A    between atoms: C_2  and  C_3
REMARK    3  A    between atoms: C_3  and  C_4
REMARK    4  A    between atoms: C_3  and  S_19
REMARK    5  A    between atoms: C_4  and  C_6
REMARK    6  A    between atoms: C_9  and  O_10
REMARK    7  A    between atoms: O_10  and  C_11
REMARK    8  A    between atoms: C_11  and  C_12
REMARK    9  A    between atoms: C_12  and  O_14
REMARK   10  A    between atoms: S_19  and  C_20
REMARK                            x       y       z     vdW  Elec       q    Type
REMARK                         _______ _______ _______ _____ _____    ______ ____
ROOT
ATOM      1  C   UNL     1       3.739   5.599  17.859  0.00  0.00    +0.000 A 
ATOM      2  C   UNL     1       3.656   6.851  17.232  0.00  0.00    +0.000 A 
ATOM      3  C   UNL     1       2.952   7.905  17.812  0.00  0.00    +0.000 A 
ATOM      4  C   UNL     1       2.296   7.733  19.027  0.00  0.00    +0.000 A 
ATOM      5  C   UNL     1       2.262   6.452  19.609  0.00  0.00    +0.000 A 
ATOM      6 CL   UNL     1       1.299   6.232  21.044  0.00  0.00    +0.000 Cl
ATOM      7  C   UNL     1       3.000   5.386  19.043  0.00  0.00    +0.000 A 
ATOM      8 CL   UNL     1       3.016   3.850  19.858  0.00  0.00    +0.000 Cl
ENDROOT
BRANCH   1   9
ATOM      9  C   UNL     1       4.601   4.539  17.226  0.00  0.00    +0.000 C 
ATOM     10  O   UNL     1       4.226   3.369  17.185  0.00  0.00    +0.000 OA
BRANCH   9  11
ATOM     11  C   UNL     1       5.950   4.923  16.621  0.00  0.00    +0.000 C 
BRANCH  11  12
ATOM     12  S   UNL     1       7.165   4.919  17.933  0.00  0.00    +0.000 S 
ATOM     13  C   UNL     1       7.658   6.613  18.179  0.00  0.00    +0.000 C 
ATOM     14  O   UNL     1       6.485   4.485  19.141  0.00  0.00    +0.000 OA
ATOM     15  O   UNL     1       8.319   4.176  17.457  0.00  0.00    +0.000 OA
ENDBRANCH  11  12
BRANCH  11  17
ATOM     16  C   UNL     1       6.787   4.798  14.220  0.00  0.00    +0.000 C 
ATOM     17  C   UNL     1       6.342   4.013  15.450  0.00  0.00    +0.000 C 
ENDBRANCH  11  17
ENDBRANCH   9  11
ENDBRANCH   1   9
BRANCH   4  18
ATOM     18  O   UNL     1       1.668   8.771  19.680  0.00  0.00    +0.000 OA
BRANCH  18  19
ATOM     19  C   UNL     1       1.154   9.794  18.817  0.00  0.00    +0.000 C 
BRANCH  19  20
ATOM     20  C   UNL     1      -0.271  10.163  19.183  0.00  0.00    +0.000 C 
ATOM     21  O   UNL     1      -1.192  10.174  18.375  0.00  0.00    +0.000 OA
BRANCH  20  22
ATOM     22  O   UNL     1      -0.437  10.480  20.482  0.00  0.00    +0.000 OA
ATOM     23  H   UNL     1      -0.235   9.707  21.055  0.00  0.00    +0.000 HD
ENDBRANCH  20  22
ENDBRANCH  19  20
ENDBRANCH  18  19
ENDBRANCH   4  18
TORSDOF 8
ENDMDL
MODEL 4
REMARK VINA RESULT:      -6.8      3.522      6.395
REMARK  Name = 
REMARK  10 active torsions:
REMARK  status: ('A' for Active; 'I' for Inactive)
REMARK    1  A    between atoms: C_1  and  C_2
REMARK    2  A    between atoms: C_2  and  C_3
REMARK    3  A    between atoms: C_3  and  C_4
REMARK    4  A    between atoms: C_3  and  S_19
REMARK    5  A    between atoms: C_4  and  C_6
REMARK    6  A    between atoms: C_9  and  O_10
REMARK    7  A    between atoms: O_10  and  C_11
REMARK    8  A    between atoms: C_11  and  C_12
REMARK    9  A    between atoms: C_12  and  O_14
REMARK   10  A    between atoms: S_19  and  C_20
REMARK                            x       y       z     vdW  Elec       q    Type
REMARK                         _______ _______ _______ _____ _____    ______ ____
ROOT
ATOM      1  C   UNL     1       3.217   4.632  17.750  0.00  0.00    +0.000 A 
ATOM      2  C   UNL     1       4.026   3.514  17.502  0.00  0.00    +0.000 A 
ATOM      3  C   UNL     1       5.380   3.652  17.200  0.00  0.00    +0.000 A 
ATOM      4  C   UNL     1       5.960   4.914  17.118  0.00  0.00    +0.000 A 
ATOM      5  C   UNL     1       5.140   6.052  17.239  0.00  0.00    +0.000 A 
ATOM      6 CL   UNL     1       5.865   7.613  16.973  0.00  0.00    +0.000 Cl
ATOM      7  C   UNL     1       3.772   5.918  17.577  0.00  0.00    +0.000 A 
ATOM      8 CL   UNL     1       2.825   7.356  17.824  0.00  0.00    +0.000 Cl
ENDROOT
BRANCH   1   9
ATOM      9  C   UNL     1       1.790   4.402  18.171  0.00  0.00    +0.000 C 
ATOM     10  O   UNL     1       0.909   4.232  17.331  0.00  0.00    +0.000 OA
BRANCH   9  11
ATOM     11  C   UNL     1       1.436   4.369  19.657  0.00  0.00    +0.000 C 
BRANCH  11  12
ATOM     12  S   UNL     1       1.718   2.708  20.254  0.00  0.00    +0.000 S 
ATOM     13  C   UNL     1       3.445   2.601  20.676  0.00  0.00    +0.000 C 
ATOM     14  O   UNL     1       0.960   2.564  21.486  0.00  0.00    +0.000 OA
ATOM     15  O   UNL     1       1.464   1.798  19.151  0.00  0.00    +0.000 OA
ENDBRANCH  11  12
BRANCH  11  17
ATOM     16  C   UNL     1       1.336   6.617  20.847  0.00  0.00    +0.000 C 
ATOM     17  C   UNL     1       2.205   5.425  20.461  0.00  0.00    +0.000 C 
ENDBRANCH  11  17
ENDBRANCH   9  11
ENDBRANCH   1   9
BRANCH   4  18
ATOM     18  O   UNL     1       7.311   5.094  16.915  0.00  0.00    +0.000 OA
BRANCH  18  19
ATOM     19  C   UNL     1       8.137   4.706  18.022  0.00  0.00    +0.000 C 
BRANCH  19  20
ATOM     20  C   UNL     1       7.963   5.649  19.198  0.00  0.00    +0.000 C 
ATOM     21  O   UNL     1       7.428   5.319  20.250  0.00  0.00    +0.000 OA
BRANCH  20  22
ATOM     22  O   UNL     1       8.451   6.886  18.984  0.00  0.00    +0.000 OA
ATOM     23  H   UNL     1       9.415   6.850  18.793  0.00  0.00    +0.000 HD
ENDBRANCH  20  22
ENDBRANCH  19  20
ENDBRANCH  18  19
ENDBRANCH   4  18
TORSDOF 8
ENDMDL
MODEL 5
REMARK VINA RESULT:      -6.8      2.621      3.799
REMARK  Name = 
REMARK  10 active torsions:
REMARK  status: ('A' for Active; 'I' for Inactive)
REMARK    1  A    between atoms: C_1  and  C_2
REMARK    2  A    between atoms: C_2  and  C_3
REMARK    3  A    between atoms: C_3  and  C_4
REMARK    4  A    between atoms: C_3  and  S_19
REMARK    5  A    between atoms: C_4  and  C_6
REMARK    6  A    between atoms: C_9  and  O_10
REMARK    7  A    between atoms: O_10  and  C_11
REMARK    8  A    between atoms: C_11  and  C_12
REMARK    9  A    between atoms: C_12  and  O_14
REMARK   10  A    between atoms: S_19  and  C_20
REMARK                            x       y       z     vdW  Elec       q    Type
REMARK                         _______ _______ _______ _____ _____    ______ ____
ROOT
ATOM      1  C   UNL     1       4.335   5.808  18.449  0.00  0.00    +0.000 A 
ATOM      2  C   UNL     1       4.740   4.611  19.058  0.00  0.00    +0.000 A 
ATOM      3  C   UNL     1       3.982   4.019  20.068  0.00  0.00    +0.000 A 
ATOM      4  C   UNL     1       2.805   4.617  20.510  0.00  0.00    +0.000 A 
ATOM      5  C   UNL     1       2.447   5.879  20.001  0.00  0.00    +0.000 A 
ATOM      6 CL   UNL     1       1.059   6.674  20.690  0.00  0.00    +0.000 Cl
ATOM      7  C   UNL     1       3.195   6.470  18.955  0.00  0.00    +0.000 A 
ATOM      8 CL   UNL     1       2.651   7.979  18.283  0.00  0.00    +0.000 Cl
ENDROOT
BRANCH   1   9
ATOM      9  C   UNL     1       5.148   6.334  17.297  0.00  0.00    +0.000 C 
ATOM     10  O   UNL     1       4.596   6.801  16.303  0.00  0.00    +0.000 OA
BRANCH   9  11
ATOM     11  C   UNL     1       6.673   6.297  17.368  0.00  0.00    +0.000 C 
BRANCH  11  12
ATOM     12  S   UNL     1       7.244   4.981  16.301  0.00  0.00    +0.000 S 
ATOM     13  C   UNL     1       5.815   4.002  15.886  0.00  0.00    +0.000 C 
ATOM     14  O   UNL     1       7.715   5.602  15.075  0.00  0.00    +0.000 OA
ATOM     15  O   UNL     1       8.151   4.153  17.075  0.00  0.00    +0.000 OA
ENDBRANCH  11  12
BRANCH  11  17
ATOM     16  C   UNL     1       8.167   8.201  18.156  0.00  0.00    +0.000 C 
ATOM     17  C   UNL     1       7.304   7.652  17.025  0.00  0.00    +0.000 C 
ENDBRANCH  11  17
ENDBRANCH   9  11
ENDBRANCH   1   9
BRANCH   4  18
ATOM     18  O   UNL     1       1.979   4.021  21.437  0.00  0.00    +0.000 OA
BRANCH  18  19
ATOM     19  C   UNL     1       1.702   2.636  21.186  0.00  0.00    +0.000 C 
BRANCH  19  20
ATOM     20  C   UNL     1       1.089   2.434  19.814  0.00  0.00    +0.000 C 
ATOM     21  O   UNL     1       1.640   1.809  18.916  0.00  0.00    +0.000 OA
BRANCH  20  22
ATOM     22  O   UNL     1      -0.122   3.007  19.667  0.00  0.00    +0.000 OA
ATOM     23  H   UNL     1      -0.633   2.557  18.957  0.00  0.00    +0.000 HD
ENDBRANCH  20  22
ENDBRANCH  19  20
ENDBRANCH  18  19
ENDBRANCH   4  18
TORSDOF 8
ENDMDL
MODEL 6
REMARK VINA RESULT:      -6.8      1.382      1.728
REMARK  Name = 
REMARK  10 active torsions:
REMARK  status: ('A' for Active; 'I' for Inactive)
REMARK    1  A    between atoms: C_1  and  C_2
REMARK    2  A    between atoms: C_2  and  C_3
REMARK    3  A    between atoms: C_3  and  C_4
REMARK    4  A    between atoms: C_3  and  S_19
REMARK    5  A    between atoms: C_4  and  C_6
REMARK    6  A    between atoms: C_9  and  O_10
REMARK    7  A    between atoms: O_10  and  C_11
REMARK    8  A    between atoms: C_11  and  C_12
REMARK    9  A    between atoms: C_12  and  O_14
REMARK   10  A    between atoms: S_19  and  C_20
REMARK                            x       y       z     vdW  Elec       q    Type
REMARK                         _______ _______ _______ _____ _____    ______ ____
ROOT
ATOM      1  C   UNL     1       3.955   4.778  18.155  0.00  0.00    +0.000 A 
ATOM      2  C   UNL     1       3.397   6.024  17.834  0.00  0.00    +0.000 A 
ATOM      3  C   UNL     1       2.572   6.702  18.729  0.00  0.00    +0.000 A 
ATOM      4  C   UNL     1       2.266   6.144  19.968  0.00  0.00    +0.000 A 
ATOM      5  C   UNL     1       2.712   4.842  20.260  0.00  0.00    +0.000 A 
ATOM      6 CL   UNL     1       2.179   4.110  21.747  0.00  0.00    +0.000 Cl
ATOM      7  C   UNL     1       3.575   4.162  19.368  0.00  0.00    +0.000 A 
ATOM      8 CL   UNL     1       4.189   2.599  19.822  0.00  0.00    +0.000 Cl
ENDROOT
BRANCH   1   9
ATOM      9  C   UNL     1       4.918   4.154  17.182  0.00  0.00    +0.000 C 
ATOM     10  O   UNL     1       4.595   3.163  16.529  0.00  0.00    +0.000 OA
BRANCH   9  11
ATOM     11  C   UNL     1       6.307   4.762  16.996  0.00  0.00    +0.000 C 
BRANCH  11  12
ATOM     12  S   UNL     1       6.451   5.297  15.296  0.00  0.00    +0.000 S 
ATOM     13  C   UNL     1       6.232   3.850  14.282  0.00  0.00    +0.000 C 
ATOM     14  O   UNL     1       5.331   6.185  15.033  0.00  0.00    +0.000 OA
ATOM     15  O   UNL     1       7.806   5.783  15.105  0.00  0.00    +0.000 OA
ENDBRANCH  11  12
BRANCH  11  17
ATOM     16  C   UNL     1       7.747   5.572  18.932  0.00  0.00    +0.000 C 
ATOM     17  C   UNL     1       6.586   5.891  17.997  0.00  0.00    +0.000 C 
ENDBRANCH  11  17
ENDBRANCH   9  11
ENDBRANCH   1   9
BRANCH   4  18
ATOM     18  O   UNL     1       1.532   6.819  20.919  0.00  0.00    +0.000 OA
BRANCH  18  19
ATOM     19  C   UNL     1       1.351   8.217  20.652  0.00  0.00    +0.000 C 
BRANCH  19  20
ATOM     20  C   UNL     1       0.980   8.977  21.911  0.00  0.00    +0.000 C 
ATOM     21  O   UNL     1      -0.160   9.347  22.162  0.00  0.00    +0.000 OA
BRANCH  20  22
ATOM     22  O   UNL     1       2.021   9.213  22.734  0.00  0.00    +0.000 OA
ATOM     23  H   UNL     1       2.383  10.116  22.584  0.00  0.00    +0.000 HD
ENDBRANCH  20  22
ENDBRANCH  19  20
ENDBRANCH  18  19
ENDBRANCH   4  18
TORSDOF 8
ENDMDL
MODEL 7
REMARK VINA RESULT:      -6.7      2.840      3.701
REMARK  Name = 
REMARK  10 active torsions:
REMARK  status: ('A' for Active; 'I' for Inactive)
REMARK    1  A    between atoms: C_1  and  C_2
REMARK    2  A    between atoms: C_2  and  C_3
REMARK    3  A    between atoms: C_3  and  C_4
REMARK    4  A    between atoms: C_3  and  S_19
REMARK    5  A    between atoms: C_4  and  C_6
REMARK    6  A    between atoms: C_9  and  O_10
REMARK    7  A    between atoms: O_10  and  C_11
REMARK    8  A    between atoms: C_11  and  C_12
REMARK    9  A    between atoms: C_12  and  O_14
REMARK   10  A    between atoms: S_19  and  C_20
REMARK                            x       y       z     vdW  Elec       q    Type
REMARK                         _______ _______ _______ _____ _____    ______ ____
ROOT
ATOM      1  C   UNL     1       2.996   7.036  18.701  0.00  0.00    +0.000 A 
ATOM      2  C   UNL     1       2.927   8.066  17.752  0.00  0.00    +0.000 A 
ATOM      3  C   UNL     1       2.111   9.179  17.948  0.00  0.00    +0.000 A 
ATOM      4  C   UNL     1       1.326   9.286  19.092  0.00  0.00    +0.000 A 
ATOM      5  C   UNL     1       1.285   8.209  19.996  0.00  0.00    +0.000 A 
ATOM      6 CL   UNL     1       0.173   8.304  21.333  0.00  0.00    +0.000 Cl
ATOM      7  C   UNL     1       2.134   7.090  19.819  0.00  0.00    +0.000 A 
ATOM      8 CL   UNL     1       2.128   5.833  21.020  0.00  0.00    +0.000 Cl
ENDROOT
BRANCH   1   9
ATOM      9  C   UNL     1       3.975   5.917  18.472  0.00  0.00    +0.000 C 
ATOM     10  O   UNL     1       4.606   5.435  19.410  0.00  0.00    +0.000 OA
BRANCH   9  11
ATOM     11  C   UNL     1       4.178   5.367  17.061  0.00  0.00    +0.000 C 
BRANCH  11  12
ATOM     12  S   UNL     1       5.787   5.898  16.489  0.00  0.00    +0.000 S 
ATOM     13  C   UNL     1       6.929   4.592  16.886  0.00  0.00    +0.000 C 
ATOM     14  O   UNL     1       5.715   5.986  15.040  0.00  0.00    +0.000 OA
ATOM     15  O   UNL     1       6.157   7.074  17.257  0.00  0.00    +0.000 OA
ENDBRANCH  11  12
BRANCH  11  17
ATOM     16  C   UNL     1       2.572   3.407  17.302  0.00  0.00    +0.000 C 
ATOM     17  C   UNL     1       4.002   3.845  16.999  0.00  0.00    +0.000 C 
ENDBRANCH  11  17
ENDBRANCH   9  11
ENDBRANCH   1   9
BRANCH   4  18
ATOM     18  O   UNL     1       0.577  10.409  19.371  0.00  0.00    +0.000 OA
BRANCH  18  19
ATOM     19  C   UNL     1      -0.533  10.620  18.488  0.00  0.00    +0.000 C 
BRANCH  19  20
ATOM     20  C   UNL     1      -0.956  12.077  18.468  0.00  0.00    +0.000 C 
ATOM     21  O   UNL     1      -0.949  12.792  19.463  0.00  0.00    +0.000 OA
BRANCH  20  22
ATOM     22  O   UNL     1      -1.341  12.518  17.255  0.00  0.00    +0.000 OA
ATOM     23  H   UNL     1      -1.251  13.496  17.198  0.00  0.00    +0.000 HD
ENDBRANCH  20  22
ENDBRANCH  19  20
ENDBRANCH  18  19
ENDBRANCH   4  18
TORSDOF 8
ENDMDL
MODEL 8
REMARK VINA RESULT:      -6.7      2.099      3.009
REMARK  Name = 
REMARK  10 active torsions:
REMARK  status: ('A' for Active; 'I' for Inactive)
REMARK    1  A    between atoms: C_1  and  C_2
REMARK    2  A    between atoms: C_2  and  C_3
REMARK    3  A    between atoms: C_3  and  C_4
REMARK    4  A    between atoms: C_3  and  S_19
REMARK    5  A    between atoms: C_4  and  C_6
REMARK    6  A    between atoms: C_9  and  O_10
REMARK    7  A    between atoms: O_10  and  C_11
REMARK    8  A    between atoms: C_11  and  C_12
REMARK    9  A    between atoms: C_12  and  O_14
REMARK   10  A    between atoms: S_19  and  C_20
REMARK                            x       y       z     vdW  Elec       q    Type
REMARK                         _______ _______ _______ _____ _____    ______ ____
ROOT
ATOM      1  C   UNL     1       3.736   5.737  17.948  0.00  0.00    +0.000 A 
ATOM      2  C   UNL     1       3.630   6.932  17.222  0.00  0.00    +0.000 A 
ATOM      3  C   UNL     1       2.890   8.010  17.705  0.00  0.00    +0.000 A 
ATOM      4  C   UNL     1       2.220   7.918  18.922  0.00  0.00    +0.000 A 
ATOM      5  C   UNL     1       2.210   6.688  19.605  0.00  0.00    +0.000 A 
ATOM      6 CL   UNL     1       1.232   6.558  21.040  0.00  0.00    +0.000 Cl
ATOM      7  C   UNL     1       2.984   5.600  19.136  0.00  0.00    +0.000 A 
ATOM      8 CL   UNL     1       3.028   4.135  20.073  0.00  0.00    +0.000 Cl
ENDROOT
BRANCH   1   9
ATOM      9  C   UNL     1       4.634   4.653  17.415  0.00  0.00    +0.000 C 
ATOM     10  O   UNL     1       4.526   3.496  17.815  0.00  0.00    +0.000 OA
BRANCH   9  11
ATOM     11  C   UNL     1       5.683   4.993  16.358  0.00  0.00    +0.000 C 
BRANCH  11  12
ATOM     12  S   UNL     1       7.209   5.387  17.202  0.00  0.00    +0.000 S 
ATOM     13  C   UNL     1       6.807   5.577  18.926  0.00  0.00    +0.000 C 
ATOM     14  O   UNL     1       8.074   4.226  17.083  0.00  0.00    +0.000 OA
ATOM     15  O   UNL     1       7.667   6.671  16.700  0.00  0.00    +0.000 OA
ENDBRANCH  11  12
BRANCH  11  17
ATOM     16  C   UNL     1       6.462   4.366  14.017  0.00  0.00    +0.000 C 
ATOM     17  C   UNL     1       5.852   3.872  15.324  0.00  0.00    +0.000 C 
ENDBRANCH  11  17
ENDBRANCH   9  11
ENDBRANCH   1   9
BRANCH   4  18
ATOM     18  O   UNL     1       1.556   8.988  19.481  0.00  0.00    +0.000 OA
BRANCH  18  19
ATOM     19  C   UNL     1       1.267  10.054  18.566  0.00  0.00    +0.000 C 
BRANCH  19  20
ATOM     20  C   UNL     1      -0.219  10.356  18.519  0.00  0.00    +0.000 C 
ATOM     21  O   UNL     1      -0.819  10.918  19.427  0.00  0.00    +0.000 OA
BRANCH  20  22
ATOM     22  O   UNL     1      -0.824   9.950  17.386  0.00  0.00    +0.000 OA
ATOM     23  H   UNL     1      -0.185   9.487  16.799  0.00  0.00    +0.000 HD
ENDBRANCH  20  22
ENDBRANCH  19  20
ENDBRANCH  18  19
ENDBRANCH   4  18
TORSDOF 8
ENDMDL
MODEL 9
REMARK VINA RESULT:      -6.7      3.098      3.765
REMARK  Name = 
REMARK  10 active torsions:
REMARK  status: ('A' for Active; 'I' for Inactive)
REMARK    1  A    between atoms: C_1  and  C_2
REMARK    2  A    between atoms: C_2  and  C_3
REMARK    3  A    between atoms: C_3  and  C_4
REMARK    4  A    between atoms: C_3  and  S_19
REMARK    5  A    between atoms: C_4  and  C_6
REMARK    6  A    between atoms: C_9  and  O_10
REMARK    7  A    between atoms: O_10  and  C_11
REMARK    8  A    between atoms: C_11  and  C_12
REMARK    9  A    between atoms: C_12  and  O_14
REMARK   10  A    between atoms: S_19  and  C_20
REMARK                            x       y       z     vdW  Elec       q    Type
REMARK                         _______ _______ _______ _____ _____    ______ ____
ROOT
ATOM      1  C   UNL     1       4.311   5.792  17.573  0.00  0.00    +0.000 A 
ATOM      2  C   UNL     1       3.489   6.441  18.506  0.00  0.00    +0.000 A 
ATOM      3  C   UNL     1       2.439   5.775  19.135  0.00  0.00    +0.000 A 
ATOM      4  C   UNL     1       2.168   4.442  18.835  0.00  0.00    +0.000 A 
ATOM      5  C   UNL     1       2.899   3.810  17.813  0.00  0.00    +0.000 A 
ATOM      6 CL   UNL     1       2.431   2.197  17.351  0.00  0.00    +0.000 Cl
ATOM      7  C   UNL     1       3.987   4.471  17.193  0.00  0.00    +0.000 A 
ATOM      8 CL   UNL     1       4.930   3.610  16.012  0.00  0.00    +0.000 Cl
ENDROOT
BRANCH   1   9
ATOM      9  C   UNL     1       5.488   6.543  17.012  0.00  0.00    +0.000 C 
ATOM     10  O   UNL     1       5.576   6.758  15.804  0.00  0.00    +0.000 OA
BRANCH   9  11
ATOM     11  C   UNL     1       6.578   7.053  17.952  0.00  0.00    +0.000 C 
BRANCH  11  12
ATOM     12  S   UNL     1       7.279   5.644  18.799  0.00  0.00    +0.000 S 
ATOM     13  C   UNL     1       7.709   4.454  17.546  0.00  0.00    +0.000 C 
ATOM     14  O   UNL     1       8.517   6.090  19.416  0.00  0.00    +0.000 OA
ATOM     15  O   UNL     1       6.235   5.069  19.629  0.00  0.00    +0.000 OA
ENDBRANCH  11  12
BRANCH  11  17
ATOM     16  C   UNL     1       8.056   9.125  18.005  0.00  0.00    +0.000 C 
ATOM     17  C   UNL     1       7.635   7.888  17.218  0.00  0.00    +0.000 C 
ENDBRANCH  11  17
ENDBRANCH   9  11
ENDBRANCH   1   9
BRANCH   4  18
ATOM     18  O   UNL     1       1.202   3.719  19.500  0.00  0.00    +0.000 OA
BRANCH  18  19
ATOM     19  C   UNL     1       1.675   2.508  20.105  0.00  0.00    +0.000 C 
BRANCH  19  20
ATOM     20  C   UNL     1       2.529   2.796  21.326  0.00  0.00    +0.000 C 
ATOM     21  O   UNL     1       2.136   3.456  22.280  0.00  0.00    +0.000 OA
BRANCH  20  22
ATOM     22  O   UNL     1       3.764   2.261  21.268  0.00  0.00    +0.000 OA
ATOM     23  H   UNL     1       4.266   2.461  22.090  0.00  0.00    +0.000 HD
ENDBRANCH  20  22
ENDBRANCH  19  20
ENDBRANCH  18  19
ENDBRANCH   4  18
TORSDOF 8
ENDMDL
