MODEL 1
REMARK VINA RESULT:      -7.3      0.000      0.000
REMARK  Name = 
REMARK  6 active torsions:
REMARK  status: ('A' for Active; 'I' for Inactive)
REMARK    1  A    between atoms: C_1  and  C_2
REMARK    2  A    between atoms: C_2  and  N_3
REMARK    3  A    between atoms: N_3  and  C_4
REMARK    4  A    between atoms: N_3  and  C_6
REMARK    5  A    between atoms: C_4  and  C_5
REMARK    6  A    between atoms: C_14  and  N_15
REMARK                            x       y       z     vdW  Elec       q    Type
REMARK                         _______ _______ _______ _____ _____    ______ ____
ROOT
ATOM      1  C   UNL     1       2.876   5.031  19.477  0.00  0.00    +0.000 A 
ATOM      2  C   UNL     1       3.203   5.593  18.230  0.00  0.00    +0.000 A 
ATOM      3  C   UNL     1       2.866   6.907  17.880  0.00  0.00    +0.000 A 
ATOM      4  C   UNL     1       2.223   7.732  18.775  0.00  0.00    +0.000 A 
ATOM      5  N   UNL     1       1.889   8.982  18.428  0.00  0.00    +0.000 NA
ATOM      6  C   UNL     1       1.268   9.667  19.387  0.00  0.00    +0.000 A 
ATOM      7  C   UNL     1       0.851  10.962  19.154  0.00  0.00    +0.000 A 
ATOM      8  C   UNL     1       0.188  11.689  20.149  0.00  0.00    +0.000 A 
ATOM      9  C   UNL     1      -0.064  11.165  21.427  0.00  0.00    +0.000 A 
ATOM     10  C   UNL     1       0.362   9.850  21.654  0.00  0.00    +0.000 A 
ATOM     11  C   UNL     1       1.007   9.104  20.667  0.00  0.00    +0.000 A 
ATOM     12  O   UNL     1       1.351   7.918  20.951  0.00  0.00    +0.000 OA
ATOM     13  C   UNL     1       1.926   7.215  20.062  0.00  0.00    +0.000 A 
ATOM     14  C   UNL     1       2.251   5.896  20.392  0.00  0.00    +0.000 A 
ENDROOT
BRANCH   9  15
ATOM     15  N   UNL     1      -0.706  11.888  22.406  0.00  0.00    +0.000 N 
ATOM     16  C   UNL     1      -1.813  11.397  23.237  0.00  0.00    +0.000 C 
ATOM     17  C   UNL     1      -2.781  12.571  23.278  0.00  0.00    +0.000 C 
ATOM     18  C   UNL     1      -1.861  13.776  23.299  0.00  0.00    +0.000 C 
ATOM     19  C   UNL     1      -0.678  13.360  22.425  0.00  0.00    +0.000 C 
ENDBRANCH   9  15
BRANCH   1  20
ATOM     20  N   UNL     1       3.122   3.685  19.774  0.00  0.00    +0.000 N 
BRANCH  20  22
ATOM     21  C   UNL     1       2.950   1.966  17.971  0.00  0.00    +0.000 C 
ATOM     22  C   UNL     1       3.873   2.828  18.831  0.00  0.00    +0.000 C 
ENDBRANCH  20  22
BRANCH  20  23
ATOM     23  C   UNL     1       2.758   3.191  21.122  0.00  0.00    +0.000 C 
ATOM     24  C   UNL     1       1.357   2.652  21.339  0.00  0.00    +0.000 C 
ENDBRANCH  20  23
ENDBRANCH   1  20
TORSDOF 4
ENDMDL
MODEL 2
REMARK VINA RESULT:      -7.2      2.787      8.835
REMARK  Name = 
REMARK  6 active torsions:
REMARK  status: ('A' for Active; 'I' for Inactive)
REMARK    1  A    between atoms: C_1  and  C_2
REMARK    2  A    between atoms: C_2  and  N_3
REMARK    3  A    between atoms: N_3  and  C_4
REMARK    4  A    between atoms: N_3  and  C_6
REMARK    5  A    between atoms: C_4  and  C_5
REMARK    6  A    between atoms: C_14  and  N_15
REMARK                            x       y       z     vdW  Elec       q    Type
REMARK                         _______ _______ _______ _____ _____    ______ ____
ROOT
ATOM      1  C   UNL     1       0.467  10.294  19.256  0.00  0.00    +0.000 A 
ATOM      2  C   UNL     1       0.319   9.704  20.524  0.00  0.00    +0.000 A 
ATOM      3  C   UNL     1       0.944   8.501  20.877  0.00  0.00    +0.000 A 
ATOM      4  C   UNL     1       1.778   7.854  19.993  0.00  0.00    +0.000 A 
ATOM      5  N   UNL     1       2.360   6.696  20.332  0.00  0.00    +0.000 NA
ATOM      6  C   UNL     1       3.136   6.177  19.381  0.00  0.00    +0.000 A 
ATOM      7  C   UNL     1       3.780   4.975  19.592  0.00  0.00    +0.000 A 
ATOM      8  C   UNL     1       4.590   4.413  18.599  0.00  0.00    +0.000 A 
ATOM      9  C   UNL     1       4.813   5.039  17.362  0.00  0.00    +0.000 A 
ATOM     10  C   UNL     1       4.155   6.259  17.156  0.00  0.00    +0.000 A 
ATOM     11  C   UNL     1       3.328   6.823  18.129  0.00  0.00    +0.000 A 
ATOM     12  O   UNL     1       2.762   7.924  17.858  0.00  0.00    +0.000 OA
ATOM     13  C   UNL     1       1.993   8.449  18.724  0.00  0.00    +0.000 A 
ATOM     14  C   UNL     1       1.348   9.640  18.377  0.00  0.00    +0.000 A 
ENDROOT
BRANCH   9  15
ATOM     15  N   UNL     1       5.619   4.489  16.393  0.00  0.00    +0.000 N 
ATOM     16  C   UNL     1       7.069   4.694  16.276  0.00  0.00    +0.000 C 
ATOM     17  C   UNL     1       7.285   4.897  14.784  0.00  0.00    +0.000 C 
ATOM     18  C   UNL     1       6.269   3.963  14.157  0.00  0.00    +0.000 C 
ATOM     19  C   UNL     1       5.074   4.016  15.109  0.00  0.00    +0.000 C 
ENDBRANCH   9  15
BRANCH   1  20
ATOM     20  N   UNL     1      -0.248  11.437  18.880  0.00  0.00    +0.000 N 
BRANCH  20  22
ATOM     21  C   UNL     1      -2.284  10.465  17.809  0.00  0.00    +0.000 C 
ATOM     22  C   UNL     1      -1.726  11.430  18.854  0.00  0.00    +0.000 C 
ENDBRANCH  20  22
BRANCH  20  23
ATOM     23  C   UNL     1       0.509  12.694  18.670  0.00  0.00    +0.000 C 
ATOM     24  C   UNL     1      -0.241  14.010  18.758  0.00  0.00    +0.000 C 
ENDBRANCH  20  23
ENDBRANCH   1  20
TORSDOF 4
ENDMDL
MODEL 3
REMARK VINA RESULT:      -7.1      2.620      3.957
REMARK  Name = 
REMARK  6 active torsions:
REMARK  status: ('A' for Active; 'I' for Inactive)
REMARK    1  A    between atoms: C_1  and  C_2
REMARK    2  A    between atoms: C_2  and  N_3
REMARK    3  A    between atoms: N_3  and  C_4
REMARK    4  A    between atoms: N_3  and  C_6
REMARK    5  A    between atoms: C_4  and  C_5
REMARK    6  A    between atoms: C_14  and  N_15
REMARK                            x       y       z     vdW  Elec       q    Type
REMARK                         _______ _______ _______ _____ _____    ______ ____
ROOT
ATOM      1  C   UNL     1       4.930   4.833  17.312  0.00  0.00    +0.000 A 
ATOM      2  C   UNL     1       4.613   4.039  18.428  0.00  0.00    +0.000 A 
ATOM      3  C   UNL     1       3.756   4.473  19.447  0.00  0.00    +0.000 A 
ATOM      4  C   UNL     1       3.145   5.705  19.378  0.00  0.00    +0.000 A 
ATOM      5  N   UNL     1       2.339   6.120  20.364  0.00  0.00    +0.000 NA
ATOM      6  C   UNL     1       1.820   7.331  20.171  0.00  0.00    +0.000 A 
ATOM      7  C   UNL     1       0.987   7.888  21.120  0.00  0.00    +0.000 A 
ATOM      8  C   UNL     1       0.443   9.164  20.934  0.00  0.00    +0.000 A 
ATOM      9  C   UNL     1       0.684   9.928  19.782  0.00  0.00    +0.000 A 
ATOM     10  C   UNL     1       1.531   9.355  18.823  0.00  0.00    +0.000 A 
ATOM     11  C   UNL     1       2.098   8.093  19.002  0.00  0.00    +0.000 A 
ATOM     12  O   UNL     1       2.860   7.652  18.090  0.00  0.00    +0.000 OA
ATOM     13  C   UNL     1       3.399   6.510  18.239  0.00  0.00    +0.000 A 
ATOM     14  C   UNL     1       4.272   6.074  17.238  0.00  0.00    +0.000 A 
ENDROOT
BRANCH   9  15
ATOM     15  N   UNL     1       0.138  11.177  19.598  0.00  0.00    +0.000 N 
ATOM     16  C   UNL     1      -1.272  11.528  19.816  0.00  0.00    +0.000 C 
ATOM     17  C   UNL     1      -1.611  12.413  18.625  0.00  0.00    +0.000 C 
ATOM     18  C   UNL     1      -0.326  13.183  18.391  0.00  0.00    +0.000 C 
ATOM     19  C   UNL     1       0.778  12.183  18.735  0.00  0.00    +0.000 C 
ENDBRANCH   9  15
BRANCH   1  20
ATOM     20  N   UNL     1       5.871   4.432  16.355  0.00  0.00    +0.000 N 
BRANCH  20  22
ATOM     21  C   UNL     1       6.454   4.290  13.931  0.00  0.00    +0.000 C 
ATOM     22  C   UNL     1       5.439   3.958  15.023  0.00  0.00    +0.000 C 
ENDBRANCH  20  22
BRANCH  20  23
ATOM     23  C   UNL     1       7.305   4.651  16.655  0.00  0.00    +0.000 C 
ATOM     24  C   UNL     1       7.704   4.961  18.085  0.00  0.00    +0.000 C 
ENDBRANCH  20  23
ENDBRANCH   1  20
TORSDOF 4
ENDMDL
MODEL 4
REMARK VINA RESULT:      -7.1      2.812      8.859
REMARK  Name = 
REMARK  6 active torsions:
REMARK  status: ('A' for Active; 'I' for Inactive)
REMARK    1  A    between atoms: C_1  and  C_2
REMARK    2  A    between atoms: C_2  and  N_3
REMARK    3  A    between atoms: N_3  and  C_4
REMARK    4  A    between atoms: N_3  and  C_6
REMARK    5  A    between atoms: C_4  and  C_5
REMARK    6  A    between atoms: C_14  and  N_15
REMARK                            x       y       z     vdW  Elec       q    Type
REMARK                         _______ _______ _______ _____ _____    ______ ____
ROOT
ATOM      1  C   UNL     1       0.650  10.068  19.411  0.00  0.00    +0.000 A 
ATOM      2  C   UNL     1       0.515   9.392  20.637  0.00  0.00    +0.000 A 
ATOM      3  C   UNL     1       1.137   8.164  20.896  0.00  0.00    +0.000 A 
ATOM      4  C   UNL     1       1.955   7.576  19.958  0.00  0.00    +0.000 A 
ATOM      5  N   UNL     1       2.534   6.393  20.206  0.00  0.00    +0.000 NA
ATOM      6  C   UNL     1       3.294   5.938  19.211  0.00  0.00    +0.000 A 
ATOM      7  C   UNL     1       3.933   4.721  19.329  0.00  0.00    +0.000 A 
ATOM      8  C   UNL     1       4.726   4.226  18.287  0.00  0.00    +0.000 A 
ATOM      9  C   UNL     1       4.937   4.936  17.095  0.00  0.00    +0.000 A 
ATOM     10  C   UNL     1       4.284   6.172  16.984  0.00  0.00    +0.000 A 
ATOM     11  C   UNL     1       3.474   6.670  18.005  0.00  0.00    +0.000 A 
ATOM     12  O   UNL     1       2.912   7.791  17.820  0.00  0.00    +0.000 OA
ATOM     13  C   UNL     1       2.158   8.258  18.731  0.00  0.00    +0.000 A 
ATOM     14  C   UNL     1       1.516   9.473  18.477  0.00  0.00    +0.000 A 
ENDROOT
BRANCH   9  15
ATOM     15  N   UNL     1       5.728   4.451  16.079  0.00  0.00    +0.000 N 
ATOM     16  C   UNL     1       7.153   4.753  15.893  0.00  0.00    +0.000 C 
ATOM     17  C   UNL     1       7.279   4.986  14.394  0.00  0.00    +0.000 C 
ATOM     18  C   UNL     1       6.295   3.993  13.806  0.00  0.00    +0.000 C 
ATOM     19  C   UNL     1       5.150   3.957  14.818  0.00  0.00    +0.000 C 
ENDBRANCH   9  15
BRANCH   1  20
ATOM     20  N   UNL     1      -0.062  11.240  19.125  0.00  0.00    +0.000 N 
BRANCH  20  22
ATOM     21  C   UNL     1      -0.748  12.964  20.797  0.00  0.00    +0.000 C 
ATOM     22  C   UNL     1       0.296  12.519  19.774  0.00  0.00    +0.000 C 
ENDBRANCH  20  22
BRANCH  20  23
ATOM     23  C   UNL     1      -1.068  11.195  18.039  0.00  0.00    +0.000 C 
ATOM     24  C   UNL     1      -2.099  10.082  18.056  0.00  0.00    +0.000 C 
ENDBRANCH  20  23
ENDBRANCH   1  20
TORSDOF 4
ENDMDL
MODEL 5
REMARK VINA RESULT:      -7.1      1.051      1.327
REMARK  Name = 
REMARK  6 active torsions:
REMARK  status: ('A' for Active; 'I' for Inactive)
REMARK    1  A    between atoms: C_1  and  C_2
REMARK    2  A    between atoms: C_2  and  N_3
REMARK    3  A    between atoms: N_3  and  C_4
REMARK    4  A    between atoms: N_3  and  C_6
REMARK    5  A    between atoms: C_4  and  C_5
REMARK    6  A    between atoms: C_14  and  N_15
REMARK                            x       y       z     vdW  Elec       q    Type
REMARK                         _______ _______ _______ _____ _____    ______ ____
ROOT
ATOM      1  C   UNL     1       2.573   6.255  19.626  0.00  0.00    +0.000 A 
ATOM      2  C   UNL     1       2.768   6.901  18.393  0.00  0.00    +0.000 A 
ATOM      3  C   UNL     1       2.265   8.180  18.120  0.00  0.00    +0.000 A 
ATOM      4  C   UNL     1       1.580   8.888  19.081  0.00  0.00    +0.000 A 
ATOM      5  N   UNL     1       1.088  10.104  18.808  0.00  0.00    +0.000 NA
ATOM      6  C   UNL     1       0.444  10.672  19.826  0.00  0.00    +0.000 A 
ATOM      7  C   UNL     1      -0.130  11.919  19.673  0.00  0.00    +0.000 A 
ATOM      8  C   UNL     1      -0.819  12.523  20.731  0.00  0.00    +0.000 A 
ATOM      9  C   UNL     1      -0.942  11.923  21.994  0.00  0.00    +0.000 A 
ATOM     10  C   UNL     1      -0.357  10.657  22.140  0.00  0.00    +0.000 A 
ATOM     11  C   UNL     1       0.316  10.032  21.089  0.00  0.00    +0.000 A 
ATOM     12  O   UNL     1       0.807   8.883  21.303  0.00  0.00    +0.000 OA
ATOM     13  C   UNL     1       1.412   8.289  20.356  0.00  0.00    +0.000 A 
ATOM     14  C   UNL     1       1.901   7.004  20.609  0.00  0.00    +0.000 A 
ENDROOT
BRANCH   9  15
ATOM     15  N   UNL     1      -1.610  12.526  23.034  0.00  0.00    +0.000 N 
ATOM     16  C   UNL     1      -2.938  12.140  23.530  0.00  0.00    +0.000 C 
ATOM     17  C   UNL     1      -3.639  13.471  23.758  0.00  0.00    +0.000 C 
ATOM     18  C   UNL     1      -2.519  14.371  24.245  0.00  0.00    +0.000 C 
ATOM     19  C   UNL     1      -1.292  13.897  23.467  0.00  0.00    +0.000 C 
ENDBRANCH   9  15
BRANCH   1  20
ATOM     20  N   UNL     1       2.986   4.936  19.849  0.00  0.00    +0.000 N 
BRANCH  20  22
ATOM     21  C   UNL     1       3.746   3.413  18.021  0.00  0.00    +0.000 C 
ATOM     22  C   UNL     1       4.154   4.379  19.133  0.00  0.00    +0.000 C 
ENDBRANCH  20  22
BRANCH  20  23
ATOM     23  C   UNL     1       2.328   4.174  20.936  0.00  0.00    +0.000 C 
ATOM     24  C   UNL     1       1.129   3.312  20.589  0.00  0.00    +0.000 C 
ENDBRANCH  20  23
ENDBRANCH   1  20
TORSDOF 4
ENDMDL
MODEL 6
REMARK VINA RESULT:      -7.0      0.938      1.360
REMARK  Name = 
REMARK  6 active torsions:
REMARK  status: ('A' for Active; 'I' for Inactive)
REMARK    1  A    between atoms: C_1  and  C_2
REMARK    2  A    between atoms: C_2  and  N_3
REMARK    3  A    between atoms: N_3  and  C_4
REMARK    4  A    between atoms: N_3  and  C_6
REMARK    5  A    between atoms: C_4  and  C_5
REMARK    6  A    between atoms: C_14  and  N_15
REMARK                            x       y       z     vdW  Elec       q    Type
REMARK                         _______ _______ _______ _____ _____    ______ ____
ROOT
ATOM      1  C   UNL     1       3.266   4.565  19.614  0.00  0.00    +0.000 A 
ATOM      2  C   UNL     1       3.770   4.919  18.350  0.00  0.00    +0.000 A 
ATOM      3  C   UNL     1       3.532   6.169  17.763  0.00  0.00    +0.000 A 
ATOM      4  C   UNL     1       2.813   7.136  18.430  0.00  0.00    +0.000 A 
ATOM      5  N   UNL     1       2.575   8.322  17.856  0.00  0.00    +0.000 NA
ATOM      6  C   UNL     1       1.865   9.160  18.610  0.00  0.00    +0.000 A 
ATOM      7  C   UNL     1       1.532  10.411  18.131  0.00  0.00    +0.000 A 
ATOM      8  C   UNL     1       0.777  11.296  18.908  0.00  0.00    +0.000 A 
ATOM      9  C   UNL     1       0.344  10.983  20.206  0.00  0.00    +0.000 A 
ATOM     10  C   UNL     1       0.687   9.711  20.685  0.00  0.00    +0.000 A 
ATOM     11  C   UNL     1       1.422   8.809  19.915  0.00  0.00    +0.000 A 
ATOM     12  O   UNL     1       1.680   7.675  20.419  0.00  0.00    +0.000 OA
ATOM     13  C   UNL     1       2.336   6.831  19.730  0.00  0.00    +0.000 A 
ATOM     14  C   UNL     1       2.564   5.574  20.297  0.00  0.00    +0.000 A 
ENDROOT
BRANCH   9  15
ATOM     15  N   UNL     1      -0.388  11.862  20.971  0.00  0.00    +0.000 N 
ATOM     16  C   UNL     1      -0.454  13.315  20.767  0.00  0.00    +0.000 C 
ATOM     17  C   UNL     1      -0.363  13.881  22.176  0.00  0.00    +0.000 C 
ATOM     18  C   UNL     1      -1.126  12.867  23.006  0.00  0.00    +0.000 C 
ATOM     19  C   UNL     1      -0.813  11.527  22.341  0.00  0.00    +0.000 C 
ENDBRANCH   9  15
BRANCH   1  20
ATOM     20  N   UNL     1       3.420   3.277  20.142  0.00  0.00    +0.000 N 
BRANCH  20  22
ATOM     21  C   UNL     1       3.742   1.354  18.581  0.00  0.00    +0.000 C 
ATOM     22  C   UNL     1       4.395   2.332  19.556  0.00  0.00    +0.000 C 
ENDBRANCH  20  22
BRANCH  20  23
ATOM     23  C   UNL     1       2.704   2.948  21.396  0.00  0.00    +0.000 C 
ATOM     24  C   UNL     1       1.199   2.771  21.342  0.00  0.00    +0.000 C 
ENDBRANCH  20  23
ENDBRANCH   1  20
TORSDOF 4
ENDMDL
MODEL 7
REMARK VINA RESULT:      -7.0      0.739      1.466
REMARK  Name = 
REMARK  6 active torsions:
REMARK  status: ('A' for Active; 'I' for Inactive)
REMARK    1  A    between atoms: C_1  and  C_2
REMARK    2  A    between atoms: C_2  and  N_3
REMARK    3  A    between atoms: N_3  and  C_4
REMARK    4  A    between atoms: N_3  and  C_6
REMARK    5  A    between atoms: C_4  and  C_5
REMARK    6  A    between atoms: C_14  and  N_15
REMARK                            x       y       z     vdW  Elec       q    Type
REMARK                         _______ _______ _______ _____ _____    ______ ____
ROOT
ATOM      1  C   UNL     1       2.955   5.467  19.391  0.00  0.00    +0.000 A 
ATOM      2  C   UNL     1       3.372   6.004  18.160  0.00  0.00    +0.000 A 
ATOM      3  C   UNL     1       3.015   7.290  17.734  0.00  0.00    +0.000 A 
ATOM      4  C   UNL     1       2.260   8.114  18.538  0.00  0.00    +0.000 A 
ATOM      5  N   UNL     1       1.909   9.337  18.118  0.00  0.00    +0.000 NA
ATOM      6  C   UNL     1       1.175  10.024  18.992  0.00  0.00    +0.000 A 
ATOM      7  C   UNL     1       0.729  11.292  18.677  0.00  0.00    +0.000 A 
ATOM      8  C   UNL     1      -0.051  12.020  19.582  0.00  0.00    +0.000 A 
ATOM      9  C   UNL     1      -0.399  11.527  20.850  0.00  0.00    +0.000 A 
ATOM     10  C   UNL     1       0.058  10.238  21.161  0.00  0.00    +0.000 A 
ATOM     11  C   UNL     1       0.820   9.491  20.262  0.00  0.00    +0.000 A 
ATOM     12  O   UNL     1       1.184   8.330  20.619  0.00  0.00    +0.000 OA
ATOM     13  C   UNL     1       1.867   7.625  19.810  0.00  0.00    +0.000 A 
ATOM     14  C   UNL     1       2.213   6.333  20.215  0.00  0.00    +0.000 A 
ENDROOT
BRANCH   9  15
ATOM     15  N   UNL     1      -1.156  12.251  21.740  0.00  0.00    +0.000 N 
ATOM     16  C   UNL     1      -1.496  11.831  23.106  0.00  0.00    +0.000 C 
ATOM     17  C   UNL     1      -2.964  12.209  23.245  0.00  0.00    +0.000 C 
ATOM     18  C   UNL     1      -3.065  13.496  22.449  0.00  0.00    +0.000 C 
ATOM     19  C   UNL     1      -2.089  13.299  21.290  0.00  0.00    +0.000 C 
ENDBRANCH   9  15
BRANCH   1  20
ATOM     20  N   UNL     1       3.227   4.143  19.757  0.00  0.00    +0.000 N 
BRANCH  20  22
ATOM     21  C   UNL     1       1.145   2.986  20.508  0.00  0.00    +0.000 C 
ATOM     22  C   UNL     1       2.524   3.514  20.896  0.00  0.00    +0.000 C 
ENDBRANCH  20  22
BRANCH  20  23
ATOM     23  C   UNL     1       4.108   3.344  18.874  0.00  0.00    +0.000 C 
ATOM     24  C   UNL     1       3.471   2.321  17.953  0.00  0.00    +0.000 C 
ENDBRANCH  20  23
ENDBRANCH   1  20
TORSDOF 4
ENDMDL
MODEL 8
REMARK VINA RESULT:      -7.0      1.239      2.097
REMARK  Name = 
REMARK  6 active torsions:
REMARK  status: ('A' for Active; 'I' for Inactive)
REMARK    1  A    between atoms: C_1  and  C_2
REMARK    2  A    between atoms: C_2  and  N_3
REMARK    3  A    between atoms: N_3  and  C_4
REMARK    4  A    between atoms: N_3  and  C_6
REMARK    5  A    between atoms: C_4  and  C_5
REMARK    6  A    between atoms: C_14  and  N_15
REMARK                            x       y       z     vdW  Elec       q    Type
REMARK                         _______ _______ _______ _____ _____    ______ ____
ROOT
ATOM      1  C   UNL     1       2.504   6.637  19.473  0.00  0.00    +0.000 A 
ATOM      2  C   UNL     1       2.587   7.287  18.228  0.00  0.00    +0.000 A 
ATOM      3  C   UNL     1       2.000   8.536  17.986  0.00  0.00    +0.000 A 
ATOM      4  C   UNL     1       1.339   9.211  18.988  0.00  0.00    +0.000 A 
ATOM      5  N   UNL     1       0.767  10.397  18.744  0.00  0.00    +0.000 NA
ATOM      6  C   UNL     1       0.158  10.936  19.799  0.00  0.00    +0.000 A 
ATOM      7  C   UNL     1      -0.489  12.149  19.681  0.00  0.00    +0.000 A 
ATOM      8  C   UNL     1      -1.142  12.721  20.779  0.00  0.00    +0.000 A 
ATOM      9  C   UNL     1      -1.154  12.121  22.048  0.00  0.00    +0.000 A 
ATOM     10  C   UNL     1      -0.494  10.889  22.159  0.00  0.00    +0.000 A 
ATOM     11  C   UNL     1       0.144  10.296  21.069  0.00  0.00    +0.000 A 
ATOM     12  O   UNL     1       0.709   9.176  21.253  0.00  0.00    +0.000 OA
ATOM     13  C   UNL     1       1.284   8.610  20.270  0.00  0.00    +0.000 A 
ATOM     14  C   UNL     1       1.857   7.354  20.495  0.00  0.00    +0.000 A 
ENDROOT
BRANCH   9  15
ATOM     15  N   UNL     1      -1.787  12.693  23.128  0.00  0.00    +0.000 N 
ATOM     16  C   UNL     1      -3.126  12.336  23.615  0.00  0.00    +0.000 C 
ATOM     17  C   UNL     1      -3.767  13.681  23.925  0.00  0.00    +0.000 C 
ATOM     18  C   UNL     1      -2.606  14.503  24.449  0.00  0.00    +0.000 C 
ATOM     19  C   UNL     1      -1.407  14.023  23.632  0.00  0.00    +0.000 C 
ENDBRANCH   9  15
BRANCH   1  20
ATOM     20  N   UNL     1       3.001   5.343  19.671  0.00  0.00    +0.000 N 
BRANCH  20  22
ATOM     21  C   UNL     1       0.999   3.970  20.254  0.00  0.00    +0.000 C 
ATOM     22  C   UNL     1       2.389   4.445  20.673  0.00  0.00    +0.000 C 
ENDBRANCH  20  22
BRANCH  20  23
ATOM     23  C   UNL     1       4.041   4.846  18.741  0.00  0.00    +0.000 C 
ATOM     24  C   UNL     1       3.646   3.811  17.704  0.00  0.00    +0.000 C 
ENDBRANCH  20  23
ENDBRANCH   1  20
TORSDOF 4
ENDMDL
MODEL 9
REMARK VINA RESULT:      -7.0      2.557      3.906
REMARK  Name = 
REMARK  6 active torsions:
REMARK  status: ('A' for Active; 'I' for Inactive)
REMARK    1  A    between atoms: C_1  and  C_2
REMARK    2  A    between atoms: C_2  and  N_3
REMARK    3  A    between atoms: N_3  and  C_4
REMARK    4  A    between atoms: N_3  and  C_6
REMARK    5  A    between atoms: C_4  and  C_5
REMARK    6  A    between atoms: C_14  and  N_15
REMARK                            x       y       z     vdW  Elec       q    Type
REMARK                         _______ _______ _______ _____ _____    ______ ____
ROOT
ATOM      1  C   UNL     1       4.699   5.714  17.467  0.00  0.00    +0.000 A 
ATOM      2  C   UNL     1       4.400   4.893  18.570  0.00  0.00    +0.000 A 
ATOM      3  C   UNL     1       3.499   5.273  19.573  0.00  0.00    +0.000 A 
ATOM      4  C   UNL     1       2.825   6.471  19.499  0.00  0.00    +0.000 A 
ATOM      5  N   UNL     1       1.977   6.835  20.470  0.00  0.00    +0.000 NA
ATOM      6  C   UNL     1       1.398   8.018  20.275  0.00  0.00    +0.000 A 
ATOM      7  C   UNL     1       0.517   8.522  21.209  0.00  0.00    +0.000 A 
ATOM      8  C   UNL     1      -0.090   9.769  21.021  0.00  0.00    +0.000 A 
ATOM      9  C   UNL     1       0.136  10.555  19.881  0.00  0.00    +0.000 A 
ATOM     10  C   UNL     1       1.033  10.036  18.936  0.00  0.00    +0.000 A 
ATOM     11  C   UNL     1       1.661   8.804  19.119  0.00  0.00    +0.000 A 
ATOM     12  O   UNL     1       2.467   8.413  18.221  0.00  0.00    +0.000 OA
ATOM     13  C   UNL     1       3.062   7.299  18.373  0.00  0.00    +0.000 A 
ATOM     14  C   UNL     1       3.978   6.918  17.388  0.00  0.00    +0.000 A 
ENDROOT
BRANCH   9  15
ATOM     15  N   UNL     1      -0.472  11.775  19.694  0.00  0.00    +0.000 N 
ATOM     16  C   UNL     1      -0.792  12.376  18.393  0.00  0.00    +0.000 C 
ATOM     17  C   UNL     1      -0.397  13.835  18.562  0.00  0.00    +0.000 C 
ATOM     18  C   UNL     1      -0.755  14.124  20.007  0.00  0.00    +0.000 C 
ATOM     19  C   UNL     1      -0.455  12.816  20.736  0.00  0.00    +0.000 C 
ENDBRANCH   9  15
BRANCH   1  20
ATOM     20  N   UNL     1       5.681   5.371  16.529  0.00  0.00    +0.000 N 
BRANCH  20  22
ATOM     21  C   UNL     1       7.433   6.883  17.468  0.00  0.00    +0.000 C 
ATOM     22  C   UNL     1       7.117   5.523  16.849  0.00  0.00    +0.000 C 
ENDBRANCH  20  22
BRANCH  20  23
ATOM     23  C   UNL     1       5.248   4.701  15.281  0.00  0.00    +0.000 C 
ATOM     24  C   UNL     1       6.304   4.057  14.404  0.00  0.00    +0.000 C 
ENDBRANCH  20  23
ENDBRANCH   1  20
TORSDOF 4
ENDMDL
