MODEL 1
REMARK VINA RESULT:      -8.3      0.000      0.000
REMARK  Name = 
REMARK  7 active torsions:
REMARK  status: ('A' for Active; 'I' for Inactive)
REMARK    1  A    between atoms: C_1  and  C_2
REMARK    2  A    between atoms: C_5  and  C_6
REMARK    3  A    between atoms: C_8  and  C_9
REMARK    4  A    between atoms: C_15  and  C_16
REMARK    5  A    between atoms: C_16  and  O_17
REMARK    6  A    between atoms: O_17  and  C_18
REMARK    7  A    between atoms: C_24  and  C_25
REMARK                            x       y       z     vdW  Elec       q    Type
REMARK                         _______ _______ _______ _____ _____    ______ ____
ROOT
ATOM      1  C   UNL     1       2.619   6.853  19.056  0.00  0.00    +0.000 A 
ATOM      2  C   UNL     1       1.975   5.523  18.828  0.00  0.00    +0.000 A 
ATOM      3  C   UNL     1       2.708   4.594  18.187  0.00  0.00    +0.000 A 
ATOM      4  N   UNL     1       4.012   4.890  17.808  0.00  0.00    +0.000 N 
ATOM      5  N   UNL     1       4.899   4.083  17.191  0.00  0.00    +0.000 NA
ATOM      6  C   UNL     1       6.026   4.794  17.082  0.00  0.00    +0.000 A 
ATOM      7  C   UNL     1       5.884   6.102  17.631  0.00  0.00    +0.000 A 
ATOM      8  C   UNL     1       4.575   6.145  18.093  0.00  0.00    +0.000 A 
ATOM      9  N   UNL     1       3.851   7.126  18.725  0.00  0.00    +0.000 NA
ENDROOT
BRANCH   1  14
ATOM     10  C   UNL     1      -0.593  10.885  21.747  0.00  0.00    +0.000 C 
ATOM     11  C   UNL     1       0.222   9.837  21.050  0.00  0.00    +0.000 A 
ATOM     12  C   UNL     1       0.574   8.648  21.694  0.00  0.00    +0.000 A 
ATOM     13  C   UNL     1       1.352   7.687  21.038  0.00  0.00    +0.000 A 
ATOM     14  C   UNL     1       1.780   7.900  19.721  0.00  0.00    +0.000 A 
ATOM     15  C   UNL     1       1.435   9.096  19.079  0.00  0.00    +0.000 A 
ATOM     16  C   UNL     1       0.659  10.053  19.739  0.00  0.00    +0.000 A 
ENDBRANCH   1  14
BRANCH   7  17
ATOM     17  C   UNL     1       6.885   7.157  17.785  0.00  0.00    +0.000 A 
ATOM     18  C   UNL     1       7.967   6.993  18.663  0.00  0.00    +0.000 A 
ATOM     19  C   UNL     1       8.805   8.065  18.984  0.00  0.00    +0.000 A 
ATOM     20  C   UNL     1       8.606   9.305  18.388  0.00  0.00    +0.000 A 
ATOM     21  C   UNL     1       7.588   9.465  17.452  0.00  0.00    +0.000 A 
ATOM     22  C   UNL     1       6.731   8.400  17.155  0.00  0.00    +0.000 A 
ENDBRANCH   7  17
BRANCH   3  23
ATOM     23  C   UNL     1       2.151   3.250  17.897  0.00  0.00    +0.000 C 
ATOM     24  F   UNL     1       2.666   2.203  18.581  0.00  0.00    +0.000 F 
ATOM     25  F   UNL     1       0.808   3.231  18.125  0.00  0.00    +0.000 F 
ATOM     26  F   UNL     1       2.300   2.950  16.575  0.00  0.00    +0.000 F 
ENDBRANCH   3  23
BRANCH   6  27
ATOM     27  C   UNL     1       7.236   4.161  16.447  0.00  0.00    +0.000 C 
BRANCH  27  28
ATOM     28  O   UNL     1       7.657   4.947  15.328  0.00  0.00    +0.000 OA
BRANCH  28  29
ATOM     29  C   UNL     1       7.179   4.595  14.098  0.00  0.00    +0.000 A 
ATOM     30  C   UNL     1       7.861   5.171  13.023  0.00  0.00    +0.000 A 
ATOM     31  C   UNL     1       7.514   4.853  11.709  0.00  0.00    +0.000 A 
ATOM     32  C   UNL     1       6.490   3.941  11.466  0.00  0.00    +0.000 A 
ATOM     33  C   UNL     1       5.814   3.355  12.535  0.00  0.00    +0.000 A 
ATOM     34  C   UNL     1       6.155   3.682  13.854  0.00  0.00    +0.000 A 
ENDBRANCH  28  29
ENDBRANCH  27  28
ENDBRANCH   6  27
TORSDOF 6
ENDMDL
MODEL 2
REMARK VINA RESULT:      -8.1      0.096      1.172
REMARK  Name = 
REMARK  7 active torsions:
REMARK  status: ('A' for Active; 'I' for Inactive)
REMARK    1  A    between atoms: C_1  and  C_2
REMARK    2  A    between atoms: C_5  and  C_6
REMARK    3  A    between atoms: C_8  and  C_9
REMARK    4  A    between atoms: C_15  and  C_16
REMARK    5  A    between atoms: C_16  and  O_17
REMARK    6  A    between atoms: O_17  and  C_18
REMARK    7  A    between atoms: C_24  and  C_25
REMARK                            x       y       z     vdW  Elec       q    Type
REMARK                         _______ _______ _______ _____ _____    ______ ____
ROOT
ATOM      1  C   UNL     1       2.620   6.809  19.140  0.00  0.00    +0.000 A 
ATOM      2  C   UNL     1       1.966   5.486  18.904  0.00  0.00    +0.000 A 
ATOM      3  C   UNL     1       2.682   4.565  18.233  0.00  0.00    +0.000 A 
ATOM      4  N   UNL     1       3.979   4.861  17.832  0.00  0.00    +0.000 N 
ATOM      5  N   UNL     1       4.851   4.061  17.185  0.00  0.00    +0.000 NA
ATOM      6  C   UNL     1       5.978   4.769  17.066  0.00  0.00    +0.000 A 
ATOM      7  C   UNL     1       5.853   6.068  17.639  0.00  0.00    +0.000 A 
ATOM      8  C   UNL     1       4.554   6.108  18.128  0.00  0.00    +0.000 A 
ATOM      9  N   UNL     1       3.847   7.082  18.790  0.00  0.00    +0.000 NA
ENDROOT
BRANCH   1  14
ATOM     10  C   UNL     1      -0.609  10.883  21.746  0.00  0.00    +0.000 C 
ATOM     11  C   UNL     1       0.237   9.841  21.077  0.00  0.00    +0.000 A 
ATOM     12  C   UNL     1       0.702  10.017  19.772  0.00  0.00    +0.000 A 
ATOM     13  C   UNL     1       1.474   9.027  19.153  0.00  0.00    +0.000 A 
ATOM     14  C   UNL     1       1.800   7.849  19.839  0.00  0.00    +0.000 A 
ATOM     15  C   UNL     1       1.326   7.670  21.145  0.00  0.00    +0.000 A 
ATOM     16  C   UNL     1       0.555   8.661  21.758  0.00  0.00    +0.000 A 
ENDBRANCH   1  14
BRANCH   7  17
ATOM     17  C   UNL     1       6.863   7.115  17.792  0.00  0.00    +0.000 A 
ATOM     18  C   UNL     1       7.946   6.943  18.666  0.00  0.00    +0.000 A 
ATOM     19  C   UNL     1       8.792   8.009  18.986  0.00  0.00    +0.000 A 
ATOM     20  C   UNL     1       8.600   9.251  18.392  0.00  0.00    +0.000 A 
ATOM     21  C   UNL     1       7.580   9.419  17.459  0.00  0.00    +0.000 A 
ATOM     22  C   UNL     1       6.715   8.360  17.163  0.00  0.00    +0.000 A 
ENDBRANCH   7  17
BRANCH   3  23
ATOM     23  C   UNL     1       2.113   3.228  17.931  0.00  0.00    +0.000 C 
ATOM     24  F   UNL     1       2.667   2.162  18.553  0.00  0.00    +0.000 F 
ATOM     25  F   UNL     1       0.784   3.197  18.230  0.00  0.00    +0.000 F 
ATOM     26  F   UNL     1       2.190   2.971  16.594  0.00  0.00    +0.000 F 
ENDBRANCH   3  23
BRANCH   6  27
ATOM     27  C   UNL     1       7.172   4.141  16.397  0.00  0.00    +0.000 C 
BRANCH  27  28
ATOM     28  O   UNL     1       7.634   4.991  15.343  0.00  0.00    +0.000 OA
BRANCH  28  29
ATOM     29  C   UNL     1       7.297   4.647  14.065  0.00  0.00    +0.000 A 
ATOM     30  C   UNL     1       6.227   3.755  13.966  0.00  0.00    +0.000 A 
ATOM     31  C   UNL     1       5.742   3.363  12.717  0.00  0.00    +0.000 A 
ATOM     32  C   UNL     1       6.318   3.878  11.559  0.00  0.00    +0.000 A 
ATOM     33  C   UNL     1       7.379   4.778  11.653  0.00  0.00    +0.000 A 
ATOM     34  C   UNL     1       7.874   5.163  12.905  0.00  0.00    +0.000 A 
ENDBRANCH  28  29
ENDBRANCH  27  28
ENDBRANCH   6  27
TORSDOF 6
ENDMDL
MODEL 3
REMARK VINA RESULT:      -8.1      0.155      1.040
REMARK  Name = 
REMARK  7 active torsions:
REMARK  status: ('A' for Active; 'I' for Inactive)
REMARK    1  A    between atoms: C_1  and  C_2
REMARK    2  A    between atoms: C_5  and  C_6
REMARK    3  A    between atoms: C_8  and  C_9
REMARK    4  A    between atoms: C_15  and  C_16
REMARK    5  A    between atoms: C_16  and  O_17
REMARK    6  A    between atoms: O_17  and  C_18
REMARK    7  A    between atoms: C_24  and  C_25
REMARK                            x       y       z     vdW  Elec       q    Type
REMARK                         _______ _______ _______ _____ _____    ______ ____
ROOT
ATOM      1  C   UNL     1       2.611   6.814  19.164  0.00  0.00    +0.000 A 
ATOM      2  C   UNL     1       1.969   5.480  18.959  0.00  0.00    +0.000 A 
ATOM      3  C   UNL     1       2.693   4.552  18.305  0.00  0.00    +0.000 A 
ATOM      4  N   UNL     1       3.985   4.853  17.893  0.00  0.00    +0.000 N 
ATOM      5  N   UNL     1       4.862   4.048  17.260  0.00  0.00    +0.000 NA
ATOM      6  C   UNL     1       5.982   4.765  17.121  0.00  0.00    +0.000 A 
ATOM      7  C   UNL     1       5.846   6.075  17.667  0.00  0.00    +0.000 A 
ATOM      8  C   UNL     1       4.548   6.112  18.159  0.00  0.00    +0.000 A 
ATOM      9  N   UNL     1       3.833   7.093  18.804  0.00  0.00    +0.000 NA
ENDROOT
BRANCH   1  14
ATOM     10  C   UNL     1      -0.564  10.838  21.911  0.00  0.00    +0.000 C 
ATOM     11  C   UNL     1       0.241   9.792  21.199  0.00  0.00    +0.000 A 
ATOM     12  C   UNL     1       0.566   8.584  21.820  0.00  0.00    +0.000 A 
ATOM     13  C   UNL     1       1.335   7.625  21.151  0.00  0.00    +0.000 A 
ATOM     14  C   UNL     1       1.782   7.860  19.844  0.00  0.00    +0.000 A 
ATOM     15  C   UNL     1       1.463   9.075  19.225  0.00  0.00    +0.000 A 
ATOM     16  C   UNL     1       0.695  10.030  19.898  0.00  0.00    +0.000 A 
ENDBRANCH   1  14
BRANCH   7  17
ATOM     17  C   UNL     1       6.845   7.136  17.793  0.00  0.00    +0.000 A 
ATOM     18  C   UNL     1       7.955   6.976  18.635  0.00  0.00    +0.000 A 
ATOM     19  C   UNL     1       8.795   8.053  18.933  0.00  0.00    +0.000 A 
ATOM     20  C   UNL     1       8.569   9.294  18.348  0.00  0.00    +0.000 A 
ATOM     21  C   UNL     1       7.521   9.449  17.445  0.00  0.00    +0.000 A 
ATOM     22  C   UNL     1       6.662   8.379  17.172  0.00  0.00    +0.000 A 
ENDBRANCH   7  17
BRANCH   3  23
ATOM     23  C   UNL     1       2.137   3.203  18.035  0.00  0.00    +0.000 C 
ATOM     24  F   UNL     1       2.375   2.665  16.817  0.00  0.00    +0.000 F 
ATOM     25  F   UNL     1       2.602   2.303  18.947  0.00  0.00    +0.000 F 
ATOM     26  F   UNL     1       0.782   3.208  18.189  0.00  0.00    +0.000 F 
ENDBRANCH   3  23
BRANCH   6  27
ATOM     27  C   UNL     1       7.180   4.135  16.462  0.00  0.00    +0.000 C 
BRANCH  27  28
ATOM     28  O   UNL     1       7.643   4.978  15.402  0.00  0.00    +0.000 OA
BRANCH  28  29
ATOM     29  C   UNL     1       7.307   4.626  14.127  0.00  0.00    +0.000 A 
ATOM     30  C   UNL     1       6.239   3.731  14.033  0.00  0.00    +0.000 A 
ATOM     31  C   UNL     1       5.755   3.330  12.786  0.00  0.00    +0.000 A 
ATOM     32  C   UNL     1       6.330   3.840  11.625  0.00  0.00    +0.000 A 
ATOM     33  C   UNL     1       7.389   4.743  11.713  0.00  0.00    +0.000 A 
ATOM     34  C   UNL     1       7.882   5.136  12.964  0.00  0.00    +0.000 A 
ENDBRANCH  28  29
ENDBRANCH  27  28
ENDBRANCH   6  27
TORSDOF 6
ENDMDL
MODEL 4
REMARK VINA RESULT:      -8.0      2.516      6.903
REMARK  Name = 
REMARK  7 active torsions:
REMARK  status: ('A' for Active; 'I' for Inactive)
REMARK    1  A    between atoms: C_1  and  C_2
REMARK    2  A    between atoms: C_5  and  C_6
REMARK    3  A    between atoms: C_8  and  C_9
REMARK    4  A    between atoms: C_15  and  C_16
REMARK    5  A    between atoms: C_16  and  O_17
REMARK    6  A    between atoms: O_17  and  C_18
REMARK    7  A    between atoms: C_24  and  C_25
REMARK                            x       y       z     vdW  Elec       q    Type
REMARK                         _______ _______ _______ _____ _____    ______ ____
ROOT
ATOM      1  C   UNL     1       6.625   7.482  17.438  0.00  0.00    +0.000 A 
ATOM      2  C   UNL     1       7.099   6.517  16.400  0.00  0.00    +0.000 A 
ATOM      3  C   UNL     1       6.261   5.517  16.072  0.00  0.00    +0.000 A 
ATOM      4  N   UNL     1       5.008   5.447  16.669  0.00  0.00    +0.000 N 
ATOM      5  N   UNL     1       4.031   4.544  16.444  0.00  0.00    +0.000 NA
ATOM      6  C   UNL     1       3.004   4.918  17.213  0.00  0.00    +0.000 A 
ATOM      7  C   UNL     1       3.304   6.089  17.969  0.00  0.00    +0.000 A 
ATOM      8  C   UNL     1       4.604   6.414  17.604  0.00  0.00    +0.000 A 
ATOM      9  N   UNL     1       5.440   7.437  17.981  0.00  0.00    +0.000 NA
ENDROOT
BRANCH   1  14
ATOM     10  C   UNL     1      10.258  11.758  18.970  0.00  0.00    +0.000 C 
ATOM     11  C   UNL     1       9.330  10.652  18.561  0.00  0.00    +0.000 A 
ATOM     12  C   UNL     1       8.324  10.866  17.616  0.00  0.00    +0.000 A 
ATOM     13  C   UNL     1       7.453   9.831  17.259  0.00  0.00    +0.000 A 
ATOM     14  C   UNL     1       7.583   8.562  17.839  0.00  0.00    +0.000 A 
ATOM     15  C   UNL     1       8.585   8.351  18.794  0.00  0.00    +0.000 A 
ATOM     16  C   UNL     1       9.453   9.388  19.147  0.00  0.00    +0.000 A 
ENDBRANCH   1  14
BRANCH   7  17
ATOM     17  C   UNL     1       2.442   6.864  18.861  0.00  0.00    +0.000 A 
ATOM     18  C   UNL     1       2.031   8.159  18.511  0.00  0.00    +0.000 A 
ATOM     19  C   UNL     1       1.394   8.989  19.438  0.00  0.00    +0.000 A 
ATOM     20  C   UNL     1       1.108   8.515  20.713  0.00  0.00    +0.000 A 
ATOM     21  C   UNL     1       1.434   7.205  21.051  0.00  0.00    +0.000 A 
ATOM     22  C   UNL     1       2.099   6.386  20.133  0.00  0.00    +0.000 A 
ENDBRANCH   7  17
BRANCH   3  23
ATOM     23  C   UNL     1       6.647   4.497  15.066  0.00  0.00    +0.000 C 
ATOM     24  F   UNL     1       6.688   3.207  15.472  0.00  0.00    +0.000 F 
ATOM     25  F   UNL     1       5.799   4.534  13.999  0.00  0.00    +0.000 F 
ATOM     26  F   UNL     1       7.881   4.775  14.558  0.00  0.00    +0.000 F 
ENDBRANCH   3  23
BRANCH   6  27
ATOM     27  C   UNL     1       1.729   4.117  17.177  0.00  0.00    +0.000 C 
BRANCH  27  28
ATOM     28  O   UNL     1       1.959   2.824  17.747  0.00  0.00    +0.000 OA
BRANCH  28  29
ATOM     29  C   UNL     1       2.015   2.739  19.109  0.00  0.00    +0.000 A 
ATOM     30  C   UNL     1       3.289   2.492  19.624  0.00  0.00    +0.000 A 
ATOM     31  C   UNL     1       3.500   2.436  21.003  0.00  0.00    +0.000 A 
ATOM     32  C   UNL     1       2.434   2.647  21.874  0.00  0.00    +0.000 A 
ATOM     33  C   UNL     1       1.162   2.905  21.365  0.00  0.00    +0.000 A 
ATOM     34  C   UNL     1       0.948   2.950  19.981  0.00  0.00    +0.000 A 
ENDBRANCH  28  29
ENDBRANCH  27  28
ENDBRANCH   6  27
TORSDOF 6
ENDMDL
MODEL 5
REMARK VINA RESULT:      -8.0      5.843     10.131
REMARK  Name = 
REMARK  7 active torsions:
REMARK  status: ('A' for Active; 'I' for Inactive)
REMARK    1  A    between atoms: C_1  and  C_2
REMARK    2  A    between atoms: C_5  and  C_6
REMARK    3  A    between atoms: C_8  and  C_9
REMARK    4  A    between atoms: C_15  and  C_16
REMARK    5  A    between atoms: C_16  and  O_17
REMARK    6  A    between atoms: O_17  and  C_18
REMARK    7  A    between atoms: C_24  and  C_25
REMARK                            x       y       z     vdW  Elec       q    Type
REMARK                         _______ _______ _______ _____ _____    ______ ____
ROOT
ATOM      1  C   UNL     1       1.105   9.864  18.642  0.00  0.00    +0.000 A 
ATOM      2  C   UNL     1      -0.333   9.758  18.246  0.00  0.00    +0.000 A 
ATOM      3  C   UNL     1      -1.039  10.903  18.206  0.00  0.00    +0.000 A 
ATOM      4  N   UNL     1      -0.409  12.108  18.492  0.00  0.00    +0.000 N 
ATOM      5  N   UNL     1      -0.942  13.347  18.472  0.00  0.00    +0.000 NA
ATOM      6  C   UNL     1       0.060  14.181  18.767  0.00  0.00    +0.000 A 
ATOM      7  C   UNL     1       1.283  13.484  18.993  0.00  0.00    +0.000 A 
ATOM      8  C   UNL     1       0.958  12.145  18.812  0.00  0.00    +0.000 A 
ATOM      9  N   UNL     1       1.706  10.996  18.884  0.00  0.00    +0.000 NA
ENDROOT
BRANCH   1  14
ATOM     10  C   UNL     1       4.172   4.933  18.939  0.00  0.00    +0.000 C 
ATOM     11  C   UNL     1       3.370   6.197  18.853  0.00  0.00    +0.000 A 
ATOM     12  C   UNL     1       3.463   7.037  17.741  0.00  0.00    +0.000 A 
ATOM     13  C   UNL     1       2.724   8.224  17.683  0.00  0.00    +0.000 A 
ATOM     14  C   UNL     1       1.872   8.582  18.737  0.00  0.00    +0.000 A 
ATOM     15  C   UNL     1       1.786   7.743  19.855  0.00  0.00    +0.000 A 
ATOM     16  C   UNL     1       2.527   6.559  19.909  0.00  0.00    +0.000 A 
ENDBRANCH   1  14
BRANCH   7  17
ATOM     17  C   UNL     1       2.619  14.016  19.259  0.00  0.00    +0.000 A 
ATOM     18  C   UNL     1       3.171  13.952  20.547  0.00  0.00    +0.000 A 
ATOM     19  C   UNL     1       4.343  14.644  20.865  0.00  0.00    +0.000 A 
ATOM     20  C   UNL     1       5.012  15.366  19.883  0.00  0.00    +0.000 A 
ATOM     21  C   UNL     1       4.524  15.373  18.579  0.00  0.00    +0.000 A 
ATOM     22  C   UNL     1       3.334  14.706  18.270  0.00  0.00    +0.000 A 
ENDBRANCH   7  17
BRANCH   3  23
ATOM     23  C   UNL     1      -2.477  10.900  17.843  0.00  0.00    +0.000 C 
ATOM     24  F   UNL     1      -2.837  11.565  16.722  0.00  0.00    +0.000 F 
ATOM     25  F   UNL     1      -2.928   9.622  17.689  0.00  0.00    +0.000 F 
ATOM     26  F   UNL     1      -3.224  11.429  18.855  0.00  0.00    +0.000 F 
ENDBRANCH   3  23
BRANCH   6  27
ATOM     27  C   UNL     1      -0.204  15.663  18.805  0.00  0.00    +0.000 C 
BRANCH  27  28
ATOM     28  O   UNL     1      -0.308  16.097  20.165  0.00  0.00    +0.000 OA
BRANCH  28  29
ATOM     29  C   UNL     1       0.760  16.762  20.695  0.00  0.00    +0.000 A 
ATOM     30  C   UNL     1       1.005  16.488  22.043  0.00  0.00    +0.000 A 
ATOM     31  C   UNL     1       2.099  17.057  22.696  0.00  0.00    +0.000 A 
ATOM     32  C   UNL     1       2.966  17.891  21.995  0.00  0.00    +0.000 A 
ATOM     33  C   UNL     1       2.733  18.159  20.647  0.00  0.00    +0.000 A 
ATOM     34  C   UNL     1       1.628  17.597  19.994  0.00  0.00    +0.000 A 
ENDBRANCH  28  29
ENDBRANCH  27  28
ENDBRANCH   6  27
TORSDOF 6
ENDMDL
MODEL 6
REMARK VINA RESULT:      -8.0      5.872     10.090
REMARK  Name = 
REMARK  7 active torsions:
REMARK  status: ('A' for Active; 'I' for Inactive)
REMARK    1  A    between atoms: C_1  and  C_2
REMARK    2  A    between atoms: C_5  and  C_6
REMARK    3  A    between atoms: C_8  and  C_9
REMARK    4  A    between atoms: C_15  and  C_16
REMARK    5  A    between atoms: C_16  and  O_17
REMARK    6  A    between atoms: O_17  and  C_18
REMARK    7  A    between atoms: C_24  and  C_25
REMARK                            x       y       z     vdW  Elec       q    Type
REMARK                         _______ _______ _______ _____ _____    ______ ____
ROOT
ATOM      1  C   UNL     1       1.088   9.945  18.629  0.00  0.00    +0.000 A 
ATOM      2  C   UNL     1      -0.367   9.832  18.304  0.00  0.00    +0.000 A 
ATOM      3  C   UNL     1      -1.077  10.975  18.285  0.00  0.00    +0.000 A 
ATOM      4  N   UNL     1      -0.437  12.185  18.525  0.00  0.00    +0.000 N 
ATOM      5  N   UNL     1      -0.973  13.422  18.517  0.00  0.00    +0.000 NA
ATOM      6  C   UNL     1       0.040  14.262  18.752  0.00  0.00    +0.000 A 
ATOM      7  C   UNL     1       1.274  13.569  18.927  0.00  0.00    +0.000 A 
ATOM      8  C   UNL     1       0.943  12.228  18.778  0.00  0.00    +0.000 A 
ATOM      9  N   UNL     1       1.698  11.081  18.828  0.00  0.00    +0.000 NA
ENDROOT
BRANCH   1  14
ATOM     10  C   UNL     1       4.006   4.928  18.982  0.00  0.00    +0.000 C 
ATOM     11  C   UNL     1       3.265   6.229  18.900  0.00  0.00    +0.000 A 
ATOM     12  C   UNL     1       2.427   6.649  19.936  0.00  0.00    +0.000 A 
ATOM     13  C   UNL     1       1.725   7.856  19.837  0.00  0.00    +0.000 A 
ATOM     14  C   UNL     1       1.862   8.666  18.701  0.00  0.00    +0.000 A 
ATOM     15  C   UNL     1       2.695   8.240  17.660  0.00  0.00    +0.000 A 
ATOM     16  C   UNL     1       3.393   7.033  17.762  0.00  0.00    +0.000 A 
ENDBRANCH   1  14
BRANCH   7  17
ATOM     17  C   UNL     1       2.620  14.107  19.121  0.00  0.00    +0.000 A 
ATOM     18  C   UNL     1       3.244  14.038  20.376  0.00  0.00    +0.000 A 
ATOM     19  C   UNL     1       4.428  14.735  20.632  0.00  0.00    +0.000 A 
ATOM     20  C   UNL     1       5.037  15.466  19.619  0.00  0.00    +0.000 A 
ATOM     21  C   UNL     1       4.477  15.479  18.344  0.00  0.00    +0.000 A 
ATOM     22  C   UNL     1       3.275  14.807  18.098  0.00  0.00    +0.000 A 
ENDBRANCH   7  17
BRANCH   3  23
ATOM     23  C   UNL     1      -2.532  10.965  17.993  0.00  0.00    +0.000 C 
ATOM     24  F   UNL     1      -3.347  11.590  18.872  0.00  0.00    +0.000 F 
ATOM     25  F   UNL     1      -2.778  11.529  16.776  0.00  0.00    +0.000 F 
ATOM     26  F   UNL     1      -2.987   9.683  17.896  0.00  0.00    +0.000 F 
ENDBRANCH   3  23
BRANCH   6  27
ATOM     27  C   UNL     1      -0.226  15.743  18.786  0.00  0.00    +0.000 C 
BRANCH  27  28
ATOM     28  O   UNL     1      -0.396  16.170  20.141  0.00  0.00    +0.000 OA
BRANCH  28  29
ATOM     29  C   UNL     1       0.704  16.651  20.791  0.00  0.00    +0.000 A 
ATOM     30  C   UNL     1       1.492  17.521  20.034  0.00  0.00    +0.000 A 
ATOM     31  C   UNL     1       2.617  18.131  20.593  0.00  0.00    +0.000 A 
ATOM     32  C   UNL     1       2.946  17.885  21.923  0.00  0.00    +0.000 A 
ATOM     33  C   UNL     1       2.156  17.026  22.687  0.00  0.00    +0.000 A 
ATOM     34  C   UNL     1       1.035  16.405  22.122  0.00  0.00    +0.000 A 
ENDBRANCH  28  29
ENDBRANCH  27  28
ENDBRANCH   6  27
TORSDOF 6
ENDMDL
MODEL 7
REMARK VINA RESULT:      -8.0      2.519      6.953
REMARK  Name = 
REMARK  7 active torsions:
REMARK  status: ('A' for Active; 'I' for Inactive)
REMARK    1  A    between atoms: C_1  and  C_2
REMARK    2  A    between atoms: C_5  and  C_6
REMARK    3  A    between atoms: C_8  and  C_9
REMARK    4  A    between atoms: C_15  and  C_16
REMARK    5  A    between atoms: C_16  and  O_17
REMARK    6  A    between atoms: O_17  and  C_18
REMARK    7  A    between atoms: C_24  and  C_25
REMARK                            x       y       z     vdW  Elec       q    Type
REMARK                         _______ _______ _______ _____ _____    ______ ____
ROOT
ATOM      1  C   UNL     1       6.623   7.498  17.438  0.00  0.00    +0.000 A 
ATOM      2  C   UNL     1       7.097   6.536  16.396  0.00  0.00    +0.000 A 
ATOM      3  C   UNL     1       6.259   5.535  16.067  0.00  0.00    +0.000 A 
ATOM      4  N   UNL     1       5.007   5.462  16.666  0.00  0.00    +0.000 N 
ATOM      5  N   UNL     1       4.032   4.559  16.441  0.00  0.00    +0.000 NA
ATOM      6  C   UNL     1       3.005   4.929  17.213  0.00  0.00    +0.000 A 
ATOM      7  C   UNL     1       3.305   6.099  17.971  0.00  0.00    +0.000 A 
ATOM      8  C   UNL     1       4.604   6.426  17.604  0.00  0.00    +0.000 A 
ATOM      9  N   UNL     1       5.439   7.449  17.983  0.00  0.00    +0.000 NA
ENDROOT
BRANCH   1  14
ATOM     10  C   UNL     1      10.252  11.775  18.974  0.00  0.00    +0.000 C 
ATOM     11  C   UNL     1       9.325  10.669  18.564  0.00  0.00    +0.000 A 
ATOM     12  C   UNL     1       8.315  10.885  17.624  0.00  0.00    +0.000 A 
ATOM     13  C   UNL     1       7.444   9.849  17.266  0.00  0.00    +0.000 A 
ATOM     14  C   UNL     1       7.580   8.578  17.839  0.00  0.00    +0.000 A 
ATOM     15  C   UNL     1       8.587   8.365  18.789  0.00  0.00    +0.000 A 
ATOM     16  C   UNL     1       9.454   9.402  19.144  0.00  0.00    +0.000 A 
ENDBRANCH   1  14
BRANCH   7  17
ATOM     17  C   UNL     1       2.443   6.870  18.866  0.00  0.00    +0.000 A 
ATOM     18  C   UNL     1       2.013   8.158  18.511  0.00  0.00    +0.000 A 
ATOM     19  C   UNL     1       1.376   8.987  19.438  0.00  0.00    +0.000 A 
ATOM     20  C   UNL     1       1.109   8.520  20.720  0.00  0.00    +0.000 A 
ATOM     21  C   UNL     1       1.454   7.216  21.064  0.00  0.00    +0.000 A 
ATOM     22  C   UNL     1       2.119   6.398  20.145  0.00  0.00    +0.000 A 
ENDBRANCH   7  17
BRANCH   3  23
ATOM     23  C   UNL     1       6.645   4.518  15.058  0.00  0.00    +0.000 C 
ATOM     24  F   UNL     1       5.847   4.384  13.974  0.00  0.00    +0.000 F 
ATOM     25  F   UNL     1       7.897   4.770  14.582  0.00  0.00    +0.000 F 
ATOM     26  F   UNL     1       6.716   3.283  15.633  0.00  0.00    +0.000 F 
ENDBRANCH   3  23
BRANCH   6  27
ATOM     27  C   UNL     1       1.732   4.126  17.176  0.00  0.00    +0.000 C 
BRANCH  27  28
ATOM     28  O   UNL     1       1.959   2.840  17.760  0.00  0.00    +0.000 OA
BRANCH  28  29
ATOM     29  C   UNL     1       2.194   2.792  19.104  0.00  0.00    +0.000 A 
ATOM     30  C   UNL     1       1.066   3.004  19.900  0.00  0.00    +0.000 A 
ATOM     31  C   UNL     1       1.152   2.927  21.291  0.00  0.00    +0.000 A 
ATOM     32  C   UNL     1       2.370   2.620  21.892  0.00  0.00    +0.000 A 
ATOM     33  C   UNL     1       3.497   2.397  21.102  0.00  0.00    +0.000 A 
ATOM     34  C   UNL     1       3.413   2.485  19.707  0.00  0.00    +0.000 A 
ENDBRANCH  28  29
ENDBRANCH  27  28
ENDBRANCH   6  27
TORSDOF 6
ENDMDL
MODEL 8
REMARK VINA RESULT:      -7.8      1.137      1.828
REMARK  Name = 
REMARK  7 active torsions:
REMARK  status: ('A' for Active; 'I' for Inactive)
REMARK    1  A    between atoms: C_1  and  C_2
REMARK    2  A    between atoms: C_5  and  C_6
REMARK    3  A    between atoms: C_8  and  C_9
REMARK    4  A    between atoms: C_15  and  C_16
REMARK    5  A    between atoms: C_16  and  O_17
REMARK    6  A    between atoms: O_17  and  C_18
REMARK    7  A    between atoms: C_24  and  C_25
REMARK                            x       y       z     vdW  Elec       q    Type
REMARK                         _______ _______ _______ _____ _____    ______ ____
ROOT
ATOM      1  C   UNL     1       2.114   6.781  19.840  0.00  0.00    +0.000 A 
ATOM      2  C   UNL     1       1.334   5.508  19.912  0.00  0.00    +0.000 A 
ATOM      3  C   UNL     1       1.860   4.437  19.290  0.00  0.00    +0.000 A 
ATOM      4  N   UNL     1       3.092   4.547  18.657  0.00  0.00    +0.000 N 
ATOM      5  N   UNL     1       3.783   3.582  18.016  0.00  0.00    +0.000 NA
ATOM      6  C   UNL     1       4.925   4.153  17.619  0.00  0.00    +0.000 A 
ATOM      7  C   UNL     1       4.992   5.526  17.998  0.00  0.00    +0.000 A 
ATOM      8  C   UNL     1       3.797   5.761  18.666  0.00  0.00    +0.000 A 
ATOM      9  N   UNL     1       3.283   6.882  19.271  0.00  0.00    +0.000 NA
ENDROOT
BRANCH   1  14
ATOM     10  C   UNL     1      -0.329  11.478  22.247  0.00  0.00    +0.000 C 
ATOM     11  C   UNL     1       0.316  10.274  21.627  0.00  0.00    +0.000 A 
ATOM     12  C   UNL     1       0.619  10.239  20.264  0.00  0.00    +0.000 A 
ATOM     13  C   UNL     1       1.202   9.101  19.695  0.00  0.00    +0.000 A 
ATOM     14  C   UNL     1       1.499   7.984  20.488  0.00  0.00    +0.000 A 
ATOM     15  C   UNL     1       1.186   8.017  21.852  0.00  0.00    +0.000 A 
ATOM     16  C   UNL     1       0.603   9.155  22.416  0.00  0.00    +0.000 A 
ENDBRANCH   1  14
BRANCH   7  17
ATOM     17  C   UNL     1       6.087   6.481  17.832  0.00  0.00    +0.000 A 
ATOM     18  C   UNL     1       7.320   6.273  18.468  0.00  0.00    +0.000 A 
ATOM     19  C   UNL     1       8.295   7.274  18.498  0.00  0.00    +0.000 A 
ATOM     20  C   UNL     1       8.072   8.481  17.844  0.00  0.00    +0.000 A 
ATOM     21  C   UNL     1       6.887   8.675  17.138  0.00  0.00    +0.000 A 
ATOM     22  C   UNL     1       5.901   7.683  17.135  0.00  0.00    +0.000 A 
ENDBRANCH   7  17
BRANCH   3  23
ATOM     23  C   UNL     1       1.152   3.133  19.288  0.00  0.00    +0.000 C 
ATOM     24  F   UNL     1       0.757   2.642  18.091  0.00  0.00    +0.000 F 
ATOM     25  F   UNL     1       1.927   2.168  19.859  0.00  0.00    +0.000 F 
ATOM     26  F   UNL     1       0.030   3.201  20.060  0.00  0.00    +0.000 F 
ENDBRANCH   3  23
BRANCH   6  27
ATOM     27  C   UNL     1       5.943   3.325  16.881  0.00  0.00    +0.000 C 
BRANCH  27  28
ATOM     28  O   UNL     1       5.545   3.182  15.514  0.00  0.00    +0.000 OA
BRANCH  28  29
ATOM     29  C   UNL     1       6.295   3.826  14.572  0.00  0.00    +0.000 A 
ATOM     30  C   UNL     1       6.086   3.386  13.263  0.00  0.00    +0.000 A 
ATOM     31  C   UNL     1       6.746   3.996  12.194  0.00  0.00    +0.000 A 
ATOM     32  C   UNL     1       7.605   5.064  12.432  0.00  0.00    +0.000 A 
ATOM     33  C   UNL     1       7.809   5.515  13.735  0.00  0.00    +0.000 A 
ATOM     34  C   UNL     1       7.156   4.896  14.809  0.00  0.00    +0.000 A 
ENDBRANCH  28  29
ENDBRANCH  27  28
ENDBRANCH   6  27
TORSDOF 6
ENDMDL
MODEL 9
REMARK VINA RESULT:      -7.8      3.081      8.708
REMARK  Name = 
REMARK  7 active torsions:
REMARK  status: ('A' for Active; 'I' for Inactive)
REMARK    1  A    between atoms: C_1  and  C_2
REMARK    2  A    between atoms: C_5  and  C_6
REMARK    3  A    between atoms: C_8  and  C_9
REMARK    4  A    between atoms: C_15  and  C_16
REMARK    5  A    between atoms: C_16  and  O_17
REMARK    6  A    between atoms: O_17  and  C_18
REMARK    7  A    between atoms: C_24  and  C_25
REMARK                            x       y       z     vdW  Elec       q    Type
REMARK                         _______ _______ _______ _____ _____    ______ ____
ROOT
ATOM      1  C   UNL     1       3.452   5.884  18.156  0.00  0.00    +0.000 A 
ATOM      2  C   UNL     1       3.235   4.749  19.105  0.00  0.00    +0.000 A 
ATOM      3  C   UNL     1       2.462   4.994  20.179  0.00  0.00    +0.000 A 
ATOM      4  N   UNL     1       1.881   6.247  20.337  0.00  0.00    +0.000 N 
ATOM      5  N   UNL     1       1.060   6.662  21.322  0.00  0.00    +0.000 NA
ATOM      6  C   UNL     1       0.726   7.919  21.016  0.00  0.00    +0.000 A 
ATOM      7  C   UNL     1       1.343   8.352  19.805  0.00  0.00    +0.000 A 
ATOM      8  C   UNL     1       2.087   7.257  19.384  0.00  0.00    +0.000 A 
ATOM      9  N   UNL     1       2.887   7.053  18.286  0.00  0.00    +0.000 NA
ENDROOT
BRANCH   1  14
ATOM     10  C   UNL     1       6.912   4.761  13.620  0.00  0.00    +0.000 C 
ATOM     11  C   UNL     1       6.032   5.049  14.800  0.00  0.00    +0.000 A 
ATOM     12  C   UNL     1       5.534   4.017  15.598  0.00  0.00    +0.000 A 
ATOM     13  C   UNL     1       4.697   4.299  16.685  0.00  0.00    +0.000 A 
ATOM     14  C   UNL     1       4.356   5.623  16.992  0.00  0.00    +0.000 A 
ATOM     15  C   UNL     1       4.849   6.656  16.186  0.00  0.00    +0.000 A 
ATOM     16  C   UNL     1       5.683   6.370  15.101  0.00  0.00    +0.000 A 
ENDBRANCH   1  14
BRANCH   7  17
ATOM     17  C   UNL     1       1.183   9.613  19.082  0.00  0.00    +0.000 A 
ATOM     18  C   UNL     1       2.296  10.412  18.781  0.00  0.00    +0.000 A 
ATOM     19  C   UNL     1       2.141  11.711  18.289  0.00  0.00    +0.000 A 
ATOM     20  C   UNL     1       0.868  12.211  18.038  0.00  0.00    +0.000 A 
ATOM     21  C   UNL     1      -0.245  11.403  18.253  0.00  0.00    +0.000 A 
ATOM     22  C   UNL     1      -0.090  10.115  18.775  0.00  0.00    +0.000 A 
ENDBRANCH   7  17
BRANCH   3  23
ATOM     23  C   UNL     1       2.203   3.938  21.189  0.00  0.00    +0.000 C 
ATOM     24  F   UNL     1       2.504   4.222  22.476  0.00  0.00    +0.000 F 
ATOM     25  F   UNL     1       0.888   3.576  21.175  0.00  0.00    +0.000 F 
ATOM     26  F   UNL     1       2.894   2.804  20.877  0.00  0.00    +0.000 F 
ENDBRANCH   3  23
BRANCH   6  27
ATOM     27  C   UNL     1      -0.213   8.672  21.920  0.00  0.00    +0.000 C 
BRANCH  27  28
ATOM     28  O   UNL     1       0.428   9.859  22.397  0.00  0.00    +0.000 OA
BRANCH  28  29
ATOM     29  C   UNL     1      -0.327  10.994  22.472  0.00  0.00    +0.000 A 
ATOM     30  C   UNL     1       0.154  12.064  21.714  0.00  0.00    +0.000 A 
ATOM     31  C   UNL     1      -0.551  13.267  21.655  0.00  0.00    +0.000 A 
ATOM     32  C   UNL     1      -1.753  13.398  22.344  0.00  0.00    +0.000 A 
ATOM     33  C   UNL     1      -2.244  12.329  23.094  0.00  0.00    +0.000 A 
ATOM     34  C   UNL     1      -1.531  11.126  23.162  0.00  0.00    +0.000 A 
ENDBRANCH  28  29
ENDBRANCH  27  28
ENDBRANCH   6  27
TORSDOF 6
ENDMDL
