MODEL 1
REMARK VINA RESULT:      -7.4      0.000      0.000
REMARK  Name = 
REMARK  8 active torsions:
REMARK  status: ('A' for Active; 'I' for Inactive)
REMARK    1  A    between atoms: C_2  and  C_3
REMARK    2  A    between atoms: C_3  and  C_4
REMARK    3  A    between atoms: C_4  and  C_5
REMARK    4  A    between atoms: C_5  and  C_6
REMARK    5  A    between atoms: C_6  and  C_7
REMARK    6  A    between atoms: N_9  and  C_10
REMARK    7  A    between atoms: C_10  and  C_11
REMARK    8  A    between atoms: N_20  and  O_21
REMARK                            x       y       z     vdW  Elec       q    Type
REMARK                         _______ _______ _______ _____ _____    ______ ____
ROOT
ATOM      1  C   UNL     1       5.627   5.096  16.892  0.00  0.00    +0.000 A 
ATOM      2  C   UNL     1       4.284   4.835  16.738  0.00  0.00    +0.000 A 
ATOM      3  N   UNL     1       3.680   5.706  17.598  0.00  0.00    +0.000 N 
ATOM      4  N   UNL     1       4.585   6.495  18.208  0.00  0.00    +0.000 NA
ATOM      5  N   UNL     1       5.785   6.121  17.787  0.00  0.00    +0.000 NA
ENDROOT
BRANCH   1   6
ATOM      6  C   UNL     1       6.807   4.443  16.264  0.00  0.00    +0.000 C 
BRANCH   6   7
ATOM      7  C   UNL     1       6.968   4.772  14.778  0.00  0.00    +0.000 C 
BRANCH   7   8
ATOM      8  C   UNL     1       6.027   3.953  13.891  0.00  0.00    +0.000 C 
BRANCH   8   9
ATOM      9  C   UNL     1       6.553   3.817  12.466  0.00  0.00    +0.000 C 
BRANCH   9  11
ATOM     10  O   UNL     1       4.786   2.536  11.435  0.00  0.00    +0.000 OA
ATOM     11  C   UNL     1       5.967   2.612  11.764  0.00  0.00    +0.000 C 
ATOM     12  N   UNL     1       6.870   1.618  11.473  0.00  0.00    +0.000 N 
ATOM     13  H   UNL     1       7.813   1.564  11.842  0.00  0.00    +0.000 HD
BRANCH  12  14
ATOM     14  O   UNL     1       6.358   0.460  10.852  0.00  0.00    +0.000 OA
ATOM     15  H   UNL     1       5.799   0.835  10.137  0.00  0.00    +0.000 HD
ENDBRANCH  12  14
ENDBRANCH   9  11
ENDBRANCH   8   9
ENDBRANCH   7   8
ENDBRANCH   6   7
ENDBRANCH   1   6
BRANCH   3  16
ATOM     16  C   UNL     1       2.284   5.745  17.993  0.00  0.00    +0.000 C 
BRANCH  16  17
ATOM     17  C   UNL     1       1.994   4.778  19.113  0.00  0.00    +0.000 A 
ATOM     18  C   UNL     1       2.417   5.056  20.423  0.00  0.00    +0.000 A 
ATOM     19  C   UNL     1       2.177   4.140  21.449  0.00  0.00    +0.000 A 
ATOM     20  C   UNL     1       1.512   2.953  21.169  0.00  0.00    +0.000 A 
ATOM     21  F   UNL     1       1.292   2.073  22.154  0.00  0.00    +0.000 F 
ATOM     22  C   UNL     1       1.075   2.665  19.882  0.00  0.00    +0.000 A 
ATOM     23  C   UNL     1       1.318   3.575  18.852  0.00  0.00    +0.000 A 
ENDBRANCH  16  17
ENDBRANCH   3  16
TORSDOF 8
ENDMDL
MODEL 2
REMARK VINA RESULT:      -7.4      3.830      6.899
REMARK  Name = 
REMARK  8 active torsions:
REMARK  status: ('A' for Active; 'I' for Inactive)
REMARK    1  A    between atoms: C_2  and  C_3
REMARK    2  A    between atoms: C_3  and  C_4
REMARK    3  A    between atoms: C_4  and  C_5
REMARK    4  A    between atoms: C_5  and  C_6
REMARK    5  A    between atoms: C_6  and  C_7
REMARK    6  A    between atoms: N_9  and  C_10
REMARK    7  A    between atoms: C_10  and  C_11
REMARK    8  A    between atoms: N_20  and  O_21
REMARK                            x       y       z     vdW  Elec       q    Type
REMARK                         _______ _______ _______ _____ _____    ______ ____
ROOT
ATOM      1  C   UNL     1       4.076   5.516  19.033  0.00  0.00    +0.000 A 
ATOM      2  C   UNL     1       4.632   6.053  17.895  0.00  0.00    +0.000 A 
ATOM      3  N   UNL     1       5.789   5.347  17.730  0.00  0.00    +0.000 N 
ATOM      4  N   UNL     1       5.917   4.395  18.673  0.00  0.00    +0.000 NA
ATOM      5  N   UNL     1       4.874   4.497  19.484  0.00  0.00    +0.000 NA
ENDROOT
BRANCH   1   6
ATOM      6  C   UNL     1       2.834   5.891  19.760  0.00  0.00    +0.000 C 
BRANCH   6   7
ATOM      7  C   UNL     1       2.286   4.772  20.649  0.00  0.00    +0.000 C 
BRANCH   7   8
ATOM      8  C   UNL     1       0.990   4.170  20.101  0.00  0.00    +0.000 C 
BRANCH   8   9
ATOM      9  C   UNL     1       1.181   2.738  19.614  0.00  0.00    +0.000 C 
BRANCH   9  11
ATOM     10  O   UNL     1       1.921   3.130  17.350  0.00  0.00    +0.000 OA
ATOM     11  C   UNL     1       2.158   2.662  18.461  0.00  0.00    +0.000 C 
ATOM     12  N   UNL     1       3.360   2.068  18.761  0.00  0.00    +0.000 N 
ATOM     13  H   UNL     1       3.553   1.543  19.607  0.00  0.00    +0.000 HD
BRANCH  12  14
ATOM     14  O   UNL     1       4.285   1.943  17.704  0.00  0.00    +0.000 OA
ATOM     15  H   UNL     1       3.744   2.189  16.921  0.00  0.00    +0.000 HD
ENDBRANCH  12  14
ENDBRANCH   9  11
ENDBRANCH   8   9
ENDBRANCH   7   8
ENDBRANCH   6   7
ENDBRANCH   1   6
BRANCH   3  16
ATOM     16  C   UNL     1       6.871   5.613  16.800  0.00  0.00    +0.000 C 
BRANCH  16  17
ATOM     17  C   UNL     1       6.620   4.976  15.457  0.00  0.00    +0.000 A 
ATOM     18  C   UNL     1       7.535   5.146  14.405  0.00  0.00    +0.000 A 
ATOM     19  C   UNL     1       7.280   4.584  13.153  0.00  0.00    +0.000 A 
ATOM     20  C   UNL     1       6.118   3.849  12.953  0.00  0.00    +0.000 A 
ATOM     21  F   UNL     1       5.872   3.320  11.748  0.00  0.00    +0.000 F 
ATOM     22  C   UNL     1       5.206   3.660  13.984  0.00  0.00    +0.000 A 
ATOM     23  C   UNL     1       5.454   4.225  15.235  0.00  0.00    +0.000 A 
ENDBRANCH  16  17
ENDBRANCH   3  16
TORSDOF 8
ENDMDL
MODEL 3
REMARK VINA RESULT:      -7.4      4.604      7.495
REMARK  Name = 
REMARK  8 active torsions:
REMARK  status: ('A' for Active; 'I' for Inactive)
REMARK    1  A    between atoms: C_2  and  C_3
REMARK    2  A    between atoms: C_3  and  C_4
REMARK    3  A    between atoms: C_4  and  C_5
REMARK    4  A    between atoms: C_5  and  C_6
REMARK    5  A    between atoms: C_6  and  C_7
REMARK    6  A    between atoms: N_9  and  C_10
REMARK    7  A    between atoms: C_10  and  C_11
REMARK    8  A    between atoms: N_20  and  O_21
REMARK                            x       y       z     vdW  Elec       q    Type
REMARK                         _______ _______ _______ _____ _____    ______ ____
ROOT
ATOM      1  C   UNL     1       2.935   3.162  17.892  0.00  0.00    +0.000 A 
ATOM      2  C   UNL     1       4.258   2.891  17.626  0.00  0.00    +0.000 A 
ATOM      3  N   UNL     1       4.743   4.071  17.140  0.00  0.00    +0.000 N 
ATOM      4  N   UNL     1       3.798   5.029  17.153  0.00  0.00    +0.000 NA
ATOM      5  N   UNL     1       2.680   4.478  17.605  0.00  0.00    +0.000 NA
ENDROOT
BRANCH   1   6
ATOM      6  C   UNL     1       1.857   2.269  18.394  0.00  0.00    +0.000 C 
BRANCH   6   7
ATOM      7  C   UNL     1       0.915   2.949  19.391  0.00  0.00    +0.000 C 
BRANCH   7   8
ATOM      8  C   UNL     1       1.229   2.576  20.842  0.00  0.00    +0.000 C 
BRANCH   8   9
ATOM      9  C   UNL     1       2.169   3.579  21.503  0.00  0.00    +0.000 C 
BRANCH   9  11
ATOM     10  O   UNL     1       1.047   5.624  20.884  0.00  0.00    +0.000 OA
ATOM     11  C   UNL     1       2.071   4.947  20.864  0.00  0.00    +0.000 C 
ATOM     12  N   UNL     1       3.236   5.402  20.296  0.00  0.00    +0.000 N 
ATOM     13  H   UNL     1       4.059   4.836  20.125  0.00  0.00    +0.000 HD
BRANCH  12  14
ATOM     14  O   UNL     1       3.179   6.658  19.656  0.00  0.00    +0.000 OA
ATOM     15  H   UNL     1       2.392   7.071  20.074  0.00  0.00    +0.000 HD
ENDBRANCH  12  14
ENDBRANCH   9  11
ENDBRANCH   8   9
ENDBRANCH   7   8
ENDBRANCH   6   7
ENDBRANCH   1   6
BRANCH   3  16
ATOM     16  C   UNL     1       6.032   4.317  16.520  0.00  0.00    +0.000 C 
BRANCH  16  17
ATOM     17  C   UNL     1       6.779   5.430  17.211  0.00  0.00    +0.000 A 
ATOM     18  C   UNL     1       6.925   6.683  16.594  0.00  0.00    +0.000 A 
ATOM     19  C   UNL     1       7.648   7.698  17.222  0.00  0.00    +0.000 A 
ATOM     20  C   UNL     1       8.220   7.465  18.466  0.00  0.00    +0.000 A 
ATOM     21  F   UNL     1       8.922   8.437  19.062  0.00  0.00    +0.000 F 
ATOM     22  C   UNL     1       8.078   6.236  19.100  0.00  0.00    +0.000 A 
ATOM     23  C   UNL     1       7.361   5.217  18.472  0.00  0.00    +0.000 A 
ENDBRANCH  16  17
ENDBRANCH   3  16
TORSDOF 8
ENDMDL
MODEL 4
REMARK VINA RESULT:      -7.3      1.683      2.342
REMARK  Name = 
REMARK  8 active torsions:
REMARK  status: ('A' for Active; 'I' for Inactive)
REMARK    1  A    between atoms: C_2  and  C_3
REMARK    2  A    between atoms: C_3  and  C_4
REMARK    3  A    between atoms: C_4  and  C_5
REMARK    4  A    between atoms: C_5  and  C_6
REMARK    5  A    between atoms: C_6  and  C_7
REMARK    6  A    between atoms: N_9  and  C_10
REMARK    7  A    between atoms: C_10  and  C_11
REMARK    8  A    between atoms: N_20  and  O_21
REMARK                            x       y       z     vdW  Elec       q    Type
REMARK                         _______ _______ _______ _____ _____    ______ ____
ROOT
ATOM      1  C   UNL     1       6.570   4.690  15.931  0.00  0.00    +0.000 A 
ATOM      2  C   UNL     1       5.591   5.044  16.832  0.00  0.00    +0.000 A 
ATOM      3  N   UNL     1       6.194   4.892  18.048  0.00  0.00    +0.000 N 
ATOM      4  N   UNL     1       7.480   4.521  17.911  0.00  0.00    +0.000 NA
ATOM      5  N   UNL     1       7.718   4.386  16.614  0.00  0.00    +0.000 NA
ENDROOT
BRANCH   1   6
ATOM      6  C   UNL     1       6.518   4.601  14.447  0.00  0.00    +0.000 C 
BRANCH   6   7
ATOM      7  C   UNL     1       5.258   3.909  13.921  0.00  0.00    +0.000 C 
BRANCH   7   8
ATOM      8  C   UNL     1       5.318   3.649  12.414  0.00  0.00    +0.000 C 
BRANCH   8   9
ATOM      9  C   UNL     1       6.749   3.468  11.919  0.00  0.00    +0.000 C 
BRANCH   9  11
ATOM     10  O   UNL     1       7.957   1.803  10.655  0.00  0.00    +0.000 OA
ATOM     11  C   UNL     1       6.968   2.094  11.323  0.00  0.00    +0.000 C 
ATOM     12  N   UNL     1       5.995   1.173  11.627  0.00  0.00    +0.000 N 
ATOM     13  H   UNL     1       5.099   1.391  12.047  0.00  0.00    +0.000 HD
BRANCH  12  14
ATOM     14  O   UNL     1       6.141  -0.111  11.060  0.00  0.00    +0.000 OA
ATOM     15  H   UNL     1       6.211  -0.684  11.855  0.00  0.00    +0.000 HD
ENDBRANCH  12  14
ENDBRANCH   9  11
ENDBRANCH   8   9
ENDBRANCH   7   8
ENDBRANCH   6   7
ENDBRANCH   1   6
BRANCH   3  16
ATOM     16  C   UNL     1       5.577   4.942  19.360  0.00  0.00    +0.000 C 
BRANCH  16  17
ATOM     17  C   UNL     1       4.208   4.311  19.357  0.00  0.00    +0.000 A 
ATOM     18  C   UNL     1       4.065   2.915  19.295  0.00  0.00    +0.000 A 
ATOM     19  C   UNL     1       2.794   2.339  19.256  0.00  0.00    +0.000 A 
ATOM     20  C   UNL     1       1.669   3.153  19.285  0.00  0.00    +0.000 A 
ATOM     21  F   UNL     1       0.452   2.597  19.237  0.00  0.00    +0.000 F 
ATOM     22  C   UNL     1       1.788   4.535  19.357  0.00  0.00    +0.000 A 
ATOM     23  C   UNL     1       3.057   5.116  19.391  0.00  0.00    +0.000 A 
ENDBRANCH  16  17
ENDBRANCH   3  16
TORSDOF 8
ENDMDL
MODEL 5
REMARK VINA RESULT:      -7.3      5.235      6.621
REMARK  Name = 
REMARK  8 active torsions:
REMARK  status: ('A' for Active; 'I' for Inactive)
REMARK    1  A    between atoms: C_2  and  C_3
REMARK    2  A    between atoms: C_3  and  C_4
REMARK    3  A    between atoms: C_4  and  C_5
REMARK    4  A    between atoms: C_5  and  C_6
REMARK    5  A    between atoms: C_6  and  C_7
REMARK    6  A    between atoms: N_9  and  C_10
REMARK    7  A    between atoms: C_10  and  C_11
REMARK    8  A    between atoms: N_20  and  O_21
REMARK                            x       y       z     vdW  Elec       q    Type
REMARK                         _______ _______ _______ _____ _____    ______ ____
ROOT
ATOM      1  C   UNL     1       6.138   6.032  17.458  0.00  0.00    +0.000 A 
ATOM      2  C   UNL     1       5.752   4.755  17.115  0.00  0.00    +0.000 A 
ATOM      3  N   UNL     1       4.389   4.799  17.168  0.00  0.00    +0.000 N 
ATOM      4  N   UNL     1       3.952   6.036  17.471  0.00  0.00    +0.000 NA
ATOM      5  N   UNL     1       5.020   6.798  17.660  0.00  0.00    +0.000 NA
ENDROOT
BRANCH   1   6
ATOM      6  C   UNL     1       7.499   6.608  17.627  0.00  0.00    +0.000 C 
BRANCH   6   7
ATOM      7  C   UNL     1       7.534   8.134  17.514  0.00  0.00    +0.000 C 
BRANCH   7   8
ATOM      8  C   UNL     1       8.549   8.769  18.467  0.00  0.00    +0.000 C 
BRANCH   8   9
ATOM      9  C   UNL     1       8.808  10.235  18.138  0.00  0.00    +0.000 C 
BRANCH   9  11
ATOM     10  O   UNL     1      10.864  11.300  18.820  0.00  0.00    +0.000 OA
ATOM     11  C   UNL     1       9.754  10.875  19.131  0.00  0.00    +0.000 C 
ATOM     12  N   UNL     1       9.259  10.990  20.407  0.00  0.00    +0.000 N 
ATOM     13  H   UNL     1       8.421  10.534  20.748  0.00  0.00    +0.000 HD
BRANCH  12  14
ATOM     14  O   UNL     1      10.124  11.547  21.373  0.00  0.00    +0.000 OA
ATOM     15  H   UNL     1       9.524  11.677  22.140  0.00  0.00    +0.000 HD
ENDBRANCH  12  14
ENDBRANCH   9  11
ENDBRANCH   8   9
ENDBRANCH   7   8
ENDBRANCH   6   7
ENDBRANCH   1   6
BRANCH   3  16
ATOM     16  C   UNL     1       3.458   3.689  17.086  0.00  0.00    +0.000 C 
BRANCH  16  17
ATOM     17  C   UNL     1       2.840   3.379  18.426  0.00  0.00    +0.000 A 
ATOM     18  C   UNL     1       1.467   3.583  18.643  0.00  0.00    +0.000 A 
ATOM     19  C   UNL     1       0.908   3.328  19.897  0.00  0.00    +0.000 A 
ATOM     20  C   UNL     1       1.715   2.867  20.929  0.00  0.00    +0.000 A 
ATOM     21  F   UNL     1       1.177   2.634  22.132  0.00  0.00    +0.000 F 
ATOM     22  C   UNL     1       3.073   2.648  20.731  0.00  0.00    +0.000 A 
ATOM     23  C   UNL     1       3.637   2.907  19.482  0.00  0.00    +0.000 A 
ENDBRANCH  16  17
ENDBRANCH   3  16
TORSDOF 8
ENDMDL
MODEL 6
REMARK VINA RESULT:      -7.3      1.570      1.897
REMARK  Name = 
REMARK  8 active torsions:
REMARK  status: ('A' for Active; 'I' for Inactive)
REMARK    1  A    between atoms: C_2  and  C_3
REMARK    2  A    between atoms: C_3  and  C_4
REMARK    3  A    between atoms: C_4  and  C_5
REMARK    4  A    between atoms: C_5  and  C_6
REMARK    5  A    between atoms: C_6  and  C_7
REMARK    6  A    between atoms: N_9  and  C_10
REMARK    7  A    between atoms: C_10  and  C_11
REMARK    8  A    between atoms: N_20  and  O_21
REMARK                            x       y       z     vdW  Elec       q    Type
REMARK                         _______ _______ _______ _____ _____    ______ ____
ROOT
ATOM      1  C   UNL     1       6.612   4.892  17.350  0.00  0.00    +0.000 A 
ATOM      2  C   UNL     1       5.346   5.384  17.577  0.00  0.00    +0.000 A 
ATOM      3  N   UNL     1       5.237   5.393  18.938  0.00  0.00    +0.000 N 
ATOM      4  N   UNL     1       6.380   4.987  19.521  0.00  0.00    +0.000 NA
ATOM      5  N   UNL     1       7.228   4.668  18.554  0.00  0.00    +0.000 NA
ENDROOT
BRANCH   1   6
ATOM      6  C   UNL     1       7.309   4.597  16.070  0.00  0.00    +0.000 C 
BRANCH   6   7
ATOM      7  C   UNL     1       6.474   3.757  15.100  0.00  0.00    +0.000 C 
BRANCH   7   8
ATOM      8  C   UNL     1       5.632   4.617  14.155  0.00  0.00    +0.000 C 
BRANCH   8   9
ATOM      9  C   UNL     1       5.169   3.838  12.928  0.00  0.00    +0.000 C 
BRANCH   9  11
ATOM     10  O   UNL     1       7.308   3.953  11.814  0.00  0.00    +0.000 OA
ATOM     11  C   UNL     1       6.336   3.278  12.144  0.00  0.00    +0.000 C 
ATOM     12  N   UNL     1       6.252   1.935  11.867  0.00  0.00    +0.000 N 
ATOM     13  H   UNL     1       5.421   1.368  11.986  0.00  0.00    +0.000 HD
BRANCH  12  14
ATOM     14  O   UNL     1       7.302   1.380  11.104  0.00  0.00    +0.000 OA
ATOM     15  H   UNL     1       6.979   0.468  10.936  0.00  0.00    +0.000 HD
ENDBRANCH  12  14
ENDBRANCH   9  11
ENDBRANCH   8   9
ENDBRANCH   7   8
ENDBRANCH   6   7
ENDBRANCH   1   6
BRANCH   3  16
ATOM     16  C   UNL     1       4.049   5.636  19.735  0.00  0.00    +0.000 C 
BRANCH  16  17
ATOM     17  C   UNL     1       2.981   4.604  19.472  0.00  0.00    +0.000 A 
ATOM     18  C   UNL     1       2.793   3.530  20.358  0.00  0.00    +0.000 A 
ATOM     19  C   UNL     1       1.827   2.558  20.090  0.00  0.00    +0.000 A 
ATOM     20  C   UNL     1       1.048   2.661  18.944  0.00  0.00    +0.000 A 
ATOM     21  F   UNL     1       0.129   1.721  18.686  0.00  0.00    +0.000 F 
ATOM     22  C   UNL     1       1.211   3.721  18.061  0.00  0.00    +0.000 A 
ATOM     23  C   UNL     1       2.179   4.692  18.322  0.00  0.00    +0.000 A 
ENDBRANCH  16  17
ENDBRANCH   3  16
TORSDOF 8
ENDMDL
MODEL 7
REMARK VINA RESULT:      -7.3      4.954      6.224
REMARK  Name = 
REMARK  8 active torsions:
REMARK  status: ('A' for Active; 'I' for Inactive)
REMARK    1  A    between atoms: C_2  and  C_3
REMARK    2  A    between atoms: C_3  and  C_4
REMARK    3  A    between atoms: C_4  and  C_5
REMARK    4  A    between atoms: C_5  and  C_6
REMARK    5  A    between atoms: C_6  and  C_7
REMARK    6  A    between atoms: N_9  and  C_10
REMARK    7  A    between atoms: C_10  and  C_11
REMARK    8  A    between atoms: N_20  and  O_21
REMARK                            x       y       z     vdW  Elec       q    Type
REMARK                         _______ _______ _______ _____ _____    ______ ____
ROOT
ATOM      1  C   UNL     1       5.995   6.164  17.211  0.00  0.00    +0.000 A 
ATOM      2  C   UNL     1       4.769   6.690  17.549  0.00  0.00    +0.000 A 
ATOM      3  N   UNL     1       3.957   5.597  17.640  0.00  0.00    +0.000 N 
ATOM      4  N   UNL     1       4.644   4.460  17.427  0.00  0.00    +0.000 NA
ATOM      5  N   UNL     1       5.896   4.798  17.154  0.00  0.00    +0.000 NA
ENDROOT
BRANCH   1   6
ATOM      6  C   UNL     1       7.284   6.848  16.921  0.00  0.00    +0.000 C 
BRANCH   6   7
ATOM      7  C   UNL     1       7.853   7.611  18.119  0.00  0.00    +0.000 C 
BRANCH   7   8
ATOM      8  C   UNL     1       8.066   9.097  17.819  0.00  0.00    +0.000 C 
BRANCH   8   9
ATOM      9  C   UNL     1       8.960   9.771  18.854  0.00  0.00    +0.000 C 
BRANCH   9  11
ATOM     10  O   UNL     1      10.632  11.487  18.561  0.00  0.00    +0.000 OA
ATOM     11  C   UNL     1       9.482  11.104  18.365  0.00  0.00    +0.000 C 
ATOM     12  N   UNL     1       8.581  11.842  17.636  0.00  0.00    +0.000 N 
ATOM     13  H   UNL     1       7.589  11.645  17.566  0.00  0.00    +0.000 HD
BRANCH  12  14
ATOM     14  O   UNL     1       9.014  13.110  17.193  0.00  0.00    +0.000 OA
ATOM     15  H   UNL     1       9.972  13.092  17.411  0.00  0.00    +0.000 HD
ENDBRANCH  12  14
ENDBRANCH   9  11
ENDBRANCH   8   9
ENDBRANCH   7   8
ENDBRANCH   6   7
ENDBRANCH   1   6
BRANCH   3  16
ATOM     16  C   UNL     1       2.513   5.569  17.781  0.00  0.00    +0.000 C 
BRANCH  16  17
ATOM     17  C   UNL     1       2.083   4.718  18.949  0.00  0.00    +0.000 A 
ATOM     18  C   UNL     1       2.476   5.049  20.256  0.00  0.00    +0.000 A 
ATOM     19  C   UNL     1       2.105   4.238  21.330  0.00  0.00    +0.000 A 
ATOM     20  C   UNL     1       1.341   3.101  21.100  0.00  0.00    +0.000 A 
ATOM     21  F   UNL     1       0.996   2.319  22.131  0.00  0.00    +0.000 F 
ATOM     22  C   UNL     1       0.933   2.761  19.816  0.00  0.00    +0.000 A 
ATOM     23  C   UNL     1       1.306   3.567  18.739  0.00  0.00    +0.000 A 
ENDBRANCH  16  17
ENDBRANCH   3  16
TORSDOF 8
ENDMDL
MODEL 8
REMARK VINA RESULT:      -7.3      5.530      6.754
REMARK  Name = 
REMARK  8 active torsions:
REMARK  status: ('A' for Active; 'I' for Inactive)
REMARK    1  A    between atoms: C_2  and  C_3
REMARK    2  A    between atoms: C_3  and  C_4
REMARK    3  A    between atoms: C_4  and  C_5
REMARK    4  A    between atoms: C_5  and  C_6
REMARK    5  A    between atoms: C_6  and  C_7
REMARK    6  A    between atoms: N_9  and  C_10
REMARK    7  A    between atoms: C_10  and  C_11
REMARK    8  A    between atoms: N_20  and  O_21
REMARK                            x       y       z     vdW  Elec       q    Type
REMARK                         _______ _______ _______ _____ _____    ______ ____
ROOT
ATOM      1  C   UNL     1       6.733   6.407  17.605  0.00  0.00    +0.000 A 
ATOM      2  C   UNL     1       6.567   5.042  17.529  0.00  0.00    +0.000 A 
ATOM      3  N   UNL     1       5.363   4.893  16.903  0.00  0.00    +0.000 N 
ATOM      4  N   UNL     1       4.840   6.085  16.562  0.00  0.00    +0.000 NA
ATOM      5  N   UNL     1       5.670   7.022  16.998  0.00  0.00    +0.000 NA
ENDROOT
BRANCH   1   6
ATOM      6  C   UNL     1       7.825   7.205  18.223  0.00  0.00    +0.000 C 
BRANCH   6   7
ATOM      7  C   UNL     1       7.994   8.593  17.600  0.00  0.00    +0.000 C 
BRANCH   7   8
ATOM      8  C   UNL     1       8.722   9.567  18.530  0.00  0.00    +0.000 C 
BRANCH   8   9
ATOM      9  C   UNL     1       9.065  10.879  17.833  0.00  0.00    +0.000 C 
BRANCH   9  11
ATOM     10  O   UNL     1      10.929  11.152  19.343  0.00  0.00    +0.000 OA
ATOM     11  C   UNL     1      10.423  11.399  18.251  0.00  0.00    +0.000 C 
ATOM     12  N   UNL     1      11.078  12.136  17.293  0.00  0.00    +0.000 N 
ATOM     13  H   UNL     1      10.656  12.487  16.442  0.00  0.00    +0.000 HD
BRANCH  12  14
ATOM     14  O   UNL     1      12.332  12.672  17.656  0.00  0.00    +0.000 OA
ATOM     15  H   UNL     1      12.319  13.551  17.217  0.00  0.00    +0.000 HD
ENDBRANCH  12  14
ENDBRANCH   9  11
ENDBRANCH   8   9
ENDBRANCH   7   8
ENDBRANCH   6   7
ENDBRANCH   1   6
BRANCH   3  16
ATOM     16  C   UNL     1       4.595   3.674  16.727  0.00  0.00    +0.000 C 
BRANCH  16  17
ATOM     17  C   UNL     1       3.574   3.496  17.823  0.00  0.00    +0.000 A 
ATOM     18  C   UNL     1       2.218   3.776  17.587  0.00  0.00    +0.000 A 
ATOM     19  C   UNL     1       1.283   3.644  18.615  0.00  0.00    +0.000 A 
ATOM     20  C   UNL     1       1.699   3.228  19.873  0.00  0.00    +0.000 A 
ATOM     21  F   UNL     1       0.801   3.112  20.860  0.00  0.00    +0.000 F 
ATOM     22  C   UNL     1       3.034   2.936  20.124  0.00  0.00    +0.000 A 
ATOM     23  C   UNL     1       3.973   3.072  19.101  0.00  0.00    +0.000 A 
ENDBRANCH  16  17
ENDBRANCH   3  16
TORSDOF 8
ENDMDL
MODEL 9
REMARK VINA RESULT:      -7.2      5.770      7.257
REMARK  Name = 
REMARK  8 active torsions:
REMARK  status: ('A' for Active; 'I' for Inactive)
REMARK    1  A    between atoms: C_2  and  C_3
REMARK    2  A    between atoms: C_3  and  C_4
REMARK    3  A    between atoms: C_4  and  C_5
REMARK    4  A    between atoms: C_5  and  C_6
REMARK    5  A    between atoms: C_6  and  C_7
REMARK    6  A    between atoms: N_9  and  C_10
REMARK    7  A    between atoms: C_10  and  C_11
REMARK    8  A    between atoms: N_20  and  O_21
REMARK                            x       y       z     vdW  Elec       q    Type
REMARK                         _______ _______ _______ _____ _____    ______ ____
ROOT
ATOM      1  C   UNL     1       7.428   6.352  18.297  0.00  0.00    +0.000 A 
ATOM      2  C   UNL     1       6.455   6.156  17.343  0.00  0.00    +0.000 A 
ATOM      3  N   UNL     1       6.049   4.869  17.549  0.00  0.00    +0.000 N 
ATOM      4  N   UNL     1       6.688   4.318  18.597  0.00  0.00    +0.000 NA
ATOM      5  N   UNL     1       7.544   5.218  19.058  0.00  0.00    +0.000 NA
ENDROOT
BRANCH   1   6
ATOM      6  C   UNL     1       8.288   7.537  18.558  0.00  0.00    +0.000 C 
BRANCH   6   7
ATOM      7  C   UNL     1       7.846   8.791  17.800  0.00  0.00    +0.000 C 
BRANCH   7   8
ATOM      8  C   UNL     1       8.799   9.969  18.010  0.00  0.00    +0.000 C 
BRANCH   8   9
ATOM      9  C   UNL     1       9.183  10.145  19.475  0.00  0.00    +0.000 C 
BRANCH   9  11
ATOM     10  O   UNL     1      11.126  11.425  20.119  0.00  0.00    +0.000 OA
ATOM     11  C   UNL     1       9.970  11.417  19.702  0.00  0.00    +0.000 C 
ATOM     12  N   UNL     1       9.310  12.572  19.359  0.00  0.00    +0.000 N 
ATOM     13  H   UNL     1       8.321  12.635  19.150  0.00  0.00    +0.000 HD
BRANCH  12  14
ATOM     14  O   UNL     1       9.995  13.784  19.591  0.00  0.00    +0.000 OA
ATOM     15  H   UNL     1      10.842  13.475  19.979  0.00  0.00    +0.000 HD
ENDBRANCH  12  14
ENDBRANCH   9  11
ENDBRANCH   8   9
ENDBRANCH   7   8
ENDBRANCH   6   7
ENDBRANCH   1   6
BRANCH   3  16
ATOM     16  C   UNL     1       5.177   4.066  16.712  0.00  0.00    +0.000 C 
BRANCH  16  17
ATOM     17  C   UNL     1       3.876   3.748  17.406  0.00  0.00    +0.000 A 
ATOM     18  C   UNL     1       2.945   4.763  17.676  0.00  0.00    +0.000 A 
ATOM     19  C   UNL     1       1.759   4.469  18.351  0.00  0.00    +0.000 A 
ATOM     20  C   UNL     1       1.501   3.164  18.750  0.00  0.00    +0.000 A 
ATOM     21  F   UNL     1       0.367   2.888  19.407  0.00  0.00    +0.000 F 
ATOM     22  C   UNL     1       2.404   2.143  18.483  0.00  0.00    +0.000 A 
ATOM     23  C   UNL     1       3.594   2.434  17.814  0.00  0.00    +0.000 A 
ENDBRANCH  16  17
ENDBRANCH   3  16
TORSDOF 8
ENDMDL
