MODEL 1
REMARK VINA RESULT:      -9.3      0.000      0.000
REMARK  Name = 
REMARK  7 active torsions:
REMARK  status: ('A' for Active; 'I' for Inactive)
REMARK    1  A    between atoms: C_1  and  C_2
REMARK    2  A    between atoms: C_4  and  C_5
REMARK    3  A    between atoms: N_14  and  C_15
REMARK    4  A    between atoms: C_15  and  C_16
REMARK    5  A    between atoms: C_16  and  C_17
REMARK    6  A    between atoms: C_17  and  C_18
REMARK    7  A    between atoms: C_26  and  C_27
REMARK                            x       y       z     vdW  Elec       q    Type
REMARK                         _______ _______ _______ _____ _____    ______ ____
ROOT
ATOM      1  C   UNL     1       5.037   4.128  18.810  0.00  0.00    +0.000 C 
ATOM      2  O   UNL     1       5.578   3.176  19.377  0.00  0.00    +0.000 OA
ATOM      3  N   UNL     1       3.732   4.536  19.092  0.00  0.00    +0.000 N 
ATOM      4  C   UNL     1       3.072   3.949  20.254  0.00  0.00    +0.000 C 
ATOM      5  C   UNL     1       1.557   4.182  20.259  0.00  0.00    +0.000 C 
ATOM      6  C   UNL     1       0.940   3.814  18.906  0.00  0.00    +0.000 C 
ATOM      7  C   UNL     1       1.721   4.376  17.725  0.00  0.00    +0.000 C 
ATOM      8  C   UNL     1       2.870   5.293  18.160  0.00  0.00    +0.000 C 
ATOM      9  C   UNL     1       2.355   6.641  18.740  0.00  0.00    +0.000 C 
ATOM     10  N   UNL     1       2.049   6.698  20.178  0.00  0.00    +0.000 NA
ATOM     11  C   UNL     1       1.197   5.618  20.679  0.00  0.00    +0.000 C 
ENDROOT
BRANCH   1  15
ATOM     12  C   UNL     1       6.974   4.564  14.247  0.00  0.00    +0.000 C 
ATOM     13  C   UNL     1       6.737   5.044  15.648  0.00  0.00    +0.000 A 
ATOM     14  C   UNL     1       5.965   4.319  16.527  0.00  0.00    +0.000 A 
ATOM     15  C   UNL     1       5.824   4.865  17.783  0.00  0.00    +0.000 A 
ATOM     16  N   UNL     1       6.406   6.019  18.180  0.00  0.00    +0.000 NA
ATOM     17  C   UNL     1       7.161   6.633  17.265  0.00  0.00    +0.000 A 
ATOM     18  C   UNL     1       7.877   7.877  17.688  0.00  0.00    +0.000 C 
ATOM     19  N   UNL     1       7.339   6.201  16.003  0.00  0.00    +0.000 NA
ENDBRANCH   1  15
BRANCH  10  20
ATOM     20  C   UNL     1       1.571   8.042  20.558  0.00  0.00    +0.000 C 
BRANCH  20  21
ATOM     21  C   UNL     1       1.378   8.974  19.356  0.00  0.00    +0.000 C 
BRANCH  21  22
ATOM     22  C   UNL     1       0.770  10.320  19.747  0.00  0.00    +0.000 C 
BRANCH  22  23
ATOM     23  C   UNL     1      -0.465  10.575  18.915  0.00  0.00    +0.000 A 
ATOM     24  C   UNL     1      -1.390  11.551  19.306  0.00  0.00    +0.000 A 
ATOM     25  C   UNL     1      -2.568  11.735  18.583  0.00  0.00    +0.000 A 
ATOM     26  C   UNL     1      -2.836  10.940  17.468  0.00  0.00    +0.000 A 
ATOM     27  C   UNL     1      -1.926   9.961  17.077  0.00  0.00    +0.000 A 
ATOM     28  C   UNL     1      -0.746   9.777  17.798  0.00  0.00    +0.000 A 
ENDBRANCH  22  23
ENDBRANCH  21  22
ENDBRANCH  20  21
ENDBRANCH  10  20
TORSDOF 5
ENDMDL
MODEL 2
REMARK VINA RESULT:      -9.2      0.548      1.828
REMARK  Name = 
REMARK  7 active torsions:
REMARK  status: ('A' for Active; 'I' for Inactive)
REMARK    1  A    between atoms: C_1  and  C_2
REMARK    2  A    between atoms: C_4  and  C_5
REMARK    3  A    between atoms: N_14  and  C_15
REMARK    4  A    between atoms: C_15  and  C_16
REMARK    5  A    between atoms: C_16  and  C_17
REMARK    6  A    between atoms: C_17  and  C_18
REMARK    7  A    between atoms: C_26  and  C_27
REMARK                            x       y       z     vdW  Elec       q    Type
REMARK                         _______ _______ _______ _____ _____    ______ ____
ROOT
ATOM      1  C   UNL     1       5.055   4.030  18.934  0.00  0.00    +0.000 C 
ATOM      2  O   UNL     1       5.572   3.079  19.524  0.00  0.00    +0.000 OA
ATOM      3  N   UNL     1       3.736   4.431  19.151  0.00  0.00    +0.000 N 
ATOM      4  C   UNL     1       3.022   3.837  20.277  0.00  0.00    +0.000 C 
ATOM      5  C   UNL     1       1.507   4.063  20.207  0.00  0.00    +0.000 C 
ATOM      6  C   UNL     1       0.961   3.696  18.825  0.00  0.00    +0.000 C 
ATOM      7  C   UNL     1       1.797   4.264  17.685  0.00  0.00    +0.000 C 
ATOM      8  C   UNL     1       2.918   5.185  18.178  0.00  0.00    +0.000 C 
ATOM      9  C   UNL     1       2.368   6.530  18.735  0.00  0.00    +0.000 C 
ATOM     10  N   UNL     1       1.990   6.581  20.156  0.00  0.00    +0.000 NA
ATOM     11  C   UNL     1       1.120   5.497  20.612  0.00  0.00    +0.000 C 
ENDROOT
BRANCH   1  15
ATOM     12  C   UNL     1       7.872   7.914  17.612  0.00  0.00    +0.000 C 
ATOM     13  C   UNL     1       7.191   6.605  17.341  0.00  0.00    +0.000 A 
ATOM     14  C   UNL     1       6.467   5.965  18.320  0.00  0.00    +0.000 A 
ATOM     15  C   UNL     1       5.889   4.772  17.948  0.00  0.00    +0.000 A 
ATOM     16  N   UNL     1       5.978   4.240  16.707  0.00  0.00    +0.000 NA
ATOM     17  C   UNL     1       6.675   4.951  15.819  0.00  0.00    +0.000 A 
ATOM     18  C   UNL     1       6.738   4.429  14.417  0.00  0.00    +0.000 C 
ATOM     19  N   UNL     1       7.304   6.110  16.088  0.00  0.00    +0.000 NA
ENDBRANCH   1  15
BRANCH  10  20
ATOM     20  C   UNL     1       1.487   7.923  20.514  0.00  0.00    +0.000 C 
BRANCH  20  21
ATOM     21  C   UNL     1       1.536   8.915  19.348  0.00  0.00    +0.000 C 
BRANCH  21  22
ATOM     22  C   UNL     1       0.988  10.292  19.723  0.00  0.00    +0.000 C 
BRANCH  22  23
ATOM     23  C   UNL     1      -0.358  10.493  19.067  0.00  0.00    +0.000 A 
ATOM     24  C   UNL     1      -0.663   9.840  17.867  0.00  0.00    +0.000 A 
ATOM     25  C   UNL     1      -1.873  10.083  17.219  0.00  0.00    +0.000 A 
ATOM     26  C   UNL     1      -2.787  10.988  17.760  0.00  0.00    +0.000 A 
ATOM     27  C   UNL     1      -2.488  11.650  18.949  0.00  0.00    +0.000 A 
ATOM     28  C   UNL     1      -1.279  11.406  19.600  0.00  0.00    +0.000 A 
ENDBRANCH  22  23
ENDBRANCH  21  22
ENDBRANCH  20  21
ENDBRANCH  10  20
TORSDOF 5
ENDMDL
MODEL 3
REMARK VINA RESULT:      -9.2      1.459      2.116
REMARK  Name = 
REMARK  7 active torsions:
REMARK  status: ('A' for Active; 'I' for Inactive)
REMARK    1  A    between atoms: C_1  and  C_2
REMARK    2  A    between atoms: C_4  and  C_5
REMARK    3  A    between atoms: N_14  and  C_15
REMARK    4  A    between atoms: C_15  and  C_16
REMARK    5  A    between atoms: C_16  and  C_17
REMARK    6  A    between atoms: C_17  and  C_18
REMARK    7  A    between atoms: C_26  and  C_27
REMARK                            x       y       z     vdW  Elec       q    Type
REMARK                         _______ _______ _______ _____ _____    ______ ____
ROOT
ATOM      1  C   UNL     1       5.040   4.217  18.863  0.00  0.00    +0.000 C 
ATOM      2  O   UNL     1       5.572   3.273  19.450  0.00  0.00    +0.000 OA
ATOM      3  N   UNL     1       3.745   4.653  19.147  0.00  0.00    +0.000 N 
ATOM      4  C   UNL     1       3.088   4.108  20.332  0.00  0.00    +0.000 C 
ATOM      5  C   UNL     1       1.577   4.366  20.346  0.00  0.00    +0.000 C 
ATOM      6  C   UNL     1       0.940   3.971  19.011  0.00  0.00    +0.000 C 
ATOM      7  C   UNL     1       1.717   4.488  17.806  0.00  0.00    +0.000 C 
ATOM      8  C   UNL     1       2.885   5.398  18.204  0.00  0.00    +0.000 C 
ATOM      9  C   UNL     1       2.397   6.770  18.752  0.00  0.00    +0.000 C 
ATOM     10  N   UNL     1       2.107   6.870  20.191  0.00  0.00    +0.000 NA
ATOM     11  C   UNL     1       1.245   5.818  20.731  0.00  0.00    +0.000 C 
ENDROOT
BRANCH   1  15
ATOM     12  C   UNL     1       6.950   4.490  14.276  0.00  0.00    +0.000 C 
ATOM     13  C   UNL     1       6.727   5.016  15.663  0.00  0.00    +0.000 A 
ATOM     14  C   UNL     1       5.954   4.327  16.569  0.00  0.00    +0.000 A 
ATOM     15  C   UNL     1       5.827   4.913  17.808  0.00  0.00    +0.000 A 
ATOM     16  N   UNL     1       6.424   6.073  18.165  0.00  0.00    +0.000 NA
ATOM     17  C   UNL     1       7.179   6.650  17.226  0.00  0.00    +0.000 A 
ATOM     18  C   UNL     1       7.911   7.900  17.605  0.00  0.00    +0.000 C 
ATOM     19  N   UNL     1       7.343   6.178  15.977  0.00  0.00    +0.000 NA
ENDBRANCH   1  15
BRANCH  10  20
ATOM     20  C   UNL     1       1.654   8.232  20.539  0.00  0.00    +0.000 C 
BRANCH  20  21
ATOM     21  C   UNL     1       0.366   8.244  21.368  0.00  0.00    +0.000 C 
BRANCH  21  22
ATOM     22  C   UNL     1       0.404   9.269  22.501  0.00  0.00    +0.000 C 
BRANCH  22  23
ATOM     23  C   UNL     1      -0.556  10.394  22.195  0.00  0.00    +0.000 A 
ATOM     24  C   UNL     1      -0.602  10.953  20.913  0.00  0.00    +0.000 A 
ATOM     25  C   UNL     1      -1.432  12.042  20.647  0.00  0.00    +0.000 A 
ATOM     26  C   UNL     1      -2.218  12.586  21.663  0.00  0.00    +0.000 A 
ATOM     27  C   UNL     1      -2.172  12.043  22.945  0.00  0.00    +0.000 A 
ATOM     28  C   UNL     1      -1.344  10.952  23.212  0.00  0.00    +0.000 A 
ENDBRANCH  22  23
ENDBRANCH  21  22
ENDBRANCH  20  21
ENDBRANCH  10  20
TORSDOF 5
ENDMDL
MODEL 4
REMARK VINA RESULT:      -9.1      1.739      2.702
REMARK  Name = 
REMARK  7 active torsions:
REMARK  status: ('A' for Active; 'I' for Inactive)
REMARK    1  A    between atoms: C_1  and  C_2
REMARK    2  A    between atoms: C_4  and  C_5
REMARK    3  A    between atoms: N_14  and  C_15
REMARK    4  A    between atoms: C_15  and  C_16
REMARK    5  A    between atoms: C_16  and  C_17
REMARK    6  A    between atoms: C_17  and  C_18
REMARK    7  A    between atoms: C_26  and  C_27
REMARK                            x       y       z     vdW  Elec       q    Type
REMARK                         _______ _______ _______ _____ _____    ______ ____
ROOT
ATOM      1  C   UNL     1       5.066   4.186  18.995  0.00  0.00    +0.000 C 
ATOM      2  O   UNL     1       5.565   3.243  19.613  0.00  0.00    +0.000 OA
ATOM      3  N   UNL     1       3.758   4.626  19.208  0.00  0.00    +0.000 N 
ATOM      4  C   UNL     1       3.039   4.087  20.358  0.00  0.00    +0.000 C 
ATOM      5  C   UNL     1       1.530   4.347  20.292  0.00  0.00    +0.000 C 
ATOM      6  C   UNL     1       0.964   3.948  18.926  0.00  0.00    +0.000 C 
ATOM      7  C   UNL     1       1.804   4.458  17.763  0.00  0.00    +0.000 C 
ATOM      8  C   UNL     1       2.951   5.368  18.217  0.00  0.00    +0.000 C 
ATOM      9  C   UNL     1       2.438   6.743  18.733  0.00  0.00    +0.000 C 
ATOM     10  N   UNL     1       2.073   6.850  20.154  0.00  0.00    +0.000 NA
ATOM     11  C   UNL     1       1.181   5.802  20.652  0.00  0.00    +0.000 C 
ENDROOT
BRANCH   1  15
ATOM     12  C   UNL     1       7.932   7.975  17.512  0.00  0.00    +0.000 C 
ATOM     13  C   UNL     1       7.234   6.665  17.296  0.00  0.00    +0.000 A 
ATOM     14  C   UNL     1       6.502   6.076  18.301  0.00  0.00    +0.000 A 
ATOM     15  C   UNL     1       5.909   4.876  17.979  0.00  0.00    +0.000 A 
ATOM     16  N   UNL     1       5.992   4.290  16.762  0.00  0.00    +0.000 NA
ATOM     17  C   UNL     1       6.698   4.954  15.845  0.00  0.00    +0.000 A 
ATOM     18  C   UNL     1       6.755   4.372  14.467  0.00  0.00    +0.000 C 
ATOM     19  N   UNL     1       7.342   6.115  16.066  0.00  0.00    +0.000 NA
ENDBRANCH   1  15
BRANCH  10  20
ATOM     20  C   UNL     1       1.605   8.214  20.472  0.00  0.00    +0.000 C 
BRANCH  20  21
ATOM     21  C   UNL     1       0.446   8.234  21.475  0.00  0.00    +0.000 C 
BRANCH  21  22
ATOM     22  C   UNL     1       0.630   9.291  22.564  0.00  0.00    +0.000 C 
BRANCH  22  23
ATOM     23  C   UNL     1      -0.319  10.440  22.315  0.00  0.00    +0.000 A 
ATOM     24  C   UNL     1      -0.159  11.255  21.188  0.00  0.00    +0.000 A 
ATOM     25  C   UNL     1      -0.985  12.362  20.996  0.00  0.00    +0.000 A 
ATOM     26  C   UNL     1      -1.973  12.669  21.932  0.00  0.00    +0.000 A 
ATOM     27  C   UNL     1      -2.133  11.869  23.061  0.00  0.00    +0.000 A 
ATOM     28  C   UNL     1      -1.310  10.760  23.254  0.00  0.00    +0.000 A 
ENDBRANCH  22  23
ENDBRANCH  21  22
ENDBRANCH  20  21
ENDBRANCH  10  20
TORSDOF 5
ENDMDL
MODEL 5
REMARK VINA RESULT:      -8.8      0.902      1.573
REMARK  Name = 
REMARK  7 active torsions:
REMARK  status: ('A' for Active; 'I' for Inactive)
REMARK    1  A    between atoms: C_1  and  C_2
REMARK    2  A    between atoms: C_4  and  C_5
REMARK    3  A    between atoms: N_14  and  C_15
REMARK    4  A    between atoms: C_15  and  C_16
REMARK    5  A    between atoms: C_16  and  C_17
REMARK    6  A    between atoms: C_17  and  C_18
REMARK    7  A    between atoms: C_26  and  C_27
REMARK                            x       y       z     vdW  Elec       q    Type
REMARK                         _______ _______ _______ _____ _____    ______ ____
ROOT
ATOM      1  C   UNL     1       5.030   4.172  18.843  0.00  0.00    +0.000 C 
ATOM      2  O   UNL     1       5.562   3.217  19.413  0.00  0.00    +0.000 OA
ATOM      3  N   UNL     1       3.732   4.599  19.130  0.00  0.00    +0.000 N 
ATOM      4  C   UNL     1       3.072   4.029  20.300  0.00  0.00    +0.000 C 
ATOM      5  C   UNL     1       1.560   4.282  20.313  0.00  0.00    +0.000 C 
ATOM      6  C   UNL     1       0.930   3.913  18.967  0.00  0.00    +0.000 C 
ATOM      7  C   UNL     1       1.711   4.456  17.777  0.00  0.00    +0.000 C 
ATOM      8  C   UNL     1       2.875   5.360  18.198  0.00  0.00    +0.000 C 
ATOM      9  C   UNL     1       2.381   6.720  18.772  0.00  0.00    +0.000 C 
ATOM     10  N   UNL     1       2.085   6.790  20.211  0.00  0.00    +0.000 NA
ATOM     11  C   UNL     1       1.223   5.726  20.726  0.00  0.00    +0.000 C 
ENDROOT
BRANCH   1  15
ATOM     12  C   UNL     1       6.953   4.543  14.268  0.00  0.00    +0.000 C 
ATOM     13  C   UNL     1       6.726   5.040  15.665  0.00  0.00    +0.000 A 
ATOM     14  C   UNL     1       5.951   4.331  16.554  0.00  0.00    +0.000 A 
ATOM     15  C   UNL     1       5.820   4.890  17.805  0.00  0.00    +0.000 A 
ATOM     16  N   UNL     1       6.415   6.043  18.188  0.00  0.00    +0.000 NA
ATOM     17  C   UNL     1       7.172   6.640  17.264  0.00  0.00    +0.000 A 
ATOM     18  C   UNL     1       7.901   7.882  17.672  0.00  0.00    +0.000 C 
ATOM     19  N   UNL     1       7.340   6.195  16.006  0.00  0.00    +0.000 NA
ENDBRANCH   1  15
BRANCH  10  20
ATOM     20  C   UNL     1       1.627   8.144  20.584  0.00  0.00    +0.000 C 
BRANCH  20  21
ATOM     21  C   UNL     1       0.285   8.143  21.322  0.00  0.00    +0.000 C 
BRANCH  21  22
ATOM     22  C   UNL     1      -0.067   9.511  21.907  0.00  0.00    +0.000 C 
BRANCH  22  23
ATOM     23  C   UNL     1      -0.075  10.543  20.804  0.00  0.00    +0.000 A 
ATOM     24  C   UNL     1      -0.884  10.363  19.676  0.00  0.00    +0.000 A 
ATOM     25  C   UNL     1      -0.835  11.273  18.621  0.00  0.00    +0.000 A 
ATOM     26  C   UNL     1       0.027  12.368  18.681  0.00  0.00    +0.000 A 
ATOM     27  C   UNL     1       0.842  12.551  19.796  0.00  0.00    +0.000 A 
ATOM     28  C   UNL     1       0.794  11.642  20.853  0.00  0.00    +0.000 A 
ENDBRANCH  22  23
ENDBRANCH  21  22
ENDBRANCH  20  21
ENDBRANCH  10  20
TORSDOF 5
ENDMDL
MODEL 6
REMARK VINA RESULT:      -8.7      1.307      2.431
REMARK  Name = 
REMARK  7 active torsions:
REMARK  status: ('A' for Active; 'I' for Inactive)
REMARK    1  A    between atoms: C_1  and  C_2
REMARK    2  A    between atoms: C_4  and  C_5
REMARK    3  A    between atoms: N_14  and  C_15
REMARK    4  A    between atoms: C_15  and  C_16
REMARK    5  A    between atoms: C_16  and  C_17
REMARK    6  A    between atoms: C_17  and  C_18
REMARK    7  A    between atoms: C_26  and  C_27
REMARK                            x       y       z     vdW  Elec       q    Type
REMARK                         _______ _______ _______ _____ _____    ______ ____
ROOT
ATOM      1  C   UNL     1       5.066   4.068  18.915  0.00  0.00    +0.000 C 
ATOM      2  O   UNL     1       5.573   3.107  19.498  0.00  0.00    +0.000 OA
ATOM      3  N   UNL     1       3.751   4.480  19.137  0.00  0.00    +0.000 N 
ATOM      4  C   UNL     1       3.031   3.885  20.258  0.00  0.00    +0.000 C 
ATOM      5  C   UNL     1       1.519   4.127  20.191  0.00  0.00    +0.000 C 
ATOM      6  C   UNL     1       0.968   3.776  18.806  0.00  0.00    +0.000 C 
ATOM      7  C   UNL     1       1.809   4.345  17.671  0.00  0.00    +0.000 C 
ATOM      8  C   UNL     1       2.940   5.251  18.171  0.00  0.00    +0.000 C 
ATOM      9  C   UNL     1       2.404   6.597  18.739  0.00  0.00    +0.000 C 
ATOM     10  N   UNL     1       2.027   6.640  20.160  0.00  0.00    +0.000 NA
ATOM     11  C   UNL     1       1.146   5.560  20.608  0.00  0.00    +0.000 C 
ENDROOT
BRANCH   1  15
ATOM     12  C   UNL     1       7.886   7.956  17.610  0.00  0.00    +0.000 C 
ATOM     13  C   UNL     1       7.209   6.645  17.336  0.00  0.00    +0.000 A 
ATOM     14  C   UNL     1       6.479   6.005  18.310  0.00  0.00    +0.000 A 
ATOM     15  C   UNL     1       5.907   4.810  17.936  0.00  0.00    +0.000 A 
ATOM     16  N   UNL     1       6.007   4.275  16.697  0.00  0.00    +0.000 NA
ATOM     17  C   UNL     1       6.711   4.987  15.813  0.00  0.00    +0.000 A 
ATOM     18  C   UNL     1       6.787   4.461  14.413  0.00  0.00    +0.000 C 
ATOM     19  N   UNL     1       7.335   6.147  16.086  0.00  0.00    +0.000 NA
ENDBRANCH   1  15
BRANCH  10  20
ATOM     20  C   UNL     1       1.538   7.983  20.530  0.00  0.00    +0.000 C 
BRANCH  20  21
ATOM     21  C   UNL     1       1.517   8.962  19.351  0.00  0.00    +0.000 C 
BRANCH  21  22
ATOM     22  C   UNL     1       0.267   9.841  19.337  0.00  0.00    +0.000 C 
BRANCH  22  23
ATOM     23  C   UNL     1       0.648  11.252  18.956  0.00  0.00    +0.000 A 
ATOM     24  C   UNL     1       1.957  11.546  18.559  0.00  0.00    +0.000 A 
ATOM     25  C   UNL     1       2.331  12.860  18.282  0.00  0.00    +0.000 A 
ATOM     26  C   UNL     1       1.402  13.894  18.406  0.00  0.00    +0.000 A 
ATOM     27  C   UNL     1       0.099  13.612  18.809  0.00  0.00    +0.000 A 
ATOM     28  C   UNL     1      -0.278  12.297  19.085  0.00  0.00    +0.000 A 
ENDBRANCH  22  23
ENDBRANCH  21  22
ENDBRANCH  20  21
ENDBRANCH  10  20
TORSDOF 5
ENDMDL
MODEL 7
REMARK VINA RESULT:      -8.6      0.635      1.185
REMARK  Name = 
REMARK  7 active torsions:
REMARK  status: ('A' for Active; 'I' for Inactive)
REMARK    1  A    between atoms: C_1  and  C_2
REMARK    2  A    between atoms: C_4  and  C_5
REMARK    3  A    between atoms: N_14  and  C_15
REMARK    4  A    between atoms: C_15  and  C_16
REMARK    5  A    between atoms: C_16  and  C_17
REMARK    6  A    between atoms: C_17  and  C_18
REMARK    7  A    between atoms: C_26  and  C_27
REMARK                            x       y       z     vdW  Elec       q    Type
REMARK                         _______ _______ _______ _____ _____    ______ ____
ROOT
ATOM      1  C   UNL     1       5.076   4.338  18.967  0.00  0.00    +0.000 C 
ATOM      2  O   UNL     1       5.628   3.447  19.616  0.00  0.00    +0.000 OA
ATOM      3  N   UNL     1       3.758   4.737  19.195  0.00  0.00    +0.000 N 
ATOM      4  C   UNL     1       3.091   4.229  20.390  0.00  0.00    +0.000 C 
ATOM      5  C   UNL     1       1.571   4.427  20.353  0.00  0.00    +0.000 C 
ATOM      6  C   UNL     1       0.986   3.939  19.025  0.00  0.00    +0.000 C 
ATOM      7  C   UNL     1       1.775   4.424  17.815  0.00  0.00    +0.000 C 
ATOM      8  C   UNL     1       2.896   5.398  18.193  0.00  0.00    +0.000 C 
ATOM      9  C   UNL     1       2.342   6.776  18.657  0.00  0.00    +0.000 C 
ATOM     10  N   UNL     1       2.010   6.939  20.081  0.00  0.00    +0.000 NA
ATOM     11  C   UNL     1       1.174   5.883  20.653  0.00  0.00    +0.000 C 
ENDROOT
BRANCH   1  15
ATOM     12  C   UNL     1       6.979   4.510  14.372  0.00  0.00    +0.000 C 
ATOM     13  C   UNL     1       6.762   5.065  15.748  0.00  0.00    +0.000 A 
ATOM     14  C   UNL     1       5.987   4.398  16.669  0.00  0.00    +0.000 A 
ATOM     15  C   UNL     1       5.865   5.009  17.897  0.00  0.00    +0.000 A 
ATOM     16  N   UNL     1       6.467   6.174  18.229  0.00  0.00    +0.000 NA
ATOM     17  C   UNL     1       7.223   6.728  17.278  0.00  0.00    +0.000 A 
ATOM     18  C   UNL     1       7.960   7.982  17.630  0.00  0.00    +0.000 C 
ATOM     19  N   UNL     1       7.383   6.230  16.038  0.00  0.00    +0.000 NA
ENDBRANCH   1  15
BRANCH  10  20
ATOM     20  C   UNL     1       1.497   8.298  20.345  0.00  0.00    +0.000 C 
BRANCH  20  21
ATOM     21  C   UNL     1       1.292   9.122  19.070  0.00  0.00    +0.000 C 
BRANCH  21  22
ATOM     22  C   UNL     1       1.291  10.628  19.336  0.00  0.00    +0.000 C 
BRANCH  22  23
ATOM     23  C   UNL     1      -0.134  11.122  19.428  0.00  0.00    +0.000 A 
ATOM     24  C   UNL     1      -0.955  11.120  18.294  0.00  0.00    +0.000 A 
ATOM     25  C   UNL     1      -2.244  11.647  18.357  0.00  0.00    +0.000 A 
ATOM     26  C   UNL     1      -2.722  12.187  19.551  0.00  0.00    +0.000 A 
ATOM     27  C   UNL     1      -1.909  12.201  20.682  0.00  0.00    +0.000 A 
ATOM     28  C   UNL     1      -0.619  11.673  20.622  0.00  0.00    +0.000 A 
ENDBRANCH  22  23
ENDBRANCH  21  22
ENDBRANCH  20  21
ENDBRANCH  10  20
TORSDOF 5
ENDMDL
MODEL 8
REMARK VINA RESULT:      -8.6      1.409      2.249
REMARK  Name = 
REMARK  7 active torsions:
REMARK  status: ('A' for Active; 'I' for Inactive)
REMARK    1  A    between atoms: C_1  and  C_2
REMARK    2  A    between atoms: C_4  and  C_5
REMARK    3  A    between atoms: N_14  and  C_15
REMARK    4  A    between atoms: C_15  and  C_16
REMARK    5  A    between atoms: C_16  and  C_17
REMARK    6  A    between atoms: C_17  and  C_18
REMARK    7  A    between atoms: C_26  and  C_27
REMARK                            x       y       z     vdW  Elec       q    Type
REMARK                         _______ _______ _______ _____ _____    ______ ____
ROOT
ATOM      1  C   UNL     1       5.024   4.037  18.811  0.00  0.00    +0.000 C 
ATOM      2  O   UNL     1       5.574   3.089  19.374  0.00  0.00    +0.000 OA
ATOM      3  N   UNL     1       3.714   4.429  19.091  0.00  0.00    +0.000 N 
ATOM      4  C   UNL     1       3.058   3.829  20.248  0.00  0.00    +0.000 C 
ATOM      5  C   UNL     1       1.540   4.045  20.250  0.00  0.00    +0.000 C 
ATOM      6  C   UNL     1       0.931   3.676  18.895  0.00  0.00    +0.000 C 
ATOM      7  C   UNL     1       1.709   4.252  17.718  0.00  0.00    +0.000 C 
ATOM      8  C   UNL     1       2.846   5.180  18.160  0.00  0.00    +0.000 C 
ATOM      9  C   UNL     1       2.314   6.520  18.745  0.00  0.00    +0.000 C 
ATOM     10  N   UNL     1       2.004   6.566  20.182  0.00  0.00    +0.000 NA
ATOM     11  C   UNL     1       1.163   5.475  20.676  0.00  0.00    +0.000 C 
ENDROOT
BRANCH   1  15
ATOM     12  C   UNL     1       6.937   4.531  14.243  0.00  0.00    +0.000 C 
ATOM     13  C   UNL     1       6.707   4.994  15.652  0.00  0.00    +0.000 A 
ATOM     14  C   UNL     1       5.941   4.257  16.525  0.00  0.00    +0.000 A 
ATOM     15  C   UNL     1       5.805   4.787  17.788  0.00  0.00    +0.000 A 
ATOM     16  N   UNL     1       6.389   5.937  18.197  0.00  0.00    +0.000 NA
ATOM     17  C   UNL     1       7.139   6.562  17.286  0.00  0.00    +0.000 A 
ATOM     18  C   UNL     1       7.857   7.802  17.721  0.00  0.00    +0.000 C 
ATOM     19  N   UNL     1       7.310   6.147  16.018  0.00  0.00    +0.000 NA
ENDBRANCH   1  15
BRANCH  10  20
ATOM     20  C   UNL     1       1.510   7.904  20.566  0.00  0.00    +0.000 C 
BRANCH  20  21
ATOM     21  C   UNL     1       1.668   8.946  19.455  0.00  0.00    +0.000 C 
BRANCH  21  22
ATOM     22  C   UNL     1       0.578  10.017  19.492  0.00  0.00    +0.000 C 
BRANCH  22  23
ATOM     23  C   UNL     1       1.215  11.386  19.456  0.00  0.00    +0.000 A 
ATOM     24  C   UNL     1       1.875  11.827  18.303  0.00  0.00    +0.000 A 
ATOM     25  C   UNL     1       2.530  13.058  18.293  0.00  0.00    +0.000 A 
ATOM     26  C   UNL     1       2.539  13.855  19.438  0.00  0.00    +0.000 A 
ATOM     27  C   UNL     1       1.893  13.421  20.593  0.00  0.00    +0.000 A 
ATOM     28  C   UNL     1       1.234  12.190  20.604  0.00  0.00    +0.000 A 
ENDBRANCH  22  23
ENDBRANCH  21  22
ENDBRANCH  20  21
ENDBRANCH  10  20
TORSDOF 5
ENDMDL
MODEL 9
REMARK VINA RESULT:      -8.5      1.248      1.919
REMARK  Name = 
REMARK  7 active torsions:
REMARK  status: ('A' for Active; 'I' for Inactive)
REMARK    1  A    between atoms: C_1  and  C_2
REMARK    2  A    between atoms: C_4  and  C_5
REMARK    3  A    between atoms: N_14  and  C_15
REMARK    4  A    between atoms: C_15  and  C_16
REMARK    5  A    between atoms: C_16  and  C_17
REMARK    6  A    between atoms: C_17  and  C_18
REMARK    7  A    between atoms: C_26  and  C_27
REMARK                            x       y       z     vdW  Elec       q    Type
REMARK                         _______ _______ _______ _____ _____    ______ ____
ROOT
ATOM      1  C   UNL     1       5.017   4.123  18.820  0.00  0.00    +0.000 C 
ATOM      2  O   UNL     1       5.563   3.176  19.390  0.00  0.00    +0.000 OA
ATOM      3  N   UNL     1       3.711   4.527  19.100  0.00  0.00    +0.000 N 
ATOM      4  C   UNL     1       3.054   3.943  20.266  0.00  0.00    +0.000 C 
ATOM      5  C   UNL     1       1.538   4.170  20.271  0.00  0.00    +0.000 C 
ATOM      6  C   UNL     1       0.922   3.793  18.921  0.00  0.00    +0.000 C 
ATOM      7  C   UNL     1       1.700   4.352  17.736  0.00  0.00    +0.000 C 
ATOM      8  C   UNL     1       2.846   5.275  18.165  0.00  0.00    +0.000 C 
ATOM      9  C   UNL     1       2.325   6.625  18.739  0.00  0.00    +0.000 C 
ATOM     10  N   UNL     1       2.021   6.687  20.177  0.00  0.00    +0.000 NA
ATOM     11  C   UNL     1       1.174   5.607  20.685  0.00  0.00    +0.000 C 
ENDROOT
BRANCH   1  15
ATOM     12  C   UNL     1       6.929   4.554  14.245  0.00  0.00    +0.000 C 
ATOM     13  C   UNL     1       6.702   5.035  15.648  0.00  0.00    +0.000 A 
ATOM     14  C   UNL     1       5.933   4.312  16.530  0.00  0.00    +0.000 A 
ATOM     15  C   UNL     1       5.801   4.857  17.787  0.00  0.00    +0.000 A 
ATOM     16  N   UNL     1       6.389   6.010  18.181  0.00  0.00    +0.000 NA
ATOM     17  C   UNL     1       7.140   6.621  17.263  0.00  0.00    +0.000 A 
ATOM     18  C   UNL     1       7.863   7.864  17.682  0.00  0.00    +0.000 C 
ATOM     19  N   UNL     1       7.309   6.190  15.999  0.00  0.00    +0.000 NA
ENDBRANCH   1  15
BRANCH  10  20
ATOM     20  C   UNL     1       1.537   8.032  20.550  0.00  0.00    +0.000 C 
BRANCH  20  21
ATOM     21  C   UNL     1       1.521   9.013  19.374  0.00  0.00    +0.000 C 
BRANCH  21  22
ATOM     22  C   UNL     1       0.215   9.803  19.285  0.00  0.00    +0.000 C 
BRANCH  22  23
ATOM     23  C   UNL     1       0.328  11.058  20.118  0.00  0.00    +0.000 A 
ATOM     24  C   UNL     1      -0.516  11.255  21.216  0.00  0.00    +0.000 A 
ATOM     25  C   UNL     1      -0.466  12.446  21.940  0.00  0.00    +0.000 A 
ATOM     26  C   UNL     1       0.423  13.454  21.567  0.00  0.00    +0.000 A 
ATOM     27  C   UNL     1       1.261  13.271  20.469  0.00  0.00    +0.000 A 
ATOM     28  C   UNL     1       1.214  12.080  19.746  0.00  0.00    +0.000 A 
ENDBRANCH  22  23
ENDBRANCH  21  22
ENDBRANCH  20  21
ENDBRANCH  10  20
TORSDOF 5
ENDMDL
