MODEL 1
REMARK VINA RESULT:      -8.1      0.000      0.000
REMARK  Name = 
REMARK  4 active torsions:
REMARK  status: ('A' for Active; 'I' for Inactive)
REMARK    1  A    between atoms: N_1  and  C_2
REMARK    2  A    between atoms: C_2  and  C_3
REMARK    3  A    between atoms: C_3  and  N_4
REMARK    4  A    between atoms: N_4  and  C_5
REMARK                            x       y       z     vdW  Elec       q    Type
REMARK                         _______ _______ _______ _____ _____    ______ ____
ROOT
ATOM      1  C   UNL     1       6.637   4.972  18.398  0.00  0.00    +0.000 A 
ATOM      2  N   UNL     1       5.648   4.714  19.322  0.00  0.00    +0.000 NA
ATOM      3  C   UNL     1       4.455   4.187  18.877  0.00  0.00    +0.000 A 
ATOM      4  C   UNL     1       4.184   3.896  17.562  0.00  0.00    +0.000 A 
ATOM      5  C   UNL     1       5.118   4.169  16.633  0.00  0.00    +0.000 A 
ATOM      6  C   UNL     1       4.762   3.828  15.382  0.00  0.00    +0.000 A 
ATOM      7  C   UNL     1       5.769   4.104  14.481  0.00  0.00    +0.000 A 
ATOM      8  C   UNL     1       6.679   4.360  13.609  0.00  0.00    +0.000 A 
ATOM      9  C   UNL     1       7.021   4.759  15.461  0.00  0.00    +0.000 A 
ATOM     10  C   UNL     1       6.363   4.698  16.914  0.00  0.00    +0.000 A 
ATOM     11  C   UNL     1       2.814   3.320  17.405  0.00  0.00    +0.000 C 
ATOM     12  O   UNL     1       2.269   2.958  16.380  0.00  0.00    +0.000 OA
ATOM     13  C   UNL     1       2.281   3.298  18.796  0.00  0.00    +0.000 A 
ATOM     14  C   UNL     1       1.058   2.870  19.277  0.00  0.00    +0.000 A 
ATOM     15  C   UNL     1       0.790   2.950  20.638  0.00  0.00    +0.000 A 
ATOM     16  C   UNL     1       1.741   3.454  21.503  0.00  0.00    +0.000 A 
ATOM     17  C   UNL     1       2.972   3.883  21.009  0.00  0.00    +0.000 A 
ATOM     18  C   UNL     1       3.263   3.813  19.655  0.00  0.00    +0.000 A 
ENDROOT
BRANCH   1  19
ATOM     19  N   UNL     1       7.906   5.400  18.838  0.00  0.00    +0.000 N 
ATOM     20  H   UNL     1       8.584   4.707  19.136  0.00  0.00    +0.000 HD
BRANCH  19  21
ATOM     21  C   UNL     1       8.292   6.803  18.975  0.00  0.00    +0.000 C 
BRANCH  21  22
ATOM     22  C   UNL     1       7.797   7.665  17.815  0.00  0.00    +0.000 C 
BRANCH  22  23
ATOM     23  N   UNL     1       8.198   9.059  17.984  0.00  0.00    +0.000 NA
ATOM     24  H   UNL     1       8.946   9.121  18.672  0.00  0.00    +0.000 HD
ATOM     25  H   UNL     1       7.403   9.601  18.327  0.00  0.00    +0.000 HD
ENDBRANCH  22  23
ENDBRANCH  21  22
ENDBRANCH  19  21
ENDBRANCH   1  19
TORSDOF 4
ENDMDL
MODEL 2
REMARK VINA RESULT:      -7.9      1.169      1.537
REMARK  Name = 
REMARK  4 active torsions:
REMARK  status: ('A' for Active; 'I' for Inactive)
REMARK    1  A    between atoms: N_1  and  C_2
REMARK    2  A    between atoms: C_2  and  C_3
REMARK    3  A    between atoms: C_3  and  N_4
REMARK    4  A    between atoms: N_4  and  C_5
REMARK                            x       y       z     vdW  Elec       q    Type
REMARK                         _______ _______ _______ _____ _____    ______ ____
ROOT
ATOM      1  C   UNL     1       6.036   6.364  17.360  0.00  0.00    +0.000 A 
ATOM      2  N   UNL     1       5.062   6.210  18.323  0.00  0.00    +0.000 NA
ATOM      3  C   UNL     1       4.102   5.238  18.136  0.00  0.00    +0.000 A 
ATOM      4  C   UNL     1       4.052   4.403  17.046  0.00  0.00    +0.000 A 
ATOM      5  C   UNL     1       4.970   4.553  16.074  0.00  0.00    +0.000 A 
ATOM      6  C   UNL     1       4.845   3.674  15.064  0.00  0.00    +0.000 A 
ATOM      7  C   UNL     1       5.829   3.858  14.115  0.00  0.00    +0.000 A 
ATOM      8  C   UNL     1       6.723   4.007  13.202  0.00  0.00    +0.000 A 
ATOM      9  C   UNL     1       6.757   5.162  14.742  0.00  0.00    +0.000 A 
ATOM     10  C   UNL     1       5.995   5.478  16.108  0.00  0.00    +0.000 A 
ATOM     11  C   UNL     1       2.906   3.449  17.147  0.00  0.00    +0.000 C 
ATOM     12  O   UNL     1       2.583   2.584  16.354  0.00  0.00    +0.000 OA
ATOM     13  C   UNL     1       2.260   3.811  18.439  0.00  0.00    +0.000 A 
ATOM     14  C   UNL     1       1.152   3.272  19.065  0.00  0.00    +0.000 A 
ATOM     15  C   UNL     1       0.736   3.787  20.287  0.00  0.00    +0.000 A 
ATOM     16  C   UNL     1       1.427   4.830  20.870  0.00  0.00    +0.000 A 
ATOM     17  C   UNL     1       2.544   5.367  20.233  0.00  0.00    +0.000 A 
ATOM     18  C   UNL     1       2.980   4.870  19.013  0.00  0.00    +0.000 A 
ENDROOT
BRANCH   1  19
ATOM     19  N   UNL     1       7.095   7.267  17.579  0.00  0.00    +0.000 N 
ATOM     20  H   UNL     1       7.179   8.083  16.983  0.00  0.00    +0.000 HD
BRANCH  19  21
ATOM     21  C   UNL     1       8.147   7.064  18.573  0.00  0.00    +0.000 C 
BRANCH  21  22
ATOM     22  C   UNL     1       8.221   5.621  19.067  0.00  0.00    +0.000 C 
BRANCH  22  23
ATOM     23  N   UNL     1       8.055   5.548  20.516  0.00  0.00    +0.000 NA
ATOM     24  H   UNL     1       8.424   4.663  20.861  0.00  0.00    +0.000 HD
ATOM     25  H   UNL     1       7.061   5.590  20.746  0.00  0.00    +0.000 HD
ENDBRANCH  22  23
ENDBRANCH  21  22
ENDBRANCH  19  21
ENDBRANCH   1  19
TORSDOF 4
ENDMDL
MODEL 3
REMARK VINA RESULT:      -7.8      3.753      4.928
REMARK  Name = 
REMARK  4 active torsions:
REMARK  status: ('A' for Active; 'I' for Inactive)
REMARK    1  A    between atoms: N_1  and  C_2
REMARK    2  A    between atoms: C_2  and  C_3
REMARK    3  A    between atoms: C_3  and  N_4
REMARK    4  A    between atoms: N_4  and  C_5
REMARK                            x       y       z     vdW  Elec       q    Type
REMARK                         _______ _______ _______ _____ _____    ______ ____
ROOT
ATOM      1  C   UNL     1       3.933   4.523  19.442  0.00  0.00    +0.000 A 
ATOM      2  N   UNL     1       3.051   5.318  20.141  0.00  0.00    +0.000 NA
ATOM      3  C   UNL     1       2.676   6.525  19.590  0.00  0.00    +0.000 A 
ATOM      4  C   UNL     1       3.124   6.991  18.378  0.00  0.00    +0.000 A 
ATOM      5  C   UNL     1       4.012   6.251  17.688  0.00  0.00    +0.000 A 
ATOM      6  C   UNL     1       4.369   6.787  16.508  0.00  0.00    +0.000 A 
ATOM      7  C   UNL     1       5.256   5.972  15.836  0.00  0.00    +0.000 A 
ATOM      8  C   UNL     1       6.094   5.245  15.185  0.00  0.00    +0.000 A 
ATOM      9  C   UNL     1       5.448   4.627  16.890  0.00  0.00    +0.000 A 
ATOM     10  C   UNL     1       4.488   5.023  18.102  0.00  0.00    +0.000 A 
ATOM     11  C   UNL     1       2.520   8.318  18.051  0.00  0.00    +0.000 C 
ATOM     12  O   UNL     1       2.705   8.999  17.060  0.00  0.00    +0.000 OA
ATOM     13  C   UNL     1       1.645   8.604  19.222  0.00  0.00    +0.000 A 
ATOM     14  C   UNL     1       0.833   9.690  19.486  0.00  0.00    +0.000 A 
ATOM     15  C   UNL     1       0.101   9.729  20.666  0.00  0.00    +0.000 A 
ATOM     16  C   UNL     1       0.186   8.688  21.569  0.00  0.00    +0.000 A 
ATOM     17  C   UNL     1       1.007   7.596  21.295  0.00  0.00    +0.000 A 
ATOM     18  C   UNL     1       1.747   7.534  20.124  0.00  0.00    +0.000 A 
ENDROOT
BRANCH   1  19
ATOM     19  N   UNL     1       4.243   3.236  19.925  0.00  0.00    +0.000 N 
ATOM     20  H   UNL     1       4.842   3.145  20.738  0.00  0.00    +0.000 HD
BRANCH  19  21
ATOM     21  C   UNL     1       3.819   1.997  19.276  0.00  0.00    +0.000 C 
BRANCH  21  22
ATOM     22  C   UNL     1       2.328   1.989  18.939  0.00  0.00    +0.000 C 
BRANCH  22  23
ATOM     23  N   UNL     1       2.112   1.967  17.495  0.00  0.00    +0.000 NA
ATOM     24  H   UNL     1       1.925   2.911  17.161  0.00  0.00    +0.000 HD
ATOM     25  H   UNL     1       1.299   1.387  17.283  0.00  0.00    +0.000 HD
ENDBRANCH  22  23
ENDBRANCH  21  22
ENDBRANCH  19  21
ENDBRANCH   1  19
TORSDOF 4
ENDMDL
MODEL 4
REMARK VINA RESULT:      -7.7      1.105      1.160
REMARK  Name = 
REMARK  4 active torsions:
REMARK  status: ('A' for Active; 'I' for Inactive)
REMARK    1  A    between atoms: N_1  and  C_2
REMARK    2  A    between atoms: C_2  and  C_3
REMARK    3  A    between atoms: C_3  and  N_4
REMARK    4  A    between atoms: N_4  and  C_5
REMARK                            x       y       z     vdW  Elec       q    Type
REMARK                         _______ _______ _______ _____ _____    ______ ____
ROOT
ATOM      1  C   UNL     1       6.469   6.118  17.590  0.00  0.00    +0.000 A 
ATOM      2  N   UNL     1       5.487   5.993  18.549  0.00  0.00    +0.000 NA
ATOM      3  C   UNL     1       4.414   5.169  18.286  0.00  0.00    +0.000 A 
ATOM      4  C   UNL     1       4.257   4.454  17.123  0.00  0.00    +0.000 A 
ATOM      5  C   UNL     1       5.183   4.583  16.155  0.00  0.00    +0.000 A 
ATOM      6  C   UNL     1       4.947   3.826  15.069  0.00  0.00    +0.000 A 
ATOM      7  C   UNL     1       5.942   3.978  14.126  0.00  0.00    +0.000 A 
ATOM      8  C   UNL     1       6.844   4.104  13.218  0.00  0.00    +0.000 A 
ATOM      9  C   UNL     1       7.027   5.094  14.859  0.00  0.00    +0.000 A 
ATOM     10  C   UNL     1       6.315   5.368  16.260  0.00  0.00    +0.000 A 
ATOM     11  C   UNL     1       3.003   3.642  17.151  0.00  0.00    +0.000 C 
ATOM     12  O   UNL     1       2.573   2.903  16.286  0.00  0.00    +0.000 OA
ATOM     13  C   UNL     1       2.412   3.954  18.482  0.00  0.00    +0.000 A 
ATOM     14  C   UNL     1       1.248   3.498  19.071  0.00  0.00    +0.000 A 
ATOM     15  C   UNL     1       0.904   3.940  20.342  0.00  0.00    +0.000 A 
ATOM     16  C   UNL     1       1.720   4.830  21.011  0.00  0.00    +0.000 A 
ATOM     17  C   UNL     1       2.892   5.285  20.410  0.00  0.00    +0.000 A 
ATOM     18  C   UNL     1       3.258   4.858  19.142  0.00  0.00    +0.000 A 
ENDROOT
BRANCH   1  19
ATOM     19  N   UNL     1       7.632   6.860  17.877  0.00  0.00    +0.000 N 
ATOM     20  H   UNL     1       8.396   6.409  18.368  0.00  0.00    +0.000 HD
BRANCH  19  21
ATOM     21  C   UNL     1       7.785   8.284  17.584  0.00  0.00    +0.000 C 
BRANCH  21  22
ATOM     22  C   UNL     1       8.601   9.019  18.646  0.00  0.00    +0.000 C 
BRANCH  22  23
ATOM     23  N   UNL     1       8.940  10.371  18.211  0.00  0.00    +0.000 NA
ATOM     24  H   UNL     1       9.116  10.960  19.023  0.00  0.00    +0.000 HD
ATOM     25  H   UNL     1       8.154  10.768  17.693  0.00  0.00    +0.000 HD
ENDBRANCH  22  23
ENDBRANCH  21  22
ENDBRANCH  19  21
ENDBRANCH   1  19
TORSDOF 4
ENDMDL
MODEL 5
REMARK VINA RESULT:      -7.6      4.308      5.490
REMARK  Name = 
REMARK  4 active torsions:
REMARK  status: ('A' for Active; 'I' for Inactive)
REMARK    1  A    between atoms: N_1  and  C_2
REMARK    2  A    between atoms: C_2  and  C_3
REMARK    3  A    between atoms: C_3  and  N_4
REMARK    4  A    between atoms: N_4  and  C_5
REMARK                            x       y       z     vdW  Elec       q    Type
REMARK                         _______ _______ _______ _____ _____    ______ ____
ROOT
ATOM      1  C   UNL     1       2.944   5.017  19.923  0.00  0.00    +0.000 A 
ATOM      2  N   UNL     1       2.114   5.905  20.575  0.00  0.00    +0.000 NA
ATOM      3  C   UNL     1       1.913   7.148  20.014  0.00  0.00    +0.000 A 
ATOM      4  C   UNL     1       2.486   7.565  18.838  0.00  0.00    +0.000 A 
ATOM      5  C   UNL     1       3.327   6.733  18.197  0.00  0.00    +0.000 A 
ATOM      6  C   UNL     1       3.817   7.229  17.047  0.00  0.00    +0.000 A 
ATOM      7  C   UNL     1       4.647   6.321  16.423  0.00  0.00    +0.000 A 
ATOM      8  C   UNL     1       5.438   5.507  15.818  0.00  0.00    +0.000 A 
ATOM      9  C   UNL     1       4.619   4.959  17.472  0.00  0.00    +0.000 A 
ATOM     10  C   UNL     1       3.635   5.456  18.626  0.00  0.00    +0.000 A 
ATOM     11  C   UNL     1       2.058   8.953  18.488  0.00  0.00    +0.000 C 
ATOM     12  O   UNL     1       2.381   9.613  17.518  0.00  0.00    +0.000 OA
ATOM     13  C   UNL     1       1.149   9.332  19.606  0.00  0.00    +0.000 A 
ATOM     14  C   UNL     1       0.449  10.503  19.830  0.00  0.00    +0.000 A 
ATOM     15  C   UNL     1      -0.347  10.620  20.962  0.00  0.00    +0.000 A 
ATOM     16  C   UNL     1      -0.437   9.572  21.857  0.00  0.00    +0.000 A 
ATOM     17  C   UNL     1       0.271   8.395  21.623  0.00  0.00    +0.000 A 
ATOM     18  C   UNL     1       1.072   8.254  20.500  0.00  0.00    +0.000 A 
ENDROOT
BRANCH   1  19
ATOM     19  N   UNL     1       3.075   3.702  20.410  0.00  0.00    +0.000 N 
ATOM     20  H   UNL     1       3.575   3.545  21.279  0.00  0.00    +0.000 HD
BRANCH  19  21
ATOM     21  C   UNL     1       2.603   2.517  19.697  0.00  0.00    +0.000 C 
BRANCH  21  22
ATOM     22  C   UNL     1       3.736   1.747  19.021  0.00  0.00    +0.000 C 
BRANCH  22  23
ATOM     23  N   UNL     1       4.966   1.818  19.805  0.00  0.00    +0.000 NA
ATOM     24  H   UNL     1       4.759   1.642  20.786  0.00  0.00    +0.000 HD
ATOM     25  H   UNL     1       5.364   2.755  19.726  0.00  0.00    +0.000 HD
ENDBRANCH  22  23
ENDBRANCH  21  22
ENDBRANCH  19  21
ENDBRANCH   1  19
TORSDOF 4
ENDMDL
MODEL 6
REMARK VINA RESULT:      -7.4      3.349      4.455
REMARK  Name = 
REMARK  4 active torsions:
REMARK  status: ('A' for Active; 'I' for Inactive)
REMARK    1  A    between atoms: N_1  and  C_2
REMARK    2  A    between atoms: C_2  and  C_3
REMARK    3  A    between atoms: C_3  and  N_4
REMARK    4  A    between atoms: N_4  and  C_5
REMARK                            x       y       z     vdW  Elec       q    Type
REMARK                         _______ _______ _______ _____ _____    ______ ____
ROOT
ATOM      1  C   UNL     1       4.626   3.961  18.914  0.00  0.00    +0.000 A 
ATOM      2  N   UNL     1       3.752   4.714  19.668  0.00  0.00    +0.000 NA
ATOM      3  C   UNL     1       3.325   5.924  19.165  0.00  0.00    +0.000 A 
ATOM      4  C   UNL     1       3.714   6.434  17.949  0.00  0.00    +0.000 A 
ATOM      5  C   UNL     1       4.593   5.737  17.207  0.00  0.00    +0.000 A 
ATOM      6  C   UNL     1       4.890   6.313  16.028  0.00  0.00    +0.000 A 
ATOM      7  C   UNL     1       5.771   5.539  15.301  0.00  0.00    +0.000 A 
ATOM      8  C   UNL     1       6.602   4.853  14.599  0.00  0.00    +0.000 A 
ATOM      9  C   UNL     1       6.039   4.173  16.310  0.00  0.00    +0.000 A 
ATOM     10  C   UNL     1       5.116   4.511  17.568  0.00  0.00    +0.000 A 
ATOM     11  C   UNL     1       3.064   7.753  17.683  0.00  0.00    +0.000 C 
ATOM     12  O   UNL     1       3.193   8.465  16.704  0.00  0.00    +0.000 OA
ATOM     13  C   UNL     1       2.228   7.985  18.893  0.00  0.00    +0.000 A 
ATOM     14  C   UNL     1       1.399   9.042  19.217  0.00  0.00    +0.000 A 
ATOM     15  C   UNL     1       0.713   9.030  20.425  0.00  0.00    +0.000 A 
ATOM     16  C   UNL     1       0.859   7.968  21.295  0.00  0.00    +0.000 A 
ATOM     17  C   UNL     1       1.697   6.906  20.960  0.00  0.00    +0.000 A 
ATOM     18  C   UNL     1       2.392   6.894  19.760  0.00  0.00    +0.000 A 
ENDROOT
BRANCH   1  19
ATOM     19  N   UNL     1       4.987   2.670  19.349  0.00  0.00    +0.000 N 
ATOM     20  H   UNL     1       5.568   2.093  18.751  0.00  0.00    +0.000 HD
BRANCH  19  21
ATOM     21  C   UNL     1       4.506   2.063  20.588  0.00  0.00    +0.000 C 
BRANCH  21  22
ATOM     22  C   UNL     1       5.221   0.754  20.919  0.00  0.00    +0.000 C 
BRANCH  22  23
ATOM     23  N   UNL     1       6.036   0.886  22.123  0.00  0.00    +0.000 NA
ATOM     24  H   UNL     1       6.547   0.020  22.290  0.00  0.00    +0.000 HD
ATOM     25  H   UNL     1       5.429   1.057  22.926  0.00  0.00    +0.000 HD
ENDBRANCH  22  23
ENDBRANCH  21  22
ENDBRANCH  19  21
ENDBRANCH   1  19
TORSDOF 4
ENDMDL
MODEL 7
REMARK VINA RESULT:      -7.4      3.452      4.636
REMARK  Name = 
REMARK  4 active torsions:
REMARK  status: ('A' for Active; 'I' for Inactive)
REMARK    1  A    between atoms: N_1  and  C_2
REMARK    2  A    between atoms: C_2  and  C_3
REMARK    3  A    between atoms: C_3  and  N_4
REMARK    4  A    between atoms: N_4  and  C_5
REMARK                            x       y       z     vdW  Elec       q    Type
REMARK                         _______ _______ _______ _____ _____    ______ ____
ROOT
ATOM      1  C   UNL     1       4.317   4.169  19.068  0.00  0.00    +0.000 A 
ATOM      2  N   UNL     1       3.455   4.946  19.811  0.00  0.00    +0.000 NA
ATOM      3  C   UNL     1       3.068   6.168  19.303  0.00  0.00    +0.000 A 
ATOM      4  C   UNL     1       3.486   6.666  18.092  0.00  0.00    +0.000 A 
ATOM      5  C   UNL     1       4.354   5.945  17.360  0.00  0.00    +0.000 A 
ATOM      6  C   UNL     1       4.681   6.512  16.186  0.00  0.00    +0.000 A 
ATOM      7  C   UNL     1       5.549   5.714  15.469  0.00  0.00    +0.000 A 
ATOM      8  C   UNL     1       6.369   5.004  14.777  0.00  0.00    +0.000 A 
ATOM      9  C   UNL     1       5.766   4.340  16.481  0.00  0.00    +0.000 A 
ATOM     10  C   UNL     1       4.838   4.704  17.727  0.00  0.00    +0.000 A 
ATOM     11  C   UNL     1       2.876   8.002  17.818  0.00  0.00    +0.000 C 
ATOM     12  O   UNL     1       3.037   8.710  16.841  0.00  0.00    +0.000 OA
ATOM     13  C   UNL     1       2.033   8.258  19.019  0.00  0.00    +0.000 A 
ATOM     14  C   UNL     1       1.230   9.338  19.332  0.00  0.00    +0.000 A 
ATOM     15  C   UNL     1       0.529   9.345  20.532  0.00  0.00    +0.000 A 
ATOM     16  C   UNL     1       0.635   8.280  21.404  0.00  0.00    +0.000 A 
ATOM     17  C   UNL     1       1.447   7.195  21.079  0.00  0.00    +0.000 A 
ATOM     18  C   UNL     1       2.156   7.163  19.887  0.00  0.00    +0.000 A 
ENDROOT
BRANCH   1  19
ATOM     19  N   UNL     1       4.636   2.869  19.507  0.00  0.00    +0.000 N 
ATOM     20  H   UNL     1       5.085   2.226  18.862  0.00  0.00    +0.000 HD
BRANCH  19  21
ATOM     21  C   UNL     1       4.286   2.344  20.825  0.00  0.00    +0.000 C 
BRANCH  21  22
ATOM     22  C   UNL     1       2.777   2.223  21.029  0.00  0.00    +0.000 C 
BRANCH  22  23
ATOM     23  N   UNL     1       2.321   3.073  22.125  0.00  0.00    +0.000 NA
ATOM     24  H   UNL     1       3.009   3.063  22.877  0.00  0.00    +0.000 HD
ATOM     25  H   UNL     1       1.442   2.707  22.494  0.00  0.00    +0.000 HD
ENDBRANCH  22  23
ENDBRANCH  21  22
ENDBRANCH  19  21
ENDBRANCH   1  19
TORSDOF 4
ENDMDL
MODEL 8
REMARK VINA RESULT:      -7.3      2.603      4.081
REMARK  Name = 
REMARK  4 active torsions:
REMARK  status: ('A' for Active; 'I' for Inactive)
REMARK    1  A    between atoms: N_1  and  C_2
REMARK    2  A    between atoms: C_2  and  C_3
REMARK    3  A    between atoms: C_3  and  N_4
REMARK    4  A    between atoms: N_4  and  C_5
REMARK                            x       y       z     vdW  Elec       q    Type
REMARK                         _______ _______ _______ _____ _____    ______ ____
ROOT
ATOM      1  C   UNL     1       5.705   3.913  15.934  0.00  0.00    +0.000 A 
ATOM      2  N   UNL     1       4.585   3.285  16.435  0.00  0.00    +0.000 NA
ATOM      3  C   UNL     1       3.914   3.877  17.484  0.00  0.00    +0.000 A 
ATOM      4  C   UNL     1       4.288   5.064  18.066  0.00  0.00    +0.000 A 
ATOM      5  C   UNL     1       5.397   5.683  17.620  0.00  0.00    +0.000 A 
ATOM      6  C   UNL     1       5.662   6.845  18.242  0.00  0.00    +0.000 A 
ATOM      7  C   UNL     1       6.790   7.445  17.722  0.00  0.00    +0.000 A 
ATOM      8  C   UNL     1       7.845   8.028  17.274  0.00  0.00    +0.000 A 
ATOM      9  C   UNL     1       7.293   6.361  16.486  0.00  0.00    +0.000 A 
ATOM     10  C   UNL     1       6.180   5.221  16.580  0.00  0.00    +0.000 A 
ATOM     11  C   UNL     1       3.349   5.450  19.162  0.00  0.00    +0.000 C 
ATOM     12  O   UNL     1       3.395   6.436  19.873  0.00  0.00    +0.000 OA
ATOM     13  C   UNL     1       2.352   4.343  19.177  0.00  0.00    +0.000 A 
ATOM     14  C   UNL     1       1.244   4.150  19.979  0.00  0.00    +0.000 A 
ATOM     15  C   UNL     1       0.454   3.021  19.798  0.00  0.00    +0.000 A 
ATOM     16  C   UNL     1       0.777   2.099  18.822  0.00  0.00    +0.000 A 
ATOM     17  C   UNL     1       1.896   2.302  18.016  0.00  0.00    +0.000 A 
ATOM     18  C   UNL     1       2.699   3.421  18.177  0.00  0.00    +0.000 A 
ENDROOT
BRANCH   1  19
ATOM     19  N   UNL     1       6.341   3.392  14.790  0.00  0.00    +0.000 N 
ATOM     20  H   UNL     1       6.838   2.511  14.860  0.00  0.00    +0.000 HD
BRANCH  19  21
ATOM     21  C   UNL     1       6.404   4.085  13.505  0.00  0.00    +0.000 C 
BRANCH  21  22
ATOM     22  C   UNL     1       5.646   3.349  12.401  0.00  0.00    +0.000 C 
BRANCH  22  23
ATOM     23  N   UNL     1       6.411   2.210  11.902  0.00  0.00    +0.000 NA
ATOM     24  H   UNL     1       6.299   1.417  12.531  0.00  0.00    +0.000 HD
ATOM     25  H   UNL     1       7.402   2.455  11.871  0.00  0.00    +0.000 HD
ENDBRANCH  22  23
ENDBRANCH  21  22
ENDBRANCH  19  21
ENDBRANCH   1  19
TORSDOF 4
ENDMDL
MODEL 9
REMARK VINA RESULT:      -7.2      2.775      5.844
REMARK  Name = 
REMARK  4 active torsions:
REMARK  status: ('A' for Active; 'I' for Inactive)
REMARK    1  A    between atoms: N_1  and  C_2
REMARK    2  A    between atoms: C_2  and  C_3
REMARK    3  A    between atoms: C_3  and  N_4
REMARK    4  A    between atoms: N_4  and  C_5
REMARK                            x       y       z     vdW  Elec       q    Type
REMARK                         _______ _______ _______ _____ _____    ______ ____
ROOT
ATOM      1  C   UNL     1       2.713   6.507  19.573  0.00  0.00    +0.000 A 
ATOM      2  N   UNL     1       3.489   6.620  18.440  0.00  0.00    +0.000 NA
ATOM      3  C   UNL     1       3.928   5.465  17.827  0.00  0.00    +0.000 A 
ATOM      4  C   UNL     1       3.638   4.198  18.272  0.00  0.00    +0.000 A 
ATOM      5  C   UNL     1       2.911   4.058  19.396  0.00  0.00    +0.000 A 
ATOM      6  C   UNL     1       2.667   2.779  19.733  0.00  0.00    +0.000 A 
ATOM      7  C   UNL     1       1.895   2.700  20.873  0.00  0.00    +0.000 A 
ATOM      8  C   UNL     1       1.187   2.586  21.941  0.00  0.00    +0.000 A 
ATOM      9  C   UNL     1       1.618   4.345  21.289  0.00  0.00    +0.000 A 
ATOM     10  C   UNL     1       2.398   5.112  20.127  0.00  0.00    +0.000 A 
ATOM     11  C   UNL     1       4.242   3.160  17.383  0.00  0.00    +0.000 C 
ATOM     12  O   UNL     1       4.175   1.951  17.495  0.00  0.00    +0.000 OA
ATOM     13  C   UNL     1       4.941   3.957  16.336  0.00  0.00    +0.000 A 
ATOM     14  C   UNL     1       5.678   3.544  15.243  0.00  0.00    +0.000 A 
ATOM     15  C   UNL     1       6.240   4.491  14.397  0.00  0.00    +0.000 A 
ATOM     16  C   UNL     1       6.062   5.837  14.648  0.00  0.00    +0.000 A 
ATOM     17  C   UNL     1       5.316   6.245  15.752  0.00  0.00    +0.000 A 
ATOM     18  C   UNL     1       4.745   5.319  16.612  0.00  0.00    +0.000 A 
ENDROOT
BRANCH   1  19
ATOM     19  N   UNL     1       2.155   7.664  20.152  0.00  0.00    +0.000 N 
ATOM     20  H   UNL     1       2.460   7.950  21.076  0.00  0.00    +0.000 HD
BRANCH  19  21
ATOM     21  C   UNL     1       1.088   8.451  19.536  0.00  0.00    +0.000 C 
BRANCH  21  22
ATOM     22  C   UNL     1       1.613   9.693  18.816  0.00  0.00    +0.000 C 
BRANCH  22  23
ATOM     23  N   UNL     1       1.947   9.397  17.426  0.00  0.00    +0.000 NA
ATOM     24  H   UNL     1       1.206   9.736  16.814  0.00  0.00    +0.000 HD
ATOM     25  H   UNL     1       2.023   8.386  17.303  0.00  0.00    +0.000 HD
ENDBRANCH  22  23
ENDBRANCH  21  22
ENDBRANCH  19  21
ENDBRANCH   1  19
TORSDOF 4
ENDMDL
