MODEL 1
REMARK VINA RESULT:      -7.7      0.000      0.000
REMARK  Name = 
REMARK  5 active torsions:
REMARK  status: ('A' for Active; 'I' for Inactive)
REMARK    1  A    between atoms: C_1  and  C_2
REMARK    2  A    between atoms: C_2  and  C_3
REMARK    3  A    between atoms: C_2  and  C_4
REMARK    4  A    between atoms: C_16  and  C_17
REMARK    5  A    between atoms: C_20  and  C_21
REMARK                            x       y       z     vdW  Elec       q    Type
REMARK                         _______ _______ _______ _____ _____    ______ ____
ROOT
ATOM      1  C   UNL     1       6.317   6.002  16.653  0.00  0.00    +0.000 C 
ATOM      2  C   UNL     1       7.433   5.582  15.711  0.00  0.00    +0.000 C 
ATOM      3  O   UNL     1       6.975   4.370  15.125  0.00  0.00    +0.000 OA
ATOM      4  C   UNL     1       6.044   3.823  15.968  0.00  0.00    +0.000 C 
ATOM      5  O   UNL     1       5.617   2.695  15.784  0.00  0.00    +0.000 OA
ATOM      6  N   UNL     1       5.693   4.732  16.976  0.00  0.00    +0.000 N 
ATOM      7  C   UNL     1       4.605   4.585  17.830  0.00  0.00    +0.000 A 
ATOM      8  C   UNL     1       4.239   3.178  18.196  0.00  0.00    +0.000 A 
ATOM      9  C   UNL     1       3.202   3.032  19.027  0.00  0.00    +0.000 A 
ATOM     10  N   UNL     1       2.515   4.137  19.495  0.00  0.00    +0.000 N 
ATOM     11  N   UNL     1       1.442   4.131  20.313  0.00  0.00    +0.000 NA
ATOM     12  C   UNL     1       1.088   5.410  20.394  0.00  0.00    +0.000 A 
ATOM     13  C   UNL     1       1.948   6.280  19.682  0.00  0.00    +0.000 A 
ATOM     14  C   UNL     1       2.892   5.430  19.109  0.00  0.00    +0.000 A 
ATOM     15  N   UNL     1       3.981   5.642  18.289  0.00  0.00    +0.000 NA
ENDROOT
BRANCH  13  16
ATOM     16  C   UNL     1       1.859   7.728  19.492  0.00  0.00    +0.000 A 
ATOM     17  C   UNL     1       2.233   8.276  18.251  0.00  0.00    +0.000 A 
ATOM     18  C   UNL     1       2.128   9.649  17.997  0.00  0.00    +0.000 A 
ATOM     19  C   UNL     1       1.629  10.516  18.971  0.00  0.00    +0.000 A 
ATOM     20  C   UNL     1       1.243   9.984  20.205  0.00  0.00    +0.000 A 
ATOM     21  C   UNL     1       1.364   8.612  20.470  0.00  0.00    +0.000 A 
ATOM     22 CL   UNL     1       0.900   8.120  22.067  0.00  0.00    +0.000 Cl
BRANCH  19  23
ATOM     23  C   UNL     1       1.519  11.946  18.708  0.00  0.00    +0.000 A 
ATOM     24  N   UNL     1       2.581  12.699  18.257  0.00  0.00    +0.000 NA
ATOM     25  C   UNL     1       2.082  13.906  18.152  0.00  0.00    +0.000 A 
ATOM     26  N   UNL     1       0.778  13.889  18.522  0.00  0.00    +0.000 N 
ATOM     27  N   UNL     1       0.391  12.656  18.881  0.00  0.00    +0.000 NA
ATOM     28  H   UNL     1       0.108  14.648  18.556  0.00  0.00    +0.000 HD
ENDBRANCH  19  23
ENDBRANCH  13  16
BRANCH   1  30
ATOM     29  C   UNL     1       7.698   6.133  18.833  0.00  0.00    +0.000 C 
ATOM     30  C   UNL     1       6.808   6.880  17.831  0.00  0.00    +0.000 C 
ATOM     31  C   UNL     1       7.545   8.124  17.318  0.00  0.00    +0.000 C 
ENDBRANCH   1  30
TORSDOF 3
ENDMDL
MODEL 2
REMARK VINA RESULT:      -7.6      3.776      6.366
REMARK  Name = 
REMARK  5 active torsions:
REMARK  status: ('A' for Active; 'I' for Inactive)
REMARK    1  A    between atoms: C_1  and  C_2
REMARK    2  A    between atoms: C_2  and  C_3
REMARK    3  A    between atoms: C_2  and  C_4
REMARK    4  A    between atoms: C_16  and  C_17
REMARK    5  A    between atoms: C_20  and  C_21
REMARK                            x       y       z     vdW  Elec       q    Type
REMARK                         _______ _______ _______ _____ _____    ______ ____
ROOT
ATOM      1  C   UNL     1       2.520   6.146  19.948  0.00  0.00    +0.000 C 
ATOM      2  C   UNL     1       1.286   5.881  20.794  0.00  0.00    +0.000 C 
ATOM      3  O   UNL     1       1.168   4.465  20.830  0.00  0.00    +0.000 OA
ATOM      4  C   UNL     1       1.827   3.963  19.739  0.00  0.00    +0.000 C 
ATOM      5  O   UNL     1       1.737   2.783  19.438  0.00  0.00    +0.000 OA
ATOM      6  N   UNL     1       2.574   4.966  19.105  0.00  0.00    +0.000 N 
ATOM      7  C   UNL     1       3.543   4.737  18.133  0.00  0.00    +0.000 A 
ATOM      8  C   UNL     1       3.307   3.563  17.231  0.00  0.00    +0.000 A 
ATOM      9  C   UNL     1       4.228   3.346  16.287  0.00  0.00    +0.000 A 
ATOM     10  N   UNL     1       5.335   4.169  16.183  0.00  0.00    +0.000 N 
ATOM     11  N   UNL     1       6.347   4.049  15.298  0.00  0.00    +0.000 NA
ATOM     12  C   UNL     1       7.204   5.000  15.655  0.00  0.00    +0.000 A 
ATOM     13  C   UNL     1       6.751   5.793  16.737  0.00  0.00    +0.000 A 
ATOM     14  C   UNL     1       5.512   5.245  17.062  0.00  0.00    +0.000 A 
ATOM     15  N   UNL     1       4.571   5.541  18.027  0.00  0.00    +0.000 NA
ENDROOT
BRANCH  13  16
ATOM     16  C   UNL     1       7.426   6.886  17.437  0.00  0.00    +0.000 A 
ATOM     17  C   UNL     1       7.363   8.183  16.894  0.00  0.00    +0.000 A 
ATOM     18  C   UNL     1       7.952   9.275  17.542  0.00  0.00    +0.000 A 
ATOM     19  C   UNL     1       8.608   9.109  18.764  0.00  0.00    +0.000 A 
ATOM     20  C   UNL     1       8.667   7.828  19.321  0.00  0.00    +0.000 A 
ATOM     21  C   UNL     1       8.095   6.728  18.666  0.00  0.00    +0.000 A 
ATOM     22 CL   UNL     1       8.308   5.199  19.457  0.00  0.00    +0.000 Cl
BRANCH  19  23
ATOM     23  C   UNL     1       9.220  10.246  19.439  0.00  0.00    +0.000 A 
ATOM     24  N   UNL     1       9.934  11.211  18.763  0.00  0.00    +0.000 NA
ATOM     25  C   UNL     1      10.312  12.036  19.709  0.00  0.00    +0.000 A 
ATOM     26  N   UNL     1       9.853  11.592  20.906  0.00  0.00    +0.000 N 
ATOM     27  N   UNL     1       9.154  10.456  20.766  0.00  0.00    +0.000 NA
ATOM     28  H   UNL     1       9.967  11.993  21.828  0.00  0.00    +0.000 HD
ENDBRANCH  19  23
ENDBRANCH  13  16
BRANCH   1  30
ATOM     29  C   UNL     1       1.905   7.497  17.833  0.00  0.00    +0.000 C 
ATOM     30  C   UNL     1       2.497   7.527  19.247  0.00  0.00    +0.000 C 
ATOM     31  C   UNL     1       1.746   8.561  20.096  0.00  0.00    +0.000 C 
ENDBRANCH   1  30
TORSDOF 3
ENDMDL
MODEL 3
REMARK VINA RESULT:      -7.3      7.911     10.650
REMARK  Name = 
REMARK  5 active torsions:
REMARK  status: ('A' for Active; 'I' for Inactive)
REMARK    1  A    between atoms: C_1  and  C_2
REMARK    2  A    between atoms: C_2  and  C_3
REMARK    3  A    between atoms: C_2  and  C_4
REMARK    4  A    between atoms: C_16  and  C_17
REMARK    5  A    between atoms: C_20  and  C_21
REMARK                            x       y       z     vdW  Elec       q    Type
REMARK                         _______ _______ _______ _____ _____    ______ ____
ROOT
ATOM      1  C   UNL     1      -4.869  13.865  22.064  0.00  0.00    +0.000 C 
ATOM      2  C   UNL     1      -5.884  14.212  23.140  0.00  0.00    +0.000 C 
ATOM      3  O   UNL     1      -6.741  13.080  23.209  0.00  0.00    +0.000 OA
ATOM      4  C   UNL     1      -6.655  12.418  22.013  0.00  0.00    +0.000 C 
ATOM      5  O   UNL     1      -7.419  11.504  21.746  0.00  0.00    +0.000 OA
ATOM      6  N   UNL     1      -5.606  12.929  21.236  0.00  0.00    +0.000 N 
ATOM      7  C   UNL     1      -5.098  12.320  20.094  0.00  0.00    +0.000 A 
ATOM      8  C   UNL     1      -6.080  11.548  19.265  0.00  0.00    +0.000 A 
ATOM      9  C   UNL     1      -5.599  10.971  18.159  0.00  0.00    +0.000 A 
ATOM     10  N   UNL     1      -4.260  11.086  17.832  0.00  0.00    +0.000 N 
ATOM     11  N   UNL     1      -3.643  10.537  16.765  0.00  0.00    +0.000 NA
ATOM     12  C   UNL     1      -2.361  10.846  16.938  0.00  0.00    +0.000 A 
ATOM     13  C   UNL     1      -2.122  11.644  18.082  0.00  0.00    +0.000 A 
ATOM     14  C   UNL     1      -3.383  11.809  18.651  0.00  0.00    +0.000 A 
ATOM     15  N   UNL     1      -3.834  12.460  19.780  0.00  0.00    +0.000 NA
ENDROOT
BRANCH  13  16
ATOM     16  C   UNL     1      -0.856  12.135  18.626  0.00  0.00    +0.000 A 
ATOM     17  C   UNL     1      -0.424  13.430  18.282  0.00  0.00    +0.000 A 
ATOM     18  C   UNL     1       0.757  13.970  18.807  0.00  0.00    +0.000 A 
ATOM     19  C   UNL     1       1.535  13.238  19.707  0.00  0.00    +0.000 A 
ATOM     20  C   UNL     1       1.112  11.955  20.067  0.00  0.00    +0.000 A 
ATOM     21  C   UNL     1      -0.060  11.403  19.529  0.00  0.00    +0.000 A 
ATOM     22 CL   UNL     1      -0.414   9.780  20.028  0.00  0.00    +0.000 Cl
BRANCH  19  23
ATOM     23  C   UNL     1       2.763  13.800  20.254  0.00  0.00    +0.000 A 
ATOM     24  N   UNL     1       3.105  13.676  21.583  0.00  0.00    +0.000 NA
ATOM     25  C   UNL     1       4.252  14.305  21.667  0.00  0.00    +0.000 A 
ATOM     26  N   UNL     1       4.591  14.792  20.448  0.00  0.00    +0.000 N 
ATOM     27  N   UNL     1       3.664  14.486  19.529  0.00  0.00    +0.000 NA
ATOM     28  H   UNL     1       5.408  15.321  20.171  0.00  0.00    +0.000 HD
ENDBRANCH  19  23
ENDBRANCH  13  16
BRANCH   1  30
ATOM     29  C   UNL     1      -4.948  16.428  21.747  0.00  0.00    +0.000 C 
ATOM     30  C   UNL     1      -4.260  15.110  21.371  0.00  0.00    +0.000 C 
ATOM     31  C   UNL     1      -2.757  15.216  21.656  0.00  0.00    +0.000 C 
ENDBRANCH   1  30
TORSDOF 3
ENDMDL
MODEL 4
REMARK VINA RESULT:      -7.3      6.283      9.307
REMARK  Name = 
REMARK  5 active torsions:
REMARK  status: ('A' for Active; 'I' for Inactive)
REMARK    1  A    between atoms: C_1  and  C_2
REMARK    2  A    between atoms: C_2  and  C_3
REMARK    3  A    between atoms: C_2  and  C_4
REMARK    4  A    between atoms: C_16  and  C_17
REMARK    5  A    between atoms: C_20  and  C_21
REMARK                            x       y       z     vdW  Elec       q    Type
REMARK                         _______ _______ _______ _____ _____    ______ ____
ROOT
ATOM      1  C   UNL     1       1.886  16.231  20.275  0.00  0.00    +0.000 C 
ATOM      2  C   UNL     1       2.720  17.471  20.002  0.00  0.00    +0.000 C 
ATOM      3  O   UNL     1       3.098  17.362  18.636  0.00  0.00    +0.000 OA
ATOM      4  C   UNL     1       3.031  16.038  18.289  0.00  0.00    +0.000 C 
ATOM      5  O   UNL     1       3.468  15.647  17.219  0.00  0.00    +0.000 OA
ATOM      6  N   UNL     1       2.404  15.292  19.297  0.00  0.00    +0.000 N 
ATOM      7  C   UNL     1       1.957  13.982  19.150  0.00  0.00    +0.000 A 
ATOM      8  C   UNL     1       2.756  13.112  18.228  0.00  0.00    +0.000 A 
ATOM      9  C   UNL     1       2.339  11.849  18.094  0.00  0.00    +0.000 A 
ATOM     10  N   UNL     1       1.218  11.404  18.770  0.00  0.00    +0.000 N 
ATOM     11  N   UNL     1       0.677  10.170  18.706  0.00  0.00    +0.000 NA
ATOM     12  C   UNL     1      -0.425  10.260  19.445  0.00  0.00    +0.000 A 
ATOM     13  C   UNL     1      -0.598  11.528  20.049  0.00  0.00    +0.000 A 
ATOM     14  C   UNL     1       0.500  12.265  19.610  0.00  0.00    +0.000 A 
ATOM     15  N   UNL     1       0.911  13.566  19.819  0.00  0.00    +0.000 NA
ENDROOT
BRANCH  13  16
ATOM     16  C   UNL     1      -1.698  12.023  20.878  0.00  0.00    +0.000 A 
ATOM     17  C   UNL     1      -2.697  12.814  20.281  0.00  0.00    +0.000 A 
ATOM     18  C   UNL     1      -3.795  13.280  21.015  0.00  0.00    +0.000 A 
ATOM     19  C   UNL     1      -3.938  12.953  22.365  0.00  0.00    +0.000 A 
ATOM     20  C   UNL     1      -2.959  12.158  22.968  0.00  0.00    +0.000 A 
ATOM     21  C   UNL     1      -1.848  11.705  22.242  0.00  0.00    +0.000 A 
ATOM     22 CL   UNL     1      -0.694  10.781  23.148  0.00  0.00    +0.000 Cl
BRANCH  19  23
ATOM     23  C   UNL     1      -5.082  13.436  23.129  0.00  0.00    +0.000 A 
ATOM     24  N   UNL     1      -5.490  14.752  23.097  0.00  0.00    +0.000 NA
ATOM     25  C   UNL     1      -6.523  14.775  23.903  0.00  0.00    +0.000 A 
ATOM     26  N   UNL     1      -6.733  13.532  24.405  0.00  0.00    +0.000 N 
ATOM     27  N   UNL     1      -5.832  12.660  23.930  0.00  0.00    +0.000 NA
ATOM     28  H   UNL     1      -7.443  13.210  25.050  0.00  0.00    +0.000 HD
ENDBRANCH  19  23
ENDBRANCH  13  16
BRANCH   1  30
ATOM     29  C   UNL     1       3.305  15.553  22.325  0.00  0.00    +0.000 C 
ATOM     30  C   UNL     1       1.900  15.798  21.762  0.00  0.00    +0.000 C 
ATOM     31  C   UNL     1       1.167  16.822  22.638  0.00  0.00    +0.000 C 
ENDBRANCH   1  30
TORSDOF 3
ENDMDL
MODEL 5
REMARK VINA RESULT:      -7.3      6.849     10.919
REMARK  Name = 
REMARK  5 active torsions:
REMARK  status: ('A' for Active; 'I' for Inactive)
REMARK    1  A    between atoms: C_1  and  C_2
REMARK    2  A    between atoms: C_2  and  C_3
REMARK    3  A    between atoms: C_2  and  C_4
REMARK    4  A    between atoms: C_16  and  C_17
REMARK    5  A    between atoms: C_20  and  C_21
REMARK                            x       y       z     vdW  Elec       q    Type
REMARK                         _______ _______ _______ _____ _____    ______ ____
ROOT
ATOM      1  C   UNL     1      -5.618  12.486  18.308  0.00  0.00    +0.000 C 
ATOM      2  C   UNL     1      -6.777  12.795  17.376  0.00  0.00    +0.000 C 
ATOM      3  O   UNL     1      -6.991  14.193  17.513  0.00  0.00    +0.000 OA
ATOM      4  C   UNL     1      -6.481  14.576  18.726  0.00  0.00    +0.000 C 
ATOM      5  O   UNL     1      -6.684  15.696  19.167  0.00  0.00    +0.000 OA
ATOM      6  N   UNL     1      -5.732  13.539  19.299  0.00  0.00    +0.000 N 
ATOM      7  C   UNL     1      -4.883  13.687  20.391  0.00  0.00    +0.000 A 
ATOM      8  C   UNL     1      -5.289  14.710  21.409  0.00  0.00    +0.000 A 
ATOM      9  C   UNL     1      -4.484  14.846  22.467  0.00  0.00    +0.000 A 
ATOM     10  N   UNL     1      -3.337  14.081  22.581  0.00  0.00    +0.000 N 
ATOM     11  N   UNL     1      -2.429  14.135  23.578  0.00  0.00    +0.000 NA
ATOM     12  C   UNL     1      -1.475  13.292  23.193  0.00  0.00    +0.000 A 
ATOM     13  C   UNL     1      -1.761  12.632  21.975  0.00  0.00    +0.000 A 
ATOM     14  C   UNL     1      -2.998  13.149  21.592  0.00  0.00    +0.000 A 
ATOM     15  N   UNL     1      -3.815  12.936  20.501  0.00  0.00    +0.000 NA
ENDROOT
BRANCH  13  16
ATOM     16  C   UNL     1      -0.945  11.686  21.214  0.00  0.00    +0.000 A 
ATOM     17  C   UNL     1      -0.607  11.997  19.883  0.00  0.00    +0.000 A 
ATOM     18  C   UNL     1       0.207  11.150  19.120  0.00  0.00    +0.000 A 
ATOM     19  C   UNL     1       0.723   9.975  19.669  0.00  0.00    +0.000 A 
ATOM     20  C   UNL     1       0.405   9.660  20.993  0.00  0.00    +0.000 A 
ATOM     21  C   UNL     1      -0.425  10.495  21.756  0.00  0.00    +0.000 A 
ATOM     22 CL   UNL     1      -0.775   9.933  23.358  0.00  0.00    +0.000 Cl
BRANCH  19  23
ATOM     23  C   UNL     1       1.571   9.094  18.876  0.00  0.00    +0.000 A 
ATOM     24  N   UNL     1       2.031   7.885  19.351  0.00  0.00    +0.000 NA
ATOM     25  C   UNL     1       2.745   7.414  18.358  0.00  0.00    +0.000 A 
ATOM     26  N   UNL     1       2.724   8.295  17.328  0.00  0.00    +0.000 N 
ATOM     27  N   UNL     1       1.985   9.374  17.628  0.00  0.00    +0.000 NA
ATOM     28  H   UNL     1       3.169   8.236  16.421  0.00  0.00    +0.000 HD
ENDBRANCH  19  23
ENDBRANCH  13  16
BRANCH   1  30
ATOM     29  C   UNL     1      -6.987  10.344  18.771  0.00  0.00    +0.000 C 
ATOM     30  C   UNL     1      -5.612  11.022  18.814  0.00  0.00    +0.000 C 
ATOM     31  C   UNL     1      -4.598  10.176  18.034  0.00  0.00    +0.000 C 
ENDBRANCH   1  30
TORSDOF 3
ENDMDL
MODEL 6
REMARK VINA RESULT:      -7.2      6.996     11.048
REMARK  Name = 
REMARK  5 active torsions:
REMARK  status: ('A' for Active; 'I' for Inactive)
REMARK    1  A    between atoms: C_1  and  C_2
REMARK    2  A    between atoms: C_2  and  C_3
REMARK    3  A    between atoms: C_2  and  C_4
REMARK    4  A    between atoms: C_16  and  C_17
REMARK    5  A    between atoms: C_20  and  C_21
REMARK                            x       y       z     vdW  Elec       q    Type
REMARK                         _______ _______ _______ _____ _____    ______ ____
ROOT
ATOM      1  C   UNL     1      -5.605  12.606  18.323  0.00  0.00    +0.000 C 
ATOM      2  C   UNL     1      -6.772  12.899  17.395  0.00  0.00    +0.000 C 
ATOM      3  O   UNL     1      -7.060  14.276  17.599  0.00  0.00    +0.000 OA
ATOM      4  C   UNL     1      -6.579  14.625  18.833  0.00  0.00    +0.000 C 
ATOM      5  O   UNL     1      -6.845  15.710  19.327  0.00  0.00    +0.000 OA
ATOM      6  N   UNL     1      -5.781  13.602  19.363  0.00  0.00    +0.000 N 
ATOM      7  C   UNL     1      -4.949  13.739  20.470  0.00  0.00    +0.000 A 
ATOM      8  C   UNL     1      -5.416  14.688  21.532  0.00  0.00    +0.000 A 
ATOM      9  C   UNL     1      -4.627  14.814  22.604  0.00  0.00    +0.000 A 
ATOM     10  N   UNL     1      -3.443  14.105  22.691  0.00  0.00    +0.000 N 
ATOM     11  N   UNL     1      -2.547  14.157  23.699  0.00  0.00    +0.000 NA
ATOM     12  C   UNL     1      -1.547  13.385  23.283  0.00  0.00    +0.000 A 
ATOM     13  C   UNL     1      -1.789  12.772  22.031  0.00  0.00    +0.000 A 
ATOM     14  C   UNL     1      -3.048  13.241  21.662  0.00  0.00    +0.000 A 
ATOM     15  N   UNL     1      -3.845  13.040  20.553  0.00  0.00    +0.000 NA
ENDROOT
BRANCH  13  16
ATOM     16  C   UNL     1      -0.918  11.909  21.233  0.00  0.00    +0.000 A 
ATOM     17  C   UNL     1      -0.634  10.611  21.700  0.00  0.00    +0.000 A 
ATOM     18  C   UNL     1       0.157   9.725  20.958  0.00  0.00    +0.000 A 
ATOM     19  C   UNL     1       0.674  10.102  19.717  0.00  0.00    +0.000 A 
ATOM     20  C   UNL     1       0.390  11.383  19.236  0.00  0.00    +0.000 A 
ATOM     21  C   UNL     1      -0.386  12.281  19.983  0.00  0.00    +0.000 A 
ATOM     22 CL   UNL     1      -0.596  13.851  19.277  0.00  0.00    +0.000 Cl
BRANCH  19  23
ATOM     23  C   UNL     1       1.497   9.180  18.944  0.00  0.00    +0.000 A 
ATOM     24  N   UNL     1       1.942   7.980  19.454  0.00  0.00    +0.000 NA
ATOM     25  C   UNL     1       2.636   7.463  18.469  0.00  0.00    +0.000 A 
ATOM     26  N   UNL     1       2.616   8.310  17.410  0.00  0.00    +0.000 N 
ATOM     27  N   UNL     1       1.899   9.410  17.682  0.00  0.00    +0.000 NA
ATOM     28  H   UNL     1       3.048   8.212  16.500  0.00  0.00    +0.000 HD
ENDBRANCH  19  23
ENDBRANCH  13  16
BRANCH   1  30
ATOM     29  C   UNL     1      -6.874  10.391  18.722  0.00  0.00    +0.000 C 
ATOM     30  C   UNL     1      -5.526  11.121  18.757  0.00  0.00    +0.000 C 
ATOM     31  C   UNL     1      -4.504  10.354  17.907  0.00  0.00    +0.000 C 
ENDBRANCH   1  30
TORSDOF 3
ENDMDL
MODEL 7
REMARK VINA RESULT:      -7.2      6.363      9.498
REMARK  Name = 
REMARK  5 active torsions:
REMARK  status: ('A' for Active; 'I' for Inactive)
REMARK    1  A    between atoms: C_1  and  C_2
REMARK    2  A    between atoms: C_2  and  C_3
REMARK    3  A    between atoms: C_2  and  C_4
REMARK    4  A    between atoms: C_16  and  C_17
REMARK    5  A    between atoms: C_20  and  C_21
REMARK                            x       y       z     vdW  Elec       q    Type
REMARK                         _______ _______ _______ _____ _____    ______ ____
ROOT
ATOM      1  C   UNL     1       1.568  16.362  20.187  0.00  0.00    +0.000 C 
ATOM      2  C   UNL     1       2.305  17.668  19.944  0.00  0.00    +0.000 C 
ATOM      3  O   UNL     1       2.765  17.582  18.602  0.00  0.00    +0.000 OA
ATOM      4  C   UNL     1       2.831  16.255  18.268  0.00  0.00    +0.000 C 
ATOM      5  O   UNL     1       3.358  15.895  17.227  0.00  0.00    +0.000 OA
ATOM      6  N   UNL     1       2.217  15.464  19.250  0.00  0.00    +0.000 N 
ATOM      7  C   UNL     1       1.894  14.120  19.096  0.00  0.00    +0.000 A 
ATOM      8  C   UNL     1       2.814  13.316  18.228  0.00  0.00    +0.000 A 
ATOM      9  C   UNL     1       2.515  12.020  18.087  0.00  0.00    +0.000 A 
ATOM     10  N   UNL     1       1.402  11.484  18.709  0.00  0.00    +0.000 N 
ATOM     11  N   UNL     1       0.974  10.207  18.631  0.00  0.00    +0.000 NA
ATOM     12  C   UNL     1      -0.170  10.207  19.309  0.00  0.00    +0.000 A 
ATOM     13  C   UNL     1      -0.485  11.460  19.887  0.00  0.00    +0.000 A 
ATOM     14  C   UNL     1       0.568  12.286  19.498  0.00  0.00    +0.000 A 
ATOM     15  N   UNL     1       0.853  13.619  19.713  0.00  0.00    +0.000 NA
ENDROOT
BRANCH  13  16
ATOM     16  C   UNL     1      -1.666  11.863  20.650  0.00  0.00    +0.000 A 
ATOM     17  C   UNL     1      -1.559  12.001  22.047  0.00  0.00    +0.000 A 
ATOM     18  C   UNL     1      -2.643  12.426  22.824  0.00  0.00    +0.000 A 
ATOM     19  C   UNL     1      -3.865  12.744  22.228  0.00  0.00    +0.000 A 
ATOM     20  C   UNL     1      -3.982  12.622  20.840  0.00  0.00    +0.000 A 
ATOM     21  C   UNL     1      -2.904  12.179  20.059  0.00  0.00    +0.000 A 
ATOM     22 CL   UNL     1      -3.229  12.024  18.363  0.00  0.00    +0.000 Cl
BRANCH  19  23
ATOM     23  C   UNL     1      -4.994  13.187  23.036  0.00  0.00    +0.000 A 
ATOM     24  N   UNL     1      -5.631  14.389  22.820  0.00  0.00    +0.000 NA
ATOM     25  C   UNL     1      -6.566  14.413  23.738  0.00  0.00    +0.000 A 
ATOM     26  N   UNL     1      -6.500  13.279  24.480  0.00  0.00    +0.000 N 
ATOM     27  N   UNL     1      -5.510  12.480  24.057  0.00  0.00    +0.000 NA
ATOM     28  H   UNL     1      -7.074  12.986  25.261  0.00  0.00    +0.000 HD
ENDBRANCH  19  23
ENDBRANCH  13  16
BRANCH   1  30
ATOM     29  C   UNL     1       2.489  16.753  22.570  0.00  0.00    +0.000 C 
ATOM     30  C   UNL     1       1.539  15.943  21.679  0.00  0.00    +0.000 C 
ATOM     31  C   UNL     1       0.114  16.022  22.242  0.00  0.00    +0.000 C 
ENDBRANCH   1  30
TORSDOF 3
ENDMDL
MODEL 8
REMARK VINA RESULT:      -7.1      5.221      9.614
REMARK  Name = 
REMARK  5 active torsions:
REMARK  status: ('A' for Active; 'I' for Inactive)
REMARK    1  A    between atoms: C_1  and  C_2
REMARK    2  A    between atoms: C_2  and  C_3
REMARK    3  A    between atoms: C_2  and  C_4
REMARK    4  A    between atoms: C_16  and  C_17
REMARK    5  A    between atoms: C_20  and  C_21
REMARK                            x       y       z     vdW  Elec       q    Type
REMARK                         _______ _______ _______ _____ _____    ______ ____
ROOT
ATOM      1  C   UNL     1       2.746  15.440  20.714  0.00  0.00    +0.000 C 
ATOM      2  C   UNL     1       3.642  16.663  20.613  0.00  0.00    +0.000 C 
ATOM      3  O   UNL     1       3.567  17.275  21.894  0.00  0.00    +0.000 OA
ATOM      4  C   UNL     1       2.399  16.867  22.483  0.00  0.00    +0.000 C 
ATOM      5  O   UNL     1       2.007  17.379  23.520  0.00  0.00    +0.000 OA
ATOM      6  N   UNL     1       1.806  15.832  21.747  0.00  0.00    +0.000 N 
ATOM      7  C   UNL     1       0.760  15.035  22.202  0.00  0.00    +0.000 A 
ATOM      8  C   UNL     1      -0.220  15.696  23.123  0.00  0.00    +0.000 A 
ATOM      9  C   UNL     1      -1.235  14.939  23.552  0.00  0.00    +0.000 A 
ATOM     10  N   UNL     1      -1.337  13.615  23.163  0.00  0.00    +0.000 N 
ATOM     11  N   UNL     1      -2.290  12.738  23.541  0.00  0.00    +0.000 NA
ATOM     12  C   UNL     1      -1.908  11.589  22.991  0.00  0.00    +0.000 A 
ATOM     13  C   UNL     1      -0.738  11.701  22.203  0.00  0.00    +0.000 A 
ATOM     14  C   UNL     1      -0.383  13.044  22.311  0.00  0.00    +0.000 A 
ATOM     15  N   UNL     1       0.659  13.791  21.803  0.00  0.00    +0.000 NA
ENDROOT
BRANCH  13  16
ATOM     16  C   UNL     1       0.009  10.663  21.491  0.00  0.00    +0.000 A 
ATOM     17  C   UNL     1       0.590   9.616  22.229  0.00  0.00    +0.000 A 
ATOM     18  C   UNL     1       1.279   8.572  21.598  0.00  0.00    +0.000 A 
ATOM     19  C   UNL     1       1.393   8.534  20.207  0.00  0.00    +0.000 A 
ATOM     20  C   UNL     1       0.810   9.562  19.460  0.00  0.00    +0.000 A 
ATOM     21  C   UNL     1       0.136  10.619  20.089  0.00  0.00    +0.000 A 
ATOM     22 CL   UNL     1      -0.477  11.845  19.027  0.00  0.00    +0.000 Cl
BRANCH  19  23
ATOM     23  C   UNL     1       2.109   7.448  19.550  0.00  0.00    +0.000 A 
ATOM     24  N   UNL     1       2.728   7.602  18.328  0.00  0.00    +0.000 NA
ATOM     25  C   UNL     1       3.241   6.420  18.090  0.00  0.00    +0.000 A 
ATOM     26  N   UNL     1       2.948   5.584  19.117  0.00  0.00    +0.000 N 
ATOM     27  N   UNL     1       2.229   6.210  20.061  0.00  0.00    +0.000 NA
ATOM     28  H   UNL     1       3.193   4.611  19.245  0.00  0.00    +0.000 HD
ENDBRANCH  19  23
ENDBRANCH  13  16
BRANCH   1  30
ATOM     29  C   UNL     1       2.355  16.019  18.226  0.00  0.00    +0.000 C 
ATOM     30  C   UNL     1       2.167  14.991  19.349  0.00  0.00    +0.000 C 
ATOM     31  C   UNL     1       2.761  13.645  18.917  0.00  0.00    +0.000 C 
ENDBRANCH   1  30
TORSDOF 3
ENDMDL
MODEL 9
REMARK VINA RESULT:      -7.1      7.618     11.481
REMARK  Name = 
REMARK  5 active torsions:
REMARK  status: ('A' for Active; 'I' for Inactive)
REMARK    1  A    between atoms: C_1  and  C_2
REMARK    2  A    between atoms: C_2  and  C_3
REMARK    3  A    between atoms: C_2  and  C_4
REMARK    4  A    between atoms: C_16  and  C_17
REMARK    5  A    between atoms: C_20  and  C_21
REMARK                            x       y       z     vdW  Elec       q    Type
REMARK                         _______ _______ _______ _____ _____    ______ ____
ROOT
ATOM      1  C   UNL     1       7.419  14.794  23.196  0.00  0.00    +0.000 C 
ATOM      2  C   UNL     1       6.664  15.369  24.382  0.00  0.00    +0.000 C 
ATOM      3  O   UNL     1       6.265  16.668  23.964  0.00  0.00    +0.000 OA
ATOM      4  C   UNL     1       7.110  17.061  22.960  0.00  0.00    +0.000 C 
ATOM      5  O   UNL     1       7.094  18.206  22.538  0.00  0.00    +0.000 OA
ATOM      6  N   UNL     1       7.908  15.989  22.534  0.00  0.00    +0.000 N 
ATOM      7  C   UNL     1       8.679  15.987  21.376  0.00  0.00    +0.000 A 
ATOM      8  C   UNL     1       9.256  17.309  20.966  0.00  0.00    +0.000 A 
ATOM      9  C   UNL     1      10.009  17.311  19.862  0.00  0.00    +0.000 A 
ATOM     10  N   UNL     1      10.213  16.143  19.149  0.00  0.00    +0.000 N 
ATOM     11  N   UNL     1      10.925  16.010  18.011  0.00  0.00    +0.000 NA
ATOM     12  C   UNL     1      10.748  14.738  17.664  0.00  0.00    +0.000 A 
ATOM     13  C   UNL     1       9.968  14.004  18.590  0.00  0.00    +0.000 A 
ATOM     14  C   UNL     1       9.638  14.938  19.570  0.00  0.00    +0.000 A 
ATOM     15  N   UNL     1       8.888  14.870  20.727  0.00  0.00    +0.000 NA
ENDROOT
BRANCH  13  16
ATOM     16  C   UNL     1       9.518  12.613  18.532  0.00  0.00    +0.000 A 
ATOM     17  C   UNL     1       8.517  12.260  17.608  0.00  0.00    +0.000 A 
ATOM     18  C   UNL     1       8.077  10.937  17.477  0.00  0.00    +0.000 A 
ATOM     19  C   UNL     1       8.637   9.922  18.254  0.00  0.00    +0.000 A 
ATOM     20  C   UNL     1       9.641  10.256  19.168  0.00  0.00    +0.000 A 
ATOM     21  C   UNL     1      10.072  11.582  19.315  0.00  0.00    +0.000 A 
ATOM     22 CL   UNL     1      11.279  11.841  20.533  0.00  0.00    +0.000 Cl
BRANCH  19  23
ATOM     23  C   UNL     1       8.181   8.544  18.118  0.00  0.00    +0.000 A 
ATOM     24  N   UNL     1       7.359   8.135  17.091  0.00  0.00    +0.000 NA
ATOM     25  C   UNL     1       7.182   6.858  17.326  0.00  0.00    +0.000 A 
ATOM     26  N   UNL     1       7.862   6.506  18.445  0.00  0.00    +0.000 N 
ATOM     27  N   UNL     1       8.507   7.557  18.971  0.00  0.00    +0.000 NA
ATOM     28  H   UNL     1       7.935   5.603  18.896  0.00  0.00    +0.000 HD
ENDBRANCH  19  23
ENDBRANCH  13  16
BRANCH   1  30
ATOM     29  C   UNL     1       8.562  13.484  25.107  0.00  0.00    +0.000 C 
ATOM     30  C   UNL     1       8.460  13.718  23.595  0.00  0.00    +0.000 C 
ATOM     31  C   UNL     1       8.172  12.388  22.887  0.00  0.00    +0.000 C 
ENDBRANCH   1  30
TORSDOF 3
ENDMDL
