MODEL 1
REMARK VINA RESULT:      -7.7      0.000      0.000
REMARK  Name = 
REMARK  5 active torsions:
REMARK  status: ('A' for Active; 'I' for Inactive)
REMARK    1  A    between atoms: C_1  and  N_2
REMARK    2  A    between atoms: C_3  and  C_5
REMARK    3  A    between atoms: C_9  and  N_10
REMARK    4  A    between atoms: C_11  and  C_13
REMARK    5  A    between atoms: C_13  and  C_14
REMARK                            x       y       z     vdW  Elec       q    Type
REMARK                         _______ _______ _______ _____ _____    ______ ____
ROOT
ATOM      1  N   UNL     1       6.036   5.131  15.788  0.00  0.00    +0.000 N 
ATOM      2  C   UNL     1       6.708   4.824  16.963  0.00  0.00    +0.000 C 
ATOM      3  O   UNL     1       7.842   4.357  17.048  0.00  0.00    +0.000 OA
ATOM      4  H   UNL     1       5.154   5.624  15.870  0.00  0.00    +0.000 HD
ENDROOT
BRANCH   1   9
ATOM      5  C   UNL     1       6.316   3.506  12.454  0.00  0.00    +0.000 A 
ATOM      6  C   UNL     1       7.339   4.254  11.860  0.00  0.00    +0.000 A 
ATOM      7  C   UNL     1       7.931   5.297  12.565  0.00  0.00    +0.000 A 
ATOM      8  C   UNL     1       7.505   5.598  13.860  0.00  0.00    +0.000 A 
ATOM      9  C   UNL     1       6.490   4.859  14.476  0.00  0.00    +0.000 A 
ATOM     10  C   UNL     1       5.913   3.792  13.772  0.00  0.00    +0.000 A 
BRANCH   5  13
ATOM     11  C   UNL     1       5.875   0.071  10.903  0.00  0.00    +0.000 C 
ATOM     12  N   UNL     1       6.402   1.223  11.590  0.00  0.00    +0.000 N 
ATOM     13  C   UNL     1       5.663   2.384  11.716  0.00  0.00    +0.000 C 
ATOM     14  O   UNL     1       4.541   2.525  11.243  0.00  0.00    +0.000 OA
ATOM     15  H   UNL     1       7.392   1.241  11.790  0.00  0.00    +0.000 HD
ENDBRANCH   5  13
ENDBRANCH   1   9
BRANCH   2  16
ATOM     16  C   UNL     1       5.918   5.113  18.232  0.00  0.00    +0.000 C 
BRANCH  16  17
ATOM     17  C   UNL     1       4.518   4.548  18.148  0.00  0.00    +0.000 A 
ATOM     18  C   UNL     1       4.345   3.152  18.160  0.00  0.00    +0.000 A 
ATOM     19  C   UNL     1       3.080   2.585  18.000  0.00  0.00    +0.000 A 
ATOM     20  C   UNL     1       1.968   3.403  17.822  0.00  0.00    +0.000 A 
ATOM     21  C   UNL     1       2.121   4.789  17.819  0.00  0.00    +0.000 A 
ATOM     22  C   UNL     1       3.385   5.360  17.982  0.00  0.00    +0.000 A 
ATOM     23 CL   UNL     1       3.498   7.085  17.964  0.00  0.00    +0.000 Cl
ENDBRANCH  16  17
ENDBRANCH   2  16
TORSDOF 4
ENDMDL
MODEL 2
REMARK VINA RESULT:      -7.7      2.179      2.528
REMARK  Name = 
REMARK  5 active torsions:
REMARK  status: ('A' for Active; 'I' for Inactive)
REMARK    1  A    between atoms: C_1  and  N_2
REMARK    2  A    between atoms: C_3  and  C_5
REMARK    3  A    between atoms: C_9  and  N_10
REMARK    4  A    between atoms: C_11  and  C_13
REMARK    5  A    between atoms: C_13  and  C_14
REMARK                            x       y       z     vdW  Elec       q    Type
REMARK                         _______ _______ _______ _____ _____    ______ ____
ROOT
ATOM      1  N   UNL     1       5.931   3.843  16.682  0.00  0.00    +0.000 N 
ATOM      2  C   UNL     1       5.124   4.651  17.470  0.00  0.00    +0.000 C 
ATOM      3  O   UNL     1       4.537   5.667  17.102  0.00  0.00    +0.000 OA
ATOM      4  H   UNL     1       6.254   2.970  17.085  0.00  0.00    +0.000 HD
ENDROOT
BRANCH   1   9
ATOM      5  C   UNL     1       5.967   3.685  12.965  0.00  0.00    +0.000 A 
ATOM      6  C   UNL     1       7.014   4.561  12.656  0.00  0.00    +0.000 A 
ATOM      7  C   UNL     1       7.703   5.204  13.679  0.00  0.00    +0.000 A 
ATOM      8  C   UNL     1       7.350   4.977  15.011  0.00  0.00    +0.000 A 
ATOM      9  C   UNL     1       6.313   4.101  15.344  0.00  0.00    +0.000 A 
ATOM     10  C   UNL     1       5.638   3.434  14.311  0.00  0.00    +0.000 A 
BRANCH   5  13
ATOM     11  C   UNL     1       3.294   3.072  10.344  0.00  0.00    +0.000 C 
ATOM     12  N   UNL     1       4.100   3.644  11.392  0.00  0.00    +0.000 N 
ATOM     13  C   UNL     1       5.212   2.986  11.884  0.00  0.00    +0.000 C 
ATOM     14  O   UNL     1       5.572   1.883  11.491  0.00  0.00    +0.000 OA
ATOM     15  H   UNL     1       3.720   4.428  11.904  0.00  0.00    +0.000 HD
ENDBRANCH   5  13
ENDBRANCH   1   9
BRANCH   2  16
ATOM     16  C   UNL     1       4.992   4.189  18.915  0.00  0.00    +0.000 C 
BRANCH  16  17
ATOM     17  C   UNL     1       3.541   4.044  19.315  0.00  0.00    +0.000 A 
ATOM     18  C   UNL     1       2.929   5.082  20.043  0.00  0.00    +0.000 A 
ATOM     19  C   UNL     1       1.619   4.956  20.506  0.00  0.00    +0.000 A 
ATOM     20  C   UNL     1       0.900   3.791  20.252  0.00  0.00    +0.000 A 
ATOM     21  C   UNL     1       1.488   2.758  19.523  0.00  0.00    +0.000 A 
ATOM     22  C   UNL     1       2.799   2.882  19.056  0.00  0.00    +0.000 A 
ATOM     23 CL   UNL     1       3.463   1.560  18.162  0.00  0.00    +0.000 Cl
ENDBRANCH  16  17
ENDBRANCH   2  16
TORSDOF 4
ENDMDL
MODEL 3
REMARK VINA RESULT:      -7.5      4.912      8.762
REMARK  Name = 
REMARK  5 active torsions:
REMARK  status: ('A' for Active; 'I' for Inactive)
REMARK    1  A    between atoms: C_1  and  N_2
REMARK    2  A    between atoms: C_3  and  C_5
REMARK    3  A    between atoms: C_9  and  N_10
REMARK    4  A    between atoms: C_11  and  C_13
REMARK    5  A    between atoms: C_13  and  C_14
REMARK                            x       y       z     vdW  Elec       q    Type
REMARK                         _______ _______ _______ _____ _____    ______ ____
ROOT
ATOM      1  N   UNL     1       3.148   6.465  18.798  0.00  0.00    +0.000 N 
ATOM      2  C   UNL     1       2.752   5.239  18.282  0.00  0.00    +0.000 C 
ATOM      3  O   UNL     1       1.666   4.989  17.763  0.00  0.00    +0.000 OA
ATOM      4  H   UNL     1       4.116   6.560  19.085  0.00  0.00    +0.000 HD
ENDROOT
BRANCH   1   9
ATOM      5  C   UNL     1       1.113   9.155  20.366  0.00  0.00    +0.000 A 
ATOM      6  C   UNL     1       0.716   9.897  19.247  0.00  0.00    +0.000 A 
ATOM      7  C   UNL     1       1.126   9.506  17.977  0.00  0.00    +0.000 A 
ATOM      8  C   UNL     1       1.934   8.378  17.819  0.00  0.00    +0.000 A 
ATOM      9  C   UNL     1       2.336   7.617  18.921  0.00  0.00    +0.000 A 
ATOM     10  C   UNL     1       1.898   7.999  20.197  0.00  0.00    +0.000 A 
BRANCH   5  13
ATOM     11  C   UNL     1      -1.057  10.619  23.113  0.00  0.00    +0.000 C 
ATOM     12  N   UNL     1      -0.538  10.189  21.840  0.00  0.00    +0.000 N 
ATOM     13  C   UNL     1       0.688   9.557  21.739  0.00  0.00    +0.000 C 
ATOM     14  O   UNL     1       1.417   9.343  22.701  0.00  0.00    +0.000 OA
ATOM     15  H   UNL     1      -0.984  10.543  21.004  0.00  0.00    +0.000 HD
ENDBRANCH   5  13
ENDBRANCH   1   9
BRANCH   2  16
ATOM     16  C   UNL     1       3.800   4.140  18.399  0.00  0.00    +0.000 C 
BRANCH  16  17
ATOM     17  C   UNL     1       4.938   4.363  17.429  0.00  0.00    +0.000 A 
ATOM     18  C   UNL     1       4.771   3.984  16.084  0.00  0.00    +0.000 A 
ATOM     19  C   UNL     1       5.822   4.092  15.172  0.00  0.00    +0.000 A 
ATOM     20  C   UNL     1       7.058   4.577  15.590  0.00  0.00    +0.000 A 
ATOM     21  C   UNL     1       7.237   4.967  16.917  0.00  0.00    +0.000 A 
ATOM     22  C   UNL     1       6.186   4.862  17.831  0.00  0.00    +0.000 A 
ATOM     23 CL   UNL     1       6.484   5.361  19.459  0.00  0.00    +0.000 Cl
ENDBRANCH  16  17
ENDBRANCH   2  16
TORSDOF 4
ENDMDL
MODEL 4
REMARK VINA RESULT:      -7.5      2.528      3.921
REMARK  Name = 
REMARK  5 active torsions:
REMARK  status: ('A' for Active; 'I' for Inactive)
REMARK    1  A    between atoms: C_1  and  N_2
REMARK    2  A    between atoms: C_3  and  C_5
REMARK    3  A    between atoms: C_9  and  N_10
REMARK    4  A    between atoms: C_11  and  C_13
REMARK    5  A    between atoms: C_13  and  C_14
REMARK                            x       y       z     vdW  Elec       q    Type
REMARK                         _______ _______ _______ _____ _____    ______ ____
ROOT
ATOM      1  N   UNL     1       4.063   5.231  18.401  0.00  0.00    +0.000 N 
ATOM      2  C   UNL     1       3.355   6.425  18.423  0.00  0.00    +0.000 C 
ATOM      3  O   UNL     1       3.676   7.468  17.856  0.00  0.00    +0.000 OA
ATOM      4  H   UNL     1       3.619   4.417  18.811  0.00  0.00    +0.000 HD
ENDROOT
BRANCH   1   9
ATOM      5  C   UNL     1       6.672   4.712  15.801  0.00  0.00    +0.000 A 
ATOM      6  C   UNL     1       7.832   4.628  16.579  0.00  0.00    +0.000 A 
ATOM      7  C   UNL     1       7.748   4.746  17.962  0.00  0.00    +0.000 A 
ATOM      8  C   UNL     1       6.509   4.951  18.572  0.00  0.00    +0.000 A 
ATOM      9  C   UNL     1       5.336   5.030  17.816  0.00  0.00    +0.000 A 
ATOM     10  C   UNL     1       5.422   4.884  16.424  0.00  0.00    +0.000 A 
BRANCH   5  13
ATOM     11  C   UNL     1       6.035   3.314  12.331  0.00  0.00    +0.000 C 
ATOM     12  N   UNL     1       6.048   3.531  13.755  0.00  0.00    +0.000 N 
ATOM     13  C   UNL     1       6.738   4.590  14.314  0.00  0.00    +0.000 C 
ATOM     14  O   UNL     1       7.393   5.391  13.657  0.00  0.00    +0.000 OA
ATOM     15  H   UNL     1       5.725   2.780  14.350  0.00  0.00    +0.000 HD
ENDBRANCH   5  13
ENDBRANCH   1   9
BRANCH   2  16
ATOM     16  C   UNL     1       2.071   6.378  19.240  0.00  0.00    +0.000 C 
BRANCH  16  17
ATOM     17  C   UNL     1       1.830   4.997  19.807  0.00  0.00    +0.000 A 
ATOM     18  C   UNL     1       2.129   4.755  21.161  0.00  0.00    +0.000 A 
ATOM     19  C   UNL     1       2.003   3.477  21.705  0.00  0.00    +0.000 A 
ATOM     20  C   UNL     1       1.581   2.418  20.906  0.00  0.00    +0.000 A 
ATOM     21  C   UNL     1       1.270   2.644  19.565  0.00  0.00    +0.000 A 
ATOM     22  C   UNL     1       1.393   3.923  19.017  0.00  0.00    +0.000 A 
ATOM     23 CL   UNL     1       0.994   4.125  17.348  0.00  0.00    +0.000 Cl
ENDBRANCH  16  17
ENDBRANCH   2  16
TORSDOF 4
ENDMDL
MODEL 5
REMARK VINA RESULT:      -7.5      2.060      2.392
REMARK  Name = 
REMARK  5 active torsions:
REMARK  status: ('A' for Active; 'I' for Inactive)
REMARK    1  A    between atoms: C_1  and  N_2
REMARK    2  A    between atoms: C_3  and  C_5
REMARK    3  A    between atoms: C_9  and  N_10
REMARK    4  A    between atoms: C_11  and  C_13
REMARK    5  A    between atoms: C_13  and  C_14
REMARK                            x       y       z     vdW  Elec       q    Type
REMARK                         _______ _______ _______ _____ _____    ______ ____
ROOT
ATOM      1  N   UNL     1       5.954   3.999  16.958  0.00  0.00    +0.000 N 
ATOM      2  C   UNL     1       4.937   4.650  17.643  0.00  0.00    +0.000 C 
ATOM      3  O   UNL     1       4.176   5.496  17.177  0.00  0.00    +0.000 OA
ATOM      4  H   UNL     1       6.423   3.236  17.433  0.00  0.00    +0.000 HD
ENDROOT
BRANCH   1   9
ATOM      5  C   UNL     1       6.221   3.748  13.257  0.00  0.00    +0.000 A 
ATOM      6  C   UNL     1       7.152   4.753  12.972  0.00  0.00    +0.000 A 
ATOM      7  C   UNL     1       7.687   5.513  14.007  0.00  0.00    +0.000 A 
ATOM      8  C   UNL     1       7.294   5.276  15.326  0.00  0.00    +0.000 A 
ATOM      9  C   UNL     1       6.371   4.272  15.634  0.00  0.00    +0.000 A 
ATOM     10  C   UNL     1       5.854   3.490  14.591  0.00  0.00    +0.000 A 
BRANCH   5  13
ATOM     11  C   UNL     1       5.894   0.943  10.722  0.00  0.00    +0.000 C 
ATOM     12  N   UNL     1       6.364   1.818  11.766  0.00  0.00    +0.000 N 
ATOM     13  C   UNL     1       5.631   2.921  12.162  0.00  0.00    +0.000 C 
ATOM     14  O   UNL     1       4.564   3.242  11.651  0.00  0.00    +0.000 OA
ATOM     15  H   UNL     1       7.329   1.735  12.053  0.00  0.00    +0.000 HD
ENDBRANCH   5  13
ENDBRANCH   1   9
BRANCH   2  16
ATOM     16  C   UNL     1       4.798   4.237  19.103  0.00  0.00    +0.000 C 
BRANCH  16  17
ATOM     17  C   UNL     1       3.360   3.932  19.453  0.00  0.00    +0.000 A 
ATOM     18  C   UNL     1       2.614   4.890  20.165  0.00  0.00    +0.000 A 
ATOM     19  C   UNL     1       1.311   4.619  20.582  0.00  0.00    +0.000 A 
ATOM     20  C   UNL     1       0.732   3.385  20.300  0.00  0.00    +0.000 A 
ATOM     21  C   UNL     1       1.453   2.428  19.586  0.00  0.00    +0.000 A 
ATOM     22  C   UNL     1       2.758   2.698  19.163  0.00  0.00    +0.000 A 
ATOM     23 CL   UNL     1       3.591   1.463  18.287  0.00  0.00    +0.000 Cl
ENDBRANCH  16  17
ENDBRANCH   2  16
TORSDOF 4
ENDMDL
MODEL 6
REMARK VINA RESULT:      -7.2      2.016      2.377
REMARK  Name = 
REMARK  5 active torsions:
REMARK  status: ('A' for Active; 'I' for Inactive)
REMARK    1  A    between atoms: C_1  and  N_2
REMARK    2  A    between atoms: C_3  and  C_5
REMARK    3  A    between atoms: C_9  and  N_10
REMARK    4  A    between atoms: C_11  and  C_13
REMARK    5  A    between atoms: C_13  and  C_14
REMARK                            x       y       z     vdW  Elec       q    Type
REMARK                         _______ _______ _______ _____ _____    ______ ____
ROOT
ATOM      1  N   UNL     1       5.649   4.017  16.492  0.00  0.00    +0.000 N 
ATOM      2  C   UNL     1       5.270   5.049  17.340  0.00  0.00    +0.000 C 
ATOM      3  O   UNL     1       5.200   6.240  17.044  0.00  0.00    +0.000 OA
ATOM      4  H   UNL     1       5.545   3.069  16.835  0.00  0.00    +0.000 HD
ENDROOT
BRANCH   1   9
ATOM      5  C   UNL     1       5.882   3.647  12.798  0.00  0.00    +0.000 A 
ATOM      6  C   UNL     1       7.025   4.402  12.510  0.00  0.00    +0.000 A 
ATOM      7  C   UNL     1       7.713   5.034  13.540  0.00  0.00    +0.000 A 
ATOM      8  C   UNL     1       7.264   4.917  14.857  0.00  0.00    +0.000 A 
ATOM      9  C   UNL     1       6.130   4.162  15.169  0.00  0.00    +0.000 A 
ATOM     10  C   UNL     1       5.454   3.505  14.131  0.00  0.00    +0.000 A 
BRANCH   5  13
ATOM     11  C   UNL     1       3.206   3.067  10.171  0.00  0.00    +0.000 C 
ATOM     12  N   UNL     1       4.013   3.626  11.225  0.00  0.00    +0.000 N 
ATOM     13  C   UNL     1       5.125   2.962  11.709  0.00  0.00    +0.000 C 
ATOM     14  O   UNL     1       5.484   1.863  11.302  0.00  0.00    +0.000 OA
ATOM     15  H   UNL     1       3.634   4.405  11.747  0.00  0.00    +0.000 HD
ENDBRANCH   5  13
ENDBRANCH   1   9
BRANCH   2  16
ATOM     16  C   UNL     1       4.921   4.604  18.754  0.00  0.00    +0.000 C 
BRANCH  16  17
ATOM     17  C   UNL     1       3.589   3.890  18.791  0.00  0.00    +0.000 A 
ATOM     18  C   UNL     1       2.507   4.429  18.071  0.00  0.00    +0.000 A 
ATOM     19  C   UNL     1       1.239   3.851  18.144  0.00  0.00    +0.000 A 
ATOM     20  C   UNL     1       1.030   2.729  18.940  0.00  0.00    +0.000 A 
ATOM     21  C   UNL     1       2.094   2.176  19.652  0.00  0.00    +0.000 A 
ATOM     22  C   UNL     1       3.366   2.750  19.579  0.00  0.00    +0.000 A 
ATOM     23 CL   UNL     1       4.635   2.013  20.491  0.00  0.00    +0.000 Cl
ENDBRANCH  16  17
ENDBRANCH   2  16
TORSDOF 4
ENDMDL
MODEL 7
REMARK VINA RESULT:      -7.1      1.537      1.639
REMARK  Name = 
REMARK  5 active torsions:
REMARK  status: ('A' for Active; 'I' for Inactive)
REMARK    1  A    between atoms: C_1  and  N_2
REMARK    2  A    between atoms: C_3  and  C_5
REMARK    3  A    between atoms: C_9  and  N_10
REMARK    4  A    between atoms: C_11  and  C_13
REMARK    5  A    between atoms: C_13  and  C_14
REMARK                            x       y       z     vdW  Elec       q    Type
REMARK                         _______ _______ _______ _____ _____    ______ ____
ROOT
ATOM      1  N   UNL     1       6.096   4.756  16.103  0.00  0.00    +0.000 N 
ATOM      2  C   UNL     1       5.416   5.825  16.670  0.00  0.00    +0.000 C 
ATOM      3  O   UNL     1       4.956   6.792  16.067  0.00  0.00    +0.000 OA
ATOM      4  H   UNL     1       6.312   3.968  16.703  0.00  0.00    +0.000 HD
ENDROOT
BRANCH   1   9
ATOM      5  C   UNL     1       6.033   3.736  12.526  0.00  0.00    +0.000 A 
ATOM      6  C   UNL     1       7.182   4.365  12.034  0.00  0.00    +0.000 A 
ATOM      7  C   UNL     1       7.973   5.127  12.886  0.00  0.00    +0.000 A 
ATOM      8  C   UNL     1       7.621   5.267  14.230  0.00  0.00    +0.000 A 
ATOM      9  C   UNL     1       6.481   4.642  14.746  0.00  0.00    +0.000 A 
ATOM     10  C   UNL     1       5.701   3.852  13.889  0.00  0.00    +0.000 A 
BRANCH   5  13
ATOM     11  C   UNL     1       3.110   2.838  10.281  0.00  0.00    +0.000 C 
ATOM     12  N   UNL     1       4.021   3.528  11.158  0.00  0.00    +0.000 N 
ATOM     13  C   UNL     1       5.167   2.916  11.629  0.00  0.00    +0.000 C 
ATOM     14  O   UNL     1       5.474   1.760  11.360  0.00  0.00    +0.000 OA
ATOM     15  H   UNL     1       3.702   4.384  11.591  0.00  0.00    +0.000 HD
ENDBRANCH   5  13
ENDBRANCH   1   9
BRANCH   2  16
ATOM     16  C   UNL     1       5.254   5.735  18.182  0.00  0.00    +0.000 C 
BRANCH  16  17
ATOM     17  C   UNL     1       4.111   4.821  18.559  0.00  0.00    +0.000 A 
ATOM     18  C   UNL     1       4.389   3.478  18.878  0.00  0.00    +0.000 A 
ATOM     19  C   UNL     1       3.358   2.578  19.150  0.00  0.00    +0.000 A 
ATOM     20  C   UNL     1       2.033   3.002  19.102  0.00  0.00    +0.000 A 
ATOM     21  C   UNL     1       1.741   4.331  18.798  0.00  0.00    +0.000 A 
ATOM     22  C   UNL     1       2.771   5.236  18.529  0.00  0.00    +0.000 A 
ATOM     23 CL   UNL     1       2.333   6.866  18.156  0.00  0.00    +0.000 Cl
ENDBRANCH  16  17
ENDBRANCH   2  16
TORSDOF 4
ENDMDL
MODEL 8
REMARK VINA RESULT:      -7.1      2.162      2.730
REMARK  Name = 
REMARK  5 active torsions:
REMARK  status: ('A' for Active; 'I' for Inactive)
REMARK    1  A    between atoms: C_1  and  N_2
REMARK    2  A    between atoms: C_3  and  C_5
REMARK    3  A    between atoms: C_9  and  N_10
REMARK    4  A    between atoms: C_11  and  C_13
REMARK    5  A    between atoms: C_13  and  C_14
REMARK                            x       y       z     vdW  Elec       q    Type
REMARK                         _______ _______ _______ _____ _____    ______ ____
ROOT
ATOM      1  N   UNL     1       4.228   5.790  17.037  0.00  0.00    +0.000 N 
ATOM      2  C   UNL     1       4.280   5.720  18.423  0.00  0.00    +0.000 C 
ATOM      3  O   UNL     1       5.254   5.387  19.095  0.00  0.00    +0.000 OA
ATOM      4  H   UNL     1       3.399   6.198  16.621  0.00  0.00    +0.000 HD
ENDROOT
BRANCH   1   9
ATOM      5  C   UNL     1       5.878   4.244  14.083  0.00  0.00    +0.000 A 
ATOM      6  C   UNL     1       7.224   4.540  14.325  0.00  0.00    +0.000 A 
ATOM      7  C   UNL     1       7.582   5.253  15.464  0.00  0.00    +0.000 A 
ATOM      8  C   UNL     1       6.600   5.675  16.363  0.00  0.00    +0.000 A 
ATOM      9  C   UNL     1       5.250   5.385  16.146  0.00  0.00    +0.000 A 
ATOM     10  C   UNL     1       4.896   4.642  15.010  0.00  0.00    +0.000 A 
BRANCH   5  13
ATOM     11  C   UNL     1       6.115   1.792  11.197  0.00  0.00    +0.000 C 
ATOM     12  N   UNL     1       6.397   2.588  12.365  0.00  0.00    +0.000 N 
ATOM     13  C   UNL     1       5.470   3.482  12.866  0.00  0.00    +0.000 C 
ATOM     14  O   UNL     1       4.375   3.677  12.352  0.00  0.00    +0.000 OA
ATOM     15  H   UNL     1       7.356   2.636  12.683  0.00  0.00    +0.000 HD
ENDBRANCH   5  13
ENDBRANCH   1   9
BRANCH   2  16
ATOM     16  C   UNL     1       2.981   6.103  19.119  0.00  0.00    +0.000 C 
BRANCH  16  17
ATOM     17  C   UNL     1       2.315   4.896  19.741  0.00  0.00    +0.000 A 
ATOM     18  C   UNL     1       2.538   4.622  21.104  0.00  0.00    +0.000 A 
ATOM     19  C   UNL     1       2.014   3.474  21.699  0.00  0.00    +0.000 A 
ATOM     20  C   UNL     1       1.262   2.580  20.943  0.00  0.00    +0.000 A 
ATOM     21  C   UNL     1       1.023   2.842  19.594  0.00  0.00    +0.000 A 
ATOM     22  C   UNL     1       1.544   3.992  18.996  0.00  0.00    +0.000 A 
ATOM     23 CL   UNL     1       1.210   4.248  17.320  0.00  0.00    +0.000 Cl
ENDBRANCH  16  17
ENDBRANCH   2  16
TORSDOF 4
ENDMDL
MODEL 9
REMARK VINA RESULT:      -7.1      1.610      2.089
REMARK  Name = 
REMARK  5 active torsions:
REMARK  status: ('A' for Active; 'I' for Inactive)
REMARK    1  A    between atoms: C_1  and  N_2
REMARK    2  A    between atoms: C_3  and  C_5
REMARK    3  A    between atoms: C_9  and  N_10
REMARK    4  A    between atoms: C_11  and  C_13
REMARK    5  A    between atoms: C_13  and  C_14
REMARK                            x       y       z     vdW  Elec       q    Type
REMARK                         _______ _______ _______ _____ _____    ______ ____
ROOT
ATOM      1  N   UNL     1       6.057   4.819  16.108  0.00  0.00    +0.000 N 
ATOM      2  C   UNL     1       6.845   4.552  17.219  0.00  0.00    +0.000 C 
ATOM      3  O   UNL     1       8.036   4.246  17.205  0.00  0.00    +0.000 OA
ATOM      4  H   UNL     1       5.124   5.178  16.273  0.00  0.00    +0.000 HD
ENDROOT
BRANCH   1   9
ATOM      5  C   UNL     1       6.005   3.747  12.546  0.00  0.00    +0.000 A 
ATOM      6  C   UNL     1       7.169   4.349  12.054  0.00  0.00    +0.000 A 
ATOM      7  C   UNL     1       7.967   5.110  12.902  0.00  0.00    +0.000 A 
ATOM      8  C   UNL     1       7.605   5.275  14.240  0.00  0.00    +0.000 A 
ATOM      9  C   UNL     1       6.451   4.678  14.756  0.00  0.00    +0.000 A 
ATOM     10  C   UNL     1       5.664   3.889  13.904  0.00  0.00    +0.000 A 
BRANCH   5  13
ATOM     11  C   UNL     1       3.105   2.878  10.259  0.00  0.00    +0.000 C 
ATOM     12  N   UNL     1       4.019   3.564  11.137  0.00  0.00    +0.000 N 
ATOM     13  C   UNL     1       5.132   2.929  11.654  0.00  0.00    +0.000 C 
ATOM     14  O   UNL     1       5.405   1.755  11.428  0.00  0.00    +0.000 OA
ATOM     15  H   UNL     1       3.720   4.444  11.535  0.00  0.00    +0.000 HD
ENDBRANCH   5  13
ENDBRANCH   1   9
BRANCH   2  16
ATOM     16  C   UNL     1       6.113   4.664  18.550  0.00  0.00    +0.000 C 
BRANCH  16  17
ATOM     17  C   UNL     1       4.682   5.109  18.353  0.00  0.00    +0.000 A 
ATOM     18  C   UNL     1       4.407   6.484  18.235  0.00  0.00    +0.000 A 
ATOM     19  C   UNL     1       3.093   6.946  18.137  0.00  0.00    +0.000 A 
ATOM     20  C   UNL     1       2.034   6.043  18.159  0.00  0.00    +0.000 A 
ATOM     21  C   UNL     1       2.291   4.677  18.265  0.00  0.00    +0.000 A 
ATOM     22  C   UNL     1       3.604   4.210  18.361  0.00  0.00    +0.000 A 
ATOM     23 CL   UNL     1       3.845   2.504  18.493  0.00  0.00    +0.000 Cl
ENDBRANCH  16  17
ENDBRANCH   2  16
TORSDOF 4
ENDMDL
