MODEL 1
REMARK VINA RESULT:      -8.1      0.000      0.000
REMARK  Name = 
REMARK  6 active torsions:
REMARK  status: ('A' for Active; 'I' for Inactive)
REMARK    1  A    between atoms: C_1  and  C_2
REMARK    2  A    between atoms: C_2  and  N_3
REMARK    3  A    between atoms: C_9  and  C_10
REMARK    4  A    between atoms: N_12  and  C_13
REMARK    5  A    between atoms: C_16  and  O_17
REMARK    6  A    between atoms: C_19  and  C_20
REMARK                            x       y       z     vdW  Elec       q    Type
REMARK                         _______ _______ _______ _____ _____    ______ ____
ROOT
ATOM      1  N   UNL     1      -0.662  11.820  21.727  0.00  0.00    +0.000 N 
ATOM      2  C   UNL     1      -0.624  12.084  20.385  0.00  0.00    +0.000 C 
ATOM      3  O   UNL     1      -1.097  13.014  19.764  0.00  0.00    +0.000 OA
ATOM      4  C   UNL     1       0.139  10.991  19.770  0.00  0.00    +0.000 A 
ATOM      5  C   UNL     1       0.457  10.739  18.446  0.00  0.00    +0.000 A 
ATOM      6  C   UNL     1       1.196   9.577  18.163  0.00  0.00    +0.000 A 
ATOM      7  C   UNL     1       1.587   8.705  19.205  0.00  0.00    +0.000 A 
ATOM      8  C   UNL     1       1.255   8.989  20.540  0.00  0.00    +0.000 A 
ATOM      9  C   UNL     1       0.535  10.140  20.785  0.00  0.00    +0.000 A 
ATOM     10  C   UNL     1       0.035  10.687  22.045  0.00  0.00    +0.000 C 
ATOM     11  O   UNL     1       0.247  10.194  23.134  0.00  0.00    +0.000 OA
ENDROOT
BRANCH   7  12
ATOM     12  C   UNL     1       2.264   7.412  18.926  0.00  0.00    +0.000 C 
ATOM     13  O   UNL     1       2.423   7.093  17.752  0.00  0.00    +0.000 OA
ATOM     14  N   UNL     1       2.583   6.628  20.024  0.00  0.00    +0.000 N 
ATOM     15  H   UNL     1       2.064   6.800  20.874  0.00  0.00    +0.000 HD
BRANCH  14  16
ATOM     16  C   UNL     1       3.173   5.350  19.874  0.00  0.00    +0.000 A 
ATOM     17  C   UNL     1       4.487   5.233  19.395  0.00  0.00    +0.000 A 
ATOM     18  C   UNL     1       5.099   3.981  19.278  0.00  0.00    +0.000 A 
ATOM     19  C   UNL     1       4.388   2.843  19.633  0.00  0.00    +0.000 A 
ATOM     20  C   UNL     1       3.078   2.938  20.091  0.00  0.00    +0.000 A 
ATOM     21  C   UNL     1       2.452   4.191  20.214  0.00  0.00    +0.000 A 
ATOM     22  C   UNL     1       1.001   4.238  20.602  0.00  0.00    +0.000 C 
BRANCH  19  23
ATOM     23  O   UNL     1       4.938   1.599  19.537  0.00  0.00    +0.000 OA
ATOM     24  H   UNL     1       5.681   1.636  18.914  0.00  0.00    +0.000 HD
ENDBRANCH  19  23
ENDBRANCH  14  16
ENDBRANCH   7  12
BRANCH   1  26
ATOM     25  C   UNL     1      -2.654  12.118  23.148  0.00  0.00    +0.000 C 
ATOM     26  C   UNL     1      -1.304  12.668  22.717  0.00  0.00    +0.000 C 
ENDBRANCH   1  26
TORSDOF 4
ENDMDL
MODEL 2
REMARK VINA RESULT:      -7.8      1.174      1.281
REMARK  Name = 
REMARK  6 active torsions:
REMARK  status: ('A' for Active; 'I' for Inactive)
REMARK    1  A    between atoms: C_1  and  C_2
REMARK    2  A    between atoms: C_2  and  N_3
REMARK    3  A    between atoms: C_9  and  C_10
REMARK    4  A    between atoms: N_12  and  C_13
REMARK    5  A    between atoms: C_16  and  O_17
REMARK    6  A    between atoms: C_19  and  C_20
REMARK                            x       y       z     vdW  Elec       q    Type
REMARK                         _______ _______ _______ _____ _____    ______ ____
ROOT
ATOM      1  N   UNL     1      -0.286  11.390  21.612  0.00  0.00    +0.000 N 
ATOM      2  C   UNL     1      -0.305  11.569  20.256  0.00  0.00    +0.000 C 
ATOM      3  O   UNL     1      -0.813  12.453  19.598  0.00  0.00    +0.000 OA
ATOM      4  C   UNL     1       0.444  10.446  19.679  0.00  0.00    +0.000 A 
ATOM      5  C   UNL     1       0.711  10.113  18.362  0.00  0.00    +0.000 A 
ATOM      6  C   UNL     1       1.452   8.942  18.123  0.00  0.00    +0.000 A 
ATOM      7  C   UNL     1       1.894   8.141  19.201  0.00  0.00    +0.000 A 
ATOM      8  C   UNL     1       1.614   8.506  20.528  0.00  0.00    +0.000 A 
ATOM      9  C   UNL     1       0.891   9.664  20.729  0.00  0.00    +0.000 A 
ATOM     10  C   UNL     1       0.436  10.285  21.972  0.00  0.00    +0.000 C 
ATOM     11  O   UNL     1       0.698   9.864  23.080  0.00  0.00    +0.000 OA
ENDROOT
BRANCH   7  12
ATOM     12  C   UNL     1       2.575   6.839  18.976  0.00  0.00    +0.000 C 
ATOM     13  O   UNL     1       3.704   6.862  18.499  0.00  0.00    +0.000 OA
ATOM     14  N   UNL     1       1.836   5.698  19.243  0.00  0.00    +0.000 N 
ATOM     15  H   UNL     1       0.829   5.795  19.244  0.00  0.00    +0.000 HD
BRANCH  14  16
ATOM     16  C   UNL     1       2.360   4.404  19.005  0.00  0.00    +0.000 A 
ATOM     17  C   UNL     1       2.554   3.954  17.690  0.00  0.00    +0.000 A 
ATOM     18  C   UNL     1       3.107   2.695  17.437  0.00  0.00    +0.000 A 
ATOM     19  C   UNL     1       3.457   1.881  18.505  0.00  0.00    +0.000 A 
ATOM     20  C   UNL     1       3.253   2.302  19.815  0.00  0.00    +0.000 A 
ATOM     21  C   UNL     1       2.699   3.566  20.083  0.00  0.00    +0.000 A 
ATOM     22  C   UNL     1       2.390   3.933  21.508  0.00  0.00    +0.000 C 
BRANCH  19  23
ATOM     23  O   UNL     1       3.998   0.645  18.313  0.00  0.00    +0.000 OA
ATOM     24  H   UNL     1       3.387   0.119  17.772  0.00  0.00    +0.000 HD
ENDBRANCH  19  23
ENDBRANCH  14  16
ENDBRANCH   7  12
BRANCH   1  26
ATOM     25  C   UNL     1      -2.236  11.775  23.069  0.00  0.00    +0.000 C 
ATOM     26  C   UNL     1      -0.896  12.293  22.572  0.00  0.00    +0.000 C 
ENDBRANCH   1  26
TORSDOF 4
ENDMDL
MODEL 3
REMARK VINA RESULT:      -7.8      1.828      2.575
REMARK  Name = 
REMARK  6 active torsions:
REMARK  status: ('A' for Active; 'I' for Inactive)
REMARK    1  A    between atoms: C_1  and  C_2
REMARK    2  A    between atoms: C_2  and  N_3
REMARK    3  A    between atoms: C_9  and  C_10
REMARK    4  A    between atoms: N_12  and  C_13
REMARK    5  A    between atoms: C_16  and  O_17
REMARK    6  A    between atoms: C_19  and  C_20
REMARK                            x       y       z     vdW  Elec       q    Type
REMARK                         _______ _______ _______ _____ _____    ______ ____
ROOT
ATOM      1  N   UNL     1      -1.160  12.002  21.182  0.00  0.00    +0.000 N 
ATOM      2  C   UNL     1      -0.773  11.114  22.148  0.00  0.00    +0.000 C 
ATOM      3  O   UNL     1      -1.018  11.106  23.337  0.00  0.00    +0.000 OA
ATOM      4  C   UNL     1       0.040  10.095  21.472  0.00  0.00    +0.000 A 
ATOM      5  C   UNL     1       0.705   8.988  21.969  0.00  0.00    +0.000 A 
ATOM      6  C   UNL     1       1.431   8.200  21.057  0.00  0.00    +0.000 A 
ATOM      7  C   UNL     1       1.473   8.545  19.687  0.00  0.00    +0.000 A 
ATOM      8  C   UNL     1       0.784   9.672  19.210  0.00  0.00    +0.000 A 
ATOM      9  C   UNL     1       0.076  10.421  20.128  0.00  0.00    +0.000 A 
ATOM     10  C   UNL     1      -0.713  11.637  19.942  0.00  0.00    +0.000 C 
ATOM     11  O   UNL     1      -0.913  12.162  18.866  0.00  0.00    +0.000 OA
ENDROOT
BRANCH   7  12
ATOM     12  C   UNL     1       2.326   7.802  18.723  0.00  0.00    +0.000 C 
ATOM     13  O   UNL     1       2.443   8.263  17.593  0.00  0.00    +0.000 OA
ATOM     14  N   UNL     1       2.847   6.594  19.158  0.00  0.00    +0.000 N 
ATOM     15  H   UNL     1       2.373   6.143  19.929  0.00  0.00    +0.000 HD
BRANCH  14  16
ATOM     16  C   UNL     1       3.620   5.771  18.304  0.00  0.00    +0.000 A 
ATOM     17  C   UNL     1       4.963   6.089  18.046  0.00  0.00    +0.000 A 
ATOM     18  C   UNL     1       5.752   5.266  17.236  0.00  0.00    +0.000 A 
ATOM     19  C   UNL     1       5.191   4.127  16.677  0.00  0.00    +0.000 A 
ATOM     20  C   UNL     1       3.857   3.806  16.905  0.00  0.00    +0.000 A 
ATOM     21  C   UNL     1       3.053   4.625  17.718  0.00  0.00    +0.000 A 
ATOM     22  C   UNL     1       1.590   4.304  17.844  0.00  0.00    +0.000 C 
BRANCH  19  23
ATOM     23  O   UNL     1       5.917   3.292  15.880  0.00  0.00    +0.000 OA
ATOM     24  H   UNL     1       5.381   2.506  15.684  0.00  0.00    +0.000 HD
ENDBRANCH  19  23
ENDBRANCH  14  16
ENDBRANCH   7  12
BRANCH   1  26
ATOM     25  C   UNL     1      -3.481  12.820  21.324  0.00  0.00    +0.000 C 
ATOM     26  C   UNL     1      -2.003  13.162  21.418  0.00  0.00    +0.000 C 
ENDBRANCH   1  26
TORSDOF 4
ENDMDL
MODEL 4
REMARK VINA RESULT:      -7.7      2.631      8.843
REMARK  Name = 
REMARK  6 active torsions:
REMARK  status: ('A' for Active; 'I' for Inactive)
REMARK    1  A    between atoms: C_1  and  C_2
REMARK    2  A    between atoms: C_2  and  N_3
REMARK    3  A    between atoms: C_9  and  C_10
REMARK    4  A    between atoms: N_12  and  C_13
REMARK    5  A    between atoms: C_16  and  O_17
REMARK    6  A    between atoms: C_19  and  C_20
REMARK                            x       y       z     vdW  Elec       q    Type
REMARK                         _______ _______ _______ _____ _____    ______ ____
ROOT
ATOM      1  N   UNL     1       5.265   4.740  16.183  0.00  0.00    +0.000 N 
ATOM      2  C   UNL     1       4.505   4.021  17.065  0.00  0.00    +0.000 C 
ATOM      3  O   UNL     1       4.462   2.822  17.253  0.00  0.00    +0.000 OA
ATOM      4  C   UNL     1       3.695   4.996  17.804  0.00  0.00    +0.000 A 
ATOM      5  C   UNL     1       2.738   4.820  18.789  0.00  0.00    +0.000 A 
ATOM      6  C   UNL     1       2.108   5.970  19.299  0.00  0.00    +0.000 A 
ATOM      7  C   UNL     1       2.449   7.251  18.807  0.00  0.00    +0.000 A 
ATOM      8  C   UNL     1       3.429   7.400  17.812  0.00  0.00    +0.000 A 
ATOM      9  C   UNL     1       4.032   6.253  17.337  0.00  0.00    +0.000 A 
ATOM     10  C   UNL     1       5.057   6.086  16.308  0.00  0.00    +0.000 C 
ATOM     11  O   UNL     1       5.595   7.006  15.727  0.00  0.00    +0.000 OA
ENDROOT
BRANCH   7  12
ATOM     12  C   UNL     1       1.720   8.471  19.241  0.00  0.00    +0.000 C 
ATOM     13  O   UNL     1       1.528   8.623  20.443  0.00  0.00    +0.000 OA
ATOM     14  N   UNL     1       1.236   9.295  18.237  0.00  0.00    +0.000 N 
ATOM     15  H   UNL     1       1.108   8.877  17.325  0.00  0.00    +0.000 HD
BRANCH  14  16
ATOM     16  C   UNL     1       0.472  10.450  18.532  0.00  0.00    +0.000 A 
ATOM     17  C   UNL     1      -0.896  10.334  18.824  0.00  0.00    +0.000 A 
ATOM     18  C   UNL     1      -1.657  11.459  19.155  0.00  0.00    +0.000 A 
ATOM     19  C   UNL     1      -1.047  12.705  19.184  0.00  0.00    +0.000 A 
ATOM     20  C   UNL     1       0.303  12.842  18.878  0.00  0.00    +0.000 A 
ATOM     21  C   UNL     1       1.080  11.719  18.544  0.00  0.00    +0.000 A 
ATOM     22  C   UNL     1       2.503  11.927  18.109  0.00  0.00    +0.000 C 
BRANCH  19  23
ATOM     23  O   UNL     1      -1.743  13.834  19.500  0.00  0.00    +0.000 OA
ATOM     24  H   UNL     1      -2.359  13.627  20.221  0.00  0.00    +0.000 HD
ENDBRANCH  19  23
ENDBRANCH  14  16
ENDBRANCH   7  12
BRANCH   1  26
ATOM     25  C   UNL     1       5.666   4.010  13.863  0.00  0.00    +0.000 C 
ATOM     26  C   UNL     1       6.232   4.163  15.266  0.00  0.00    +0.000 C 
ENDBRANCH   1  26
TORSDOF 4
ENDMDL
MODEL 5
REMARK VINA RESULT:      -7.7      2.442      8.691
REMARK  Name = 
REMARK  6 active torsions:
REMARK  status: ('A' for Active; 'I' for Inactive)
REMARK    1  A    between atoms: C_1  and  C_2
REMARK    2  A    between atoms: C_2  and  N_3
REMARK    3  A    between atoms: C_9  and  C_10
REMARK    4  A    between atoms: N_12  and  C_13
REMARK    5  A    between atoms: C_16  and  O_17
REMARK    6  A    between atoms: C_19  and  C_20
REMARK                            x       y       z     vdW  Elec       q    Type
REMARK                         _______ _______ _______ _____ _____    ______ ____
ROOT
ATOM      1  N   UNL     1       5.681   5.125  16.978  0.00  0.00    +0.000 N 
ATOM      2  C   UNL     1       5.115   4.784  18.176  0.00  0.00    +0.000 C 
ATOM      3  O   UNL     1       5.342   3.835  18.898  0.00  0.00    +0.000 OA
ATOM      4  C   UNL     1       4.123   5.824  18.476  0.00  0.00    +0.000 A 
ATOM      5  C   UNL     1       3.246   5.962  19.538  0.00  0.00    +0.000 A 
ATOM      6  C   UNL     1       2.387   7.076  19.533  0.00  0.00    +0.000 A 
ATOM      7  C   UNL     1       2.428   8.007  18.471  0.00  0.00    +0.000 A 
ATOM      8  C   UNL     1       3.333   7.845  17.409  0.00  0.00    +0.000 A 
ATOM      9  C   UNL     1       4.166   6.745  17.446  0.00  0.00    +0.000 A 
ATOM     10  C   UNL     1       5.183   6.303  16.494  0.00  0.00    +0.000 C 
ATOM     11  O   UNL     1       5.494   6.918  15.494  0.00  0.00    +0.000 OA
ENDROOT
BRANCH   7  12
ATOM     12  C   UNL     1       1.455   9.127  18.379  0.00  0.00    +0.000 C 
ATOM     13  O   UNL     1       1.673  10.005  17.551  0.00  0.00    +0.000 OA
ATOM     14  N   UNL     1       0.423   9.130  19.304  0.00  0.00    +0.000 N 
ATOM     15  H   UNL     1       0.569   8.601  20.154  0.00  0.00    +0.000 HD
BRANCH  14  16
ATOM     16  C   UNL     1      -0.526  10.180  19.351  0.00  0.00    +0.000 A 
ATOM     17  C   UNL     1      -1.539  10.257  18.383  0.00  0.00    +0.000 A 
ATOM     18  C   UNL     1      -2.507  11.265  18.436  0.00  0.00    +0.000 A 
ATOM     19  C   UNL     1      -2.454  12.202  19.458  0.00  0.00    +0.000 A 
ATOM     20  C   UNL     1      -1.446  12.153  20.415  0.00  0.00    +0.000 A 
ATOM     21  C   UNL     1      -0.467  11.145  20.373  0.00  0.00    +0.000 A 
ATOM     22  C   UNL     1       0.667  11.197  21.358  0.00  0.00    +0.000 C 
BRANCH  19  23
ATOM     23  O   UNL     1      -3.373  13.204  19.556  0.00  0.00    +0.000 OA
ATOM     24  H   UNL     1      -4.261  12.814  19.531  0.00  0.00    +0.000 HD
ENDBRANCH  19  23
ENDBRANCH  14  16
ENDBRANCH   7  12
BRANCH   1  26
ATOM     25  C   UNL     1       6.243   3.692  15.053  0.00  0.00    +0.000 C 
ATOM     26  C   UNL     1       6.736   4.373  16.320  0.00  0.00    +0.000 C 
ENDBRANCH   1  26
TORSDOF 4
ENDMDL
MODEL 6
REMARK VINA RESULT:      -7.7      1.235      1.304
REMARK  Name = 
REMARK  6 active torsions:
REMARK  status: ('A' for Active; 'I' for Inactive)
REMARK    1  A    between atoms: C_1  and  C_2
REMARK    2  A    between atoms: C_2  and  N_3
REMARK    3  A    between atoms: C_9  and  C_10
REMARK    4  A    between atoms: N_12  and  C_13
REMARK    5  A    between atoms: C_16  and  O_17
REMARK    6  A    between atoms: C_19  and  C_20
REMARK                            x       y       z     vdW  Elec       q    Type
REMARK                         _______ _______ _______ _____ _____    ______ ____
ROOT
ATOM      1  N   UNL     1      -0.240  11.169  21.702  0.00  0.00    +0.000 N 
ATOM      2  C   UNL     1      -0.192  11.472  20.369  0.00  0.00    +0.000 C 
ATOM      3  O   UNL     1      -0.658  12.421  19.772  0.00  0.00    +0.000 OA
ATOM      4  C   UNL     1       0.569  10.394  19.727  0.00  0.00    +0.000 A 
ATOM      5  C   UNL     1       0.894  10.179  18.398  0.00  0.00    +0.000 A 
ATOM      6  C   UNL     1       1.631   9.022  18.086  0.00  0.00    +0.000 A 
ATOM      7  C   UNL     1       2.011   8.118  19.105  0.00  0.00    +0.000 A 
ATOM      8  C   UNL     1       1.673   8.365  20.446  0.00  0.00    +0.000 A 
ATOM      9  C   UNL     1       0.956   9.512  20.720  0.00  0.00    +0.000 A 
ATOM     10  C   UNL     1       0.450  10.024  21.992  0.00  0.00    +0.000 C 
ATOM     11  O   UNL     1       0.654   9.500  23.067  0.00  0.00    +0.000 OA
ENDROOT
BRANCH   7  12
ATOM     12  C   UNL     1       2.685   6.831  18.793  0.00  0.00    +0.000 C 
ATOM     13  O   UNL     1       3.520   6.828  17.894  0.00  0.00    +0.000 OA
ATOM     14  N   UNL     1       2.247   5.716  19.489  0.00  0.00    +0.000 N 
ATOM     15  H   UNL     1       1.320   5.764  19.892  0.00  0.00    +0.000 HD
BRANCH  14  16
ATOM     16  C   UNL     1       2.772   4.427  19.228  0.00  0.00    +0.000 A 
ATOM     17  C   UNL     1       3.873   3.955  19.960  0.00  0.00    +0.000 A 
ATOM     18  C   UNL     1       4.381   2.670  19.743  0.00  0.00    +0.000 A 
ATOM     19  C   UNL     1       3.789   1.860  18.784  0.00  0.00    +0.000 A 
ATOM     20  C   UNL     1       2.711   2.319  18.035  0.00  0.00    +0.000 A 
ATOM     21  C   UNL     1       2.190   3.608  18.243  0.00  0.00    +0.000 A 
ATOM     22  C   UNL     1       1.101   4.103  17.335  0.00  0.00    +0.000 C 
BRANCH  19  23
ATOM     23  O   UNL     1       4.246   0.601  18.533  0.00  0.00    +0.000 OA
ATOM     24  H   UNL     1       5.202   0.644  18.370  0.00  0.00    +0.000 HD
ENDBRANCH  19  23
ENDBRANCH  14  16
ENDBRANCH   7  12
BRANCH   1  26
ATOM     25  C   UNL     1      -2.397  11.998  22.560  0.00  0.00    +0.000 C 
ATOM     26  C   UNL     1      -0.884  11.991  22.712  0.00  0.00    +0.000 C 
ENDBRANCH   1  26
TORSDOF 4
ENDMDL
MODEL 7
REMARK VINA RESULT:      -7.7      2.474      8.713
REMARK  Name = 
REMARK  6 active torsions:
REMARK  status: ('A' for Active; 'I' for Inactive)
REMARK    1  A    between atoms: C_1  and  C_2
REMARK    2  A    between atoms: C_2  and  N_3
REMARK    3  A    between atoms: C_9  and  C_10
REMARK    4  A    between atoms: N_12  and  C_13
REMARK    5  A    between atoms: C_16  and  O_17
REMARK    6  A    between atoms: C_19  and  C_20
REMARK                            x       y       z     vdW  Elec       q    Type
REMARK                         _______ _______ _______ _____ _____    ______ ____
ROOT
ATOM      1  N   UNL     1       5.288   4.944  16.688  0.00  0.00    +0.000 N 
ATOM      2  C   UNL     1       4.603   4.518  17.793  0.00  0.00    +0.000 C 
ATOM      3  O   UNL     1       4.640   3.446  18.362  0.00  0.00    +0.000 OA
ATOM      4  C   UNL     1       3.761   5.642  18.218  0.00  0.00    +0.000 A 
ATOM      5  C   UNL     1       2.850   5.753  19.254  0.00  0.00    +0.000 A 
ATOM      6  C   UNL     1       2.169   6.975  19.396  0.00  0.00    +0.000 A 
ATOM      7  C   UNL     1       2.414   8.040  18.498  0.00  0.00    +0.000 A 
ATOM      8  C   UNL     1       3.349   7.901  17.459  0.00  0.00    +0.000 A 
ATOM      9  C   UNL     1       4.005   6.692  17.351  0.00  0.00    +0.000 A 
ATOM     10  C   UNL     1       5.002   6.246  16.380  0.00  0.00    +0.000 C 
ATOM     11  O   UNL     1       5.463   6.949  15.505  0.00  0.00    +0.000 OA
ENDROOT
BRANCH   7  12
ATOM     12  C   UNL     1       1.627   9.299  18.550  0.00  0.00    +0.000 C 
ATOM     13  O   UNL     1       2.097  10.289  17.999  0.00  0.00    +0.000 OA
ATOM     14  N   UNL     1       0.460   9.272  19.298  0.00  0.00    +0.000 N 
ATOM     15  H   UNL     1       0.387   8.552  20.005  0.00  0.00    +0.000 HD
BRANCH  14  16
ATOM     16  C   UNL     1      -0.337  10.429  19.470  0.00  0.00    +0.000 A 
ATOM     17  C   UNL     1      -0.145  11.256  20.588  0.00  0.00    +0.000 A 
ATOM     18  C   UNL     1      -0.897  12.424  20.753  0.00  0.00    +0.000 A 
ATOM     19  C   UNL     1      -1.848  12.759  19.800  0.00  0.00    +0.000 A 
ATOM     20  C   UNL     1      -2.065  11.942  18.696  0.00  0.00    +0.000 A 
ATOM     21  C   UNL     1      -1.316  10.765  18.517  0.00  0.00    +0.000 A 
ATOM     22  C   UNL     1      -1.663   9.855  17.373  0.00  0.00    +0.000 C 
BRANCH  19  23
ATOM     23  O   UNL     1      -2.607  13.886  19.914  0.00  0.00    +0.000 OA
ATOM     24  H   UNL     1      -2.948  14.120  19.036  0.00  0.00    +0.000 HD
ENDBRANCH  19  23
ENDBRANCH  14  16
ENDBRANCH   7  12
BRANCH   1  26
ATOM     25  C   UNL     1       5.819   3.888  14.525  0.00  0.00    +0.000 C 
ATOM     26  C   UNL     1       6.257   4.145  15.958  0.00  0.00    +0.000 C 
ENDBRANCH   1  26
TORSDOF 4
ENDMDL
MODEL 8
REMARK VINA RESULT:      -7.7      2.665      8.770
REMARK  Name = 
REMARK  6 active torsions:
REMARK  status: ('A' for Active; 'I' for Inactive)
REMARK    1  A    between atoms: C_1  and  C_2
REMARK    2  A    between atoms: C_2  and  N_3
REMARK    3  A    between atoms: C_9  and  C_10
REMARK    4  A    between atoms: N_12  and  C_13
REMARK    5  A    between atoms: C_16  and  O_17
REMARK    6  A    between atoms: C_19  and  C_20
REMARK                            x       y       z     vdW  Elec       q    Type
REMARK                         _______ _______ _______ _____ _____    ______ ____
ROOT
ATOM      1  N   UNL     1       5.167   4.714  16.225  0.00  0.00    +0.000 N 
ATOM      2  C   UNL     1       4.357   4.045  17.102  0.00  0.00    +0.000 C 
ATOM      3  O   UNL     1       4.251   2.853  17.303  0.00  0.00    +0.000 OA
ATOM      4  C   UNL     1       3.584   5.069  17.815  0.00  0.00    +0.000 A 
ATOM      5  C   UNL     1       2.602   4.954  18.784  0.00  0.00    +0.000 A 
ATOM      6  C   UNL     1       2.022   6.140  19.269  0.00  0.00    +0.000 A 
ATOM      7  C   UNL     1       2.435   7.396  18.768  0.00  0.00    +0.000 A 
ATOM      8  C   UNL     1       3.438   7.483  17.789  0.00  0.00    +0.000 A 
ATOM      9  C   UNL     1       3.991   6.302  17.339  0.00  0.00    +0.000 A 
ATOM     10  C   UNL     1       5.024   6.071  16.330  0.00  0.00    +0.000 C 
ATOM     11  O   UNL     1       5.618   6.955  15.747  0.00  0.00    +0.000 OA
ENDROOT
BRANCH   7  12
ATOM     12  C   UNL     1       1.760   8.656  19.174  0.00  0.00    +0.000 C 
ATOM     13  O   UNL     1       1.342   8.734  20.324  0.00  0.00    +0.000 OA
ATOM     14  N   UNL     1       1.580   9.611  18.185  0.00  0.00    +0.000 N 
ATOM     15  H   UNL     1       1.602   9.286  17.228  0.00  0.00    +0.000 HD
BRANCH  14  16
ATOM     16  C   UNL     1       0.894  10.822  18.442  0.00  0.00    +0.000 A 
ATOM     17  C   UNL     1       1.576  11.911  19.007  0.00  0.00    +0.000 A 
ATOM     18  C   UNL     1       0.924  13.128  19.231  0.00  0.00    +0.000 A 
ATOM     19  C   UNL     1      -0.417  13.250  18.897  0.00  0.00    +0.000 A 
ATOM     20  C   UNL     1      -1.114  12.175  18.355  0.00  0.00    +0.000 A 
ATOM     21  C   UNL     1      -0.470  10.947  18.123  0.00  0.00    +0.000 A 
ATOM     22  C   UNL     1      -1.288   9.781  17.644  0.00  0.00    +0.000 C 
BRANCH  19  23
ATOM     23  O   UNL     1      -1.100  14.413  19.095  0.00  0.00    +0.000 OA
ATOM     24  H   UNL     1      -0.459  15.130  19.231  0.00  0.00    +0.000 HD
ENDBRANCH  19  23
ENDBRANCH  14  16
ENDBRANCH   7  12
BRANCH   1  26
ATOM     25  C   UNL     1       5.611   4.026  13.901  0.00  0.00    +0.000 C 
ATOM     26  C   UNL     1       6.120   4.078  15.332  0.00  0.00    +0.000 C 
ENDBRANCH   1  26
TORSDOF 4
ENDMDL
MODEL 9
REMARK VINA RESULT:      -7.6      1.391      1.923
REMARK  Name = 
REMARK  6 active torsions:
REMARK  status: ('A' for Active; 'I' for Inactive)
REMARK    1  A    between atoms: C_1  and  C_2
REMARK    2  A    between atoms: C_2  and  N_3
REMARK    3  A    between atoms: C_9  and  C_10
REMARK    4  A    between atoms: N_12  and  C_13
REMARK    5  A    between atoms: C_16  and  O_17
REMARK    6  A    between atoms: C_19  and  C_20
REMARK                            x       y       z     vdW  Elec       q    Type
REMARK                         _______ _______ _______ _____ _____    ______ ____
ROOT
ATOM      1  N   UNL     1      -0.434  11.684  21.797  0.00  0.00    +0.000 N 
ATOM      2  C   UNL     1       0.039  11.797  20.518  0.00  0.00    +0.000 C 
ATOM      3  O   UNL     1       0.019  12.749  19.766  0.00  0.00    +0.000 OA
ATOM      4  C   UNL     1       0.622  10.494  20.176  0.00  0.00    +0.000 A 
ATOM      5  C   UNL     1       1.211  10.042  19.007  0.00  0.00    +0.000 A 
ATOM      6  C   UNL     1       1.662   8.711  18.977  0.00  0.00    +0.000 A 
ATOM      7  C   UNL     1       1.506   7.876  20.108  0.00  0.00    +0.000 A 
ATOM      8  C   UNL     1       0.910   8.363  21.282  0.00  0.00    +0.000 A 
ATOM      9  C   UNL     1       0.483   9.676  21.282  0.00  0.00    +0.000 A 
ATOM     10  C   UNL     1      -0.178  10.450  22.330  0.00  0.00    +0.000 C 
ATOM     11  O   UNL     1      -0.411  10.030  23.444  0.00  0.00    +0.000 OA
ENDROOT
BRANCH   7  12
ATOM     12  C   UNL     1       1.866   6.434  20.067  0.00  0.00    +0.000 C 
ATOM     13  O   UNL     1       1.812   5.804  21.117  0.00  0.00    +0.000 OA
ATOM     14  N   UNL     1       2.320   5.942  18.854  0.00  0.00    +0.000 N 
ATOM     15  H   UNL     1       2.690   6.616  18.196  0.00  0.00    +0.000 HD
BRANCH  14  16
ATOM     16  C   UNL     1       2.750   4.600  18.714  0.00  0.00    +0.000 A 
ATOM     17  C   UNL     1       1.817   3.587  18.445  0.00  0.00    +0.000 A 
ATOM     18  C   UNL     1       2.229   2.263  18.266  0.00  0.00    +0.000 A 
ATOM     19  C   UNL     1       3.578   1.952  18.364  0.00  0.00    +0.000 A 
ATOM     20  C   UNL     1       4.514   2.940  18.649  0.00  0.00    +0.000 A 
ATOM     21  C   UNL     1       4.114   4.276  18.831  0.00  0.00    +0.000 A 
ATOM     22  C   UNL     1       5.143   5.288  19.250  0.00  0.00    +0.000 C 
BRANCH  19  23
ATOM     23  O   UNL     1       4.031   0.677  18.198  0.00  0.00    +0.000 OA
ATOM     24  H   UNL     1       4.314   0.566  17.276  0.00  0.00    +0.000 HD
ENDBRANCH  19  23
ENDBRANCH  14  16
ENDBRANCH   7  12
BRANCH   1  26
ATOM     25  C   UNL     1      -2.574  12.793  22.309  0.00  0.00    +0.000 C 
ATOM     26  C   UNL     1      -1.072  12.758  22.539  0.00  0.00    +0.000 C 
ENDBRANCH   1  26
TORSDOF 4
ENDMDL
