MODEL 1
REMARK VINA RESULT:      -7.5      0.000      0.000
REMARK  Name = 
REMARK  6 active torsions:
REMARK  status: ('A' for Active; 'I' for Inactive)
REMARK    1  A    between atoms: C_1  and  N_2
REMARK    2  A    between atoms: N_2  and  C_3
REMARK    3  A    between atoms: N_2  and  C_14
REMARK    4  A    between atoms: C_3  and  C_4
REMARK    5  A    between atoms: C_14  and  C_15
REMARK    6  A    between atoms: C_15  and  N_16
REMARK                            x       y       z     vdW  Elec       q    Type
REMARK                         _______ _______ _______ _____ _____    ______ ____
ROOT
ATOM      1  C   UNL     1       1.757   5.506  20.758  0.00  0.00    +0.000 C 
ATOM      2  N   UNL     1       2.384   5.996  19.530  0.00  0.00    +0.000 NA
ENDROOT
BRANCH   2   3
ATOM      3  C   UNL     1       2.776   7.420  19.665  0.00  0.00    +0.000 C 
BRANCH   3   4
ATOM      4  C   UNL     1       1.677   8.339  20.181  0.00  0.00    +0.000 A 
ATOM      5  C   UNL     1       0.925   9.060  19.323  0.00  0.00    +0.000 A 
ATOM      6  C   UNL     1      -0.103  10.005  19.840  0.00  0.00    +0.000 A 
ATOM      7  O   UNL     1      -0.800  10.704  19.120  0.00  0.00    +0.000 OA
ATOM      8  N   UNL     1      -0.182  10.049  21.235  0.00  0.00    +0.000 N 
ATOM      9  N   UNL     1      -1.016  10.850  21.947  0.00  0.00    +0.000 NA
ATOM     10  C   UNL     1      -0.679  10.528  23.199  0.00  0.00    +0.000 A 
ATOM     11  N   UNL     1       0.306   9.586  23.333  0.00  0.00    +0.000 NA
ATOM     12  C   UNL     1       0.596   9.297  22.090  0.00  0.00    +0.000 A 
ATOM     13  N   UNL     1       1.494   8.445  21.554  0.00  0.00    +0.000 N 
ATOM     14  H   UNL     1       2.148   7.943  22.150  0.00  0.00    +0.000 HD
ENDBRANCH   3   4
ENDBRANCH   2   3
BRANCH   2  15
ATOM     15  C   UNL     1       3.584   5.210  19.103  0.00  0.00    +0.000 C 
BRANCH  15  16
ATOM     16  C   UNL     1       3.634   4.300  17.786  0.00  0.00    +0.000 C 
ATOM     17  C   UNL     1       4.147   2.863  18.199  0.00  0.00    +0.000 C 
ATOM     18  C   UNL     1       3.247   2.046  19.122  0.00  0.00    +0.000 C 
ATOM     19  C   UNL     1       1.847   1.912  18.549  0.00  0.00    +0.000 C 
ATOM     20  C   UNL     1       1.273   3.280  18.203  0.00  0.00    +0.000 C 
ATOM     21  C   UNL     1       2.193   4.038  17.229  0.00  0.00    +0.000 C 
BRANCH  16  22
ATOM     22  N   UNL     1       4.493   4.801  16.651  0.00  0.00    +0.000 NA
ATOM     23  C   UNL     1       5.796   4.135  16.408  0.00  0.00    +0.000 C 
ATOM     24  C   UNL     1       6.893   4.600  17.369  0.00  0.00    +0.000 C 
ATOM     25  O   UNL     1       7.167   5.986  17.143  0.00  0.00    +0.000 OA
ATOM     26  C   UNL     1       5.985   6.777  17.331  0.00  0.00    +0.000 C 
ATOM     27  C   UNL     1       4.753   6.252  16.548  0.00  0.00    +0.000 C 
ENDBRANCH  16  22
ENDBRANCH  15  16
ENDBRANCH   2  15
TORSDOF 5
ENDMDL
MODEL 2
REMARK VINA RESULT:      -7.5      1.656      2.249
REMARK  Name = 
REMARK  6 active torsions:
REMARK  status: ('A' for Active; 'I' for Inactive)
REMARK    1  A    between atoms: C_1  and  N_2
REMARK    2  A    between atoms: N_2  and  C_3
REMARK    3  A    between atoms: N_2  and  C_14
REMARK    4  A    between atoms: C_3  and  C_4
REMARK    5  A    between atoms: C_14  and  C_15
REMARK    6  A    between atoms: C_15  and  N_16
REMARK                            x       y       z     vdW  Elec       q    Type
REMARK                         _______ _______ _______ _____ _____    ______ ____
ROOT
ATOM      1  C   UNL     1       2.764   7.436  18.014  0.00  0.00    +0.000 C 
ATOM      2  N   UNL     1       2.901   6.969  19.394  0.00  0.00    +0.000 NA
ENDROOT
BRANCH   2   3
ATOM      3  C   UNL     1       1.597   7.005  20.100  0.00  0.00    +0.000 C 
BRANCH   3   4
ATOM      4  C   UNL     1       1.226   8.362  20.685  0.00  0.00    +0.000 A 
ATOM      5  C   UNL     1       0.880   8.478  21.984  0.00  0.00    +0.000 A 
ATOM      6  C   UNL     1       0.454   9.797  22.531  0.00  0.00    +0.000 A 
ATOM      7  O   UNL     1       0.107   9.967  23.689  0.00  0.00    +0.000 OA
ATOM      8  N   UNL     1       0.457  10.829  21.588  0.00  0.00    +0.000 N 
ATOM      9  N   UNL     1       0.084  12.112  21.830  0.00  0.00    +0.000 NA
ATOM     10  C   UNL     1       0.244  12.661  20.622  0.00  0.00    +0.000 A 
ATOM     11  N   UNL     1       0.688  11.822  19.635  0.00  0.00    +0.000 NA
ATOM     12  C   UNL     1       0.821  10.684  20.265  0.00  0.00    +0.000 A 
ATOM     13  N   UNL     1       1.216   9.465  19.841  0.00  0.00    +0.000 N 
ATOM     14  H   UNL     1       1.402   9.297  18.855  0.00  0.00    +0.000 HD
ENDBRANCH   3   4
ENDBRANCH   2   3
BRANCH   2  15
ATOM     15  C   UNL     1       3.470   5.590  19.518  0.00  0.00    +0.000 C 
BRANCH  15  16
ATOM     16  C   UNL     1       4.328   4.871  18.372  0.00  0.00    +0.000 C 
ATOM     17  C   UNL     1       5.012   3.591  18.997  0.00  0.00    +0.000 C 
ATOM     18  C   UNL     1       4.087   2.469  19.459  0.00  0.00    +0.000 C 
ATOM     19  C   UNL     1       3.160   2.023  18.342  0.00  0.00    +0.000 C 
ATOM     20  C   UNL     1       2.415   3.214  17.752  0.00  0.00    +0.000 C 
ATOM     21  C   UNL     1       3.396   4.291  17.253  0.00  0.00    +0.000 C 
BRANCH  16  22
ATOM     22  N   UNL     1       5.398   5.702  17.707  0.00  0.00    +0.000 NA
ATOM     23  C   UNL     1       5.655   5.493  16.262  0.00  0.00    +0.000 C 
ATOM     24  C   UNL     1       6.517   4.259  15.981  0.00  0.00    +0.000 C 
ATOM     25  O   UNL     1       7.821   4.454  16.537  0.00  0.00    +0.000 OA
ATOM     26  C   UNL     1       7.743   4.684  17.951  0.00  0.00    +0.000 C 
ATOM     27  C   UNL     1       6.728   5.788  18.347  0.00  0.00    +0.000 C 
ENDBRANCH  16  22
ENDBRANCH  15  16
ENDBRANCH   2  15
TORSDOF 5
ENDMDL
MODEL 3
REMARK VINA RESULT:      -7.5      1.505      1.979
REMARK  Name = 
REMARK  6 active torsions:
REMARK  status: ('A' for Active; 'I' for Inactive)
REMARK    1  A    between atoms: C_1  and  N_2
REMARK    2  A    between atoms: N_2  and  C_3
REMARK    3  A    between atoms: N_2  and  C_14
REMARK    4  A    between atoms: C_3  and  C_4
REMARK    5  A    between atoms: C_14  and  C_15
REMARK    6  A    between atoms: C_15  and  N_16
REMARK                            x       y       z     vdW  Elec       q    Type
REMARK                         _______ _______ _______ _____ _____    ______ ____
ROOT
ATOM      1  C   UNL     1       0.939   4.441  20.451  0.00  0.00    +0.000 C 
ATOM      2  N   UNL     1       1.902   5.488  20.107  0.00  0.00    +0.000 NA
ENDROOT
BRANCH   2   3
ATOM      3  C   UNL     1       1.836   6.611  21.073  0.00  0.00    +0.000 C 
BRANCH   3   4
ATOM      4  C   UNL     1       1.569   7.975  20.450  0.00  0.00    +0.000 A 
ATOM      5  C   UNL     1       1.844   8.200  19.148  0.00  0.00    +0.000 A 
ATOM      6  C   UNL     1       1.643   9.556  18.565  0.00  0.00    +0.000 A 
ATOM      7  O   UNL     1       1.893   9.834  17.402  0.00  0.00    +0.000 OA
ATOM      8  N   UNL     1       1.166  10.501  19.477  0.00  0.00    +0.000 N 
ATOM      9  N   UNL     1       0.929  11.809  19.198  0.00  0.00    +0.000 NA
ATOM     10  C   UNL     1       0.524  12.259  20.390  0.00  0.00    +0.000 A 
ATOM     11  N   UNL     1       0.488  11.335  21.400  0.00  0.00    +0.000 NA
ATOM     12  C   UNL     1       0.887  10.242  20.804  0.00  0.00    +0.000 A 
ATOM     13  N   UNL     1       1.073   8.987  21.262  0.00  0.00    +0.000 N 
ATOM     14  H   UNL     1       0.968   8.779  22.252  0.00  0.00    +0.000 HD
ENDBRANCH   3   4
ENDBRANCH   2   3
BRANCH   2  15
ATOM     15  C   UNL     1       3.319   5.010  20.028  0.00  0.00    +0.000 C 
BRANCH  15  16
ATOM     16  C   UNL     1       4.117   4.801  18.655  0.00  0.00    +0.000 C 
ATOM     17  C   UNL     1       4.740   3.348  18.664  0.00  0.00    +0.000 C 
ATOM     18  C   UNL     1       3.762   2.176  18.651  0.00  0.00    +0.000 C 
ATOM     19  C   UNL     1       2.794   2.279  17.486  0.00  0.00    +0.000 C 
ATOM     20  C   UNL     1       2.106   3.638  17.474  0.00  0.00    +0.000 C 
ATOM     21  C   UNL     1       3.136   4.782  17.433  0.00  0.00    +0.000 C 
BRANCH  16  22
ATOM     22  N   UNL     1       5.220   5.787  18.358  0.00  0.00    +0.000 NA
ATOM     23  C   UNL     1       5.370   6.275  16.966  0.00  0.00    +0.000 C 
ATOM     24  C   UNL     1       6.094   5.277  16.058  0.00  0.00    +0.000 C 
ATOM     25  O   UNL     1       7.440   5.111  16.512  0.00  0.00    +0.000 OA
ATOM     26  C   UNL     1       7.468   4.646  17.868  0.00  0.00    +0.000 C 
ATOM     27  C   UNL     1       6.587   5.484  18.832  0.00  0.00    +0.000 C 
ENDBRANCH  16  22
ENDBRANCH  15  16
ENDBRANCH   2  15
TORSDOF 5
ENDMDL
MODEL 4
REMARK VINA RESULT:      -7.5      0.737      1.154
REMARK  Name = 
REMARK  6 active torsions:
REMARK  status: ('A' for Active; 'I' for Inactive)
REMARK    1  A    between atoms: C_1  and  N_2
REMARK    2  A    between atoms: N_2  and  C_3
REMARK    3  A    between atoms: N_2  and  C_14
REMARK    4  A    between atoms: C_3  and  C_4
REMARK    5  A    between atoms: C_14  and  C_15
REMARK    6  A    between atoms: C_15  and  N_16
REMARK                            x       y       z     vdW  Elec       q    Type
REMARK                         _______ _______ _______ _____ _____    ______ ____
ROOT
ATOM      1  C   UNL     1       1.454   5.718  20.739  0.00  0.00    +0.000 C 
ATOM      2  N   UNL     1       2.369   6.009  19.635  0.00  0.00    +0.000 NA
ENDROOT
BRANCH   2   3
ATOM      3  C   UNL     1       2.704   7.452  19.588  0.00  0.00    +0.000 C 
BRANCH   3   4
ATOM      4  C   UNL     1       1.619   8.378  20.122  0.00  0.00    +0.000 A 
ATOM      5  C   UNL     1       0.844   9.088  19.276  0.00  0.00    +0.000 A 
ATOM      6  C   UNL     1      -0.169  10.040  19.808  0.00  0.00    +0.000 A 
ATOM      7  O   UNL     1      -0.886  10.731  19.099  0.00  0.00    +0.000 OA
ATOM      8  N   UNL     1      -0.212  10.101  21.204  0.00  0.00    +0.000 N 
ATOM      9  N   UNL     1      -1.027  10.910  21.928  0.00  0.00    +0.000 NA
ATOM     10  C   UNL     1      -0.657  10.603  23.176  0.00  0.00    +0.000 A 
ATOM     11  N   UNL     1       0.331   9.662  23.294  0.00  0.00    +0.000 NA
ATOM     12  C   UNL     1       0.589   9.358  22.048  0.00  0.00    +0.000 A 
ATOM     13  N   UNL     1       1.472   8.499  21.499  0.00  0.00    +0.000 N 
ATOM     14  H   UNL     1       2.142   8.005  22.082  0.00  0.00    +0.000 HD
ENDBRANCH   3   4
ENDBRANCH   2   3
BRANCH   2  15
ATOM     15  C   UNL     1       3.643   5.224  19.677  0.00  0.00    +0.000 C 
BRANCH  15  16
ATOM     16  C   UNL     1       4.119   4.228  18.516  0.00  0.00    +0.000 C 
ATOM     17  C   UNL     1       4.063   2.753  19.079  0.00  0.00    +0.000 C 
ATOM     18  C   UNL     1       2.686   2.200  19.436  0.00  0.00    +0.000 C 
ATOM     19  C   UNL     1       1.730   2.304  18.261  0.00  0.00    +0.000 C 
ATOM     20  C   UNL     1       1.687   3.729  17.724  0.00  0.00    +0.000 C 
ATOM     21  C   UNL     1       3.093   4.217  17.331  0.00  0.00    +0.000 C 
BRANCH  16  22
ATOM     22  N   UNL     1       5.495   4.465  17.945  0.00  0.00    +0.000 NA
ATOM     23  C   UNL     1       6.130   5.787  18.164  0.00  0.00    +0.000 C 
ATOM     24  C   UNL     1       5.609   6.864  17.209  0.00  0.00    +0.000 C 
ATOM     25  O   UNL     1       5.973   6.527  15.868  0.00  0.00    +0.000 OA
ATOM     26  C   UNL     1       5.436   5.248  15.500  0.00  0.00    +0.000 C 
ATOM     27  C   UNL     1       5.740   4.126  16.527  0.00  0.00    +0.000 C 
ENDBRANCH  16  22
ENDBRANCH  15  16
ENDBRANCH   2  15
TORSDOF 5
ENDMDL
MODEL 5
REMARK VINA RESULT:      -7.4      2.481      4.052
REMARK  Name = 
REMARK  6 active torsions:
REMARK  status: ('A' for Active; 'I' for Inactive)
REMARK    1  A    between atoms: C_1  and  N_2
REMARK    2  A    between atoms: N_2  and  C_3
REMARK    3  A    between atoms: N_2  and  C_14
REMARK    4  A    between atoms: C_3  and  C_4
REMARK    5  A    between atoms: C_14  and  C_15
REMARK    6  A    between atoms: C_15  and  N_16
REMARK                            x       y       z     vdW  Elec       q    Type
REMARK                         _______ _______ _______ _____ _____    ______ ____
ROOT
ATOM      1  C   UNL     1       2.110   7.530  19.797  0.00  0.00    +0.000 C 
ATOM      2  N   UNL     1       2.290   7.607  18.347  0.00  0.00    +0.000 NA
ENDROOT
BRANCH   2   3
ATOM      3  C   UNL     1       2.328   9.018  17.890  0.00  0.00    +0.000 C 
BRANCH   3   4
ATOM      4  C   UNL     1       1.082   9.830  18.220  0.00  0.00    +0.000 A 
ATOM      5  C   UNL     1       1.102  10.744  19.213  0.00  0.00    +0.000 A 
ATOM      6  C   UNL     1      -0.139  11.485  19.572  0.00  0.00    +0.000 A 
ATOM      7  O   UNL     1      -0.197  12.308  20.473  0.00  0.00    +0.000 OA
ATOM      8  N   UNL     1      -1.252  11.134  18.803  0.00  0.00    +0.000 N 
ATOM      9  N   UNL     1      -2.501  11.645  18.954  0.00  0.00    +0.000 NA
ATOM     10  C   UNL     1      -3.173  10.972  18.015  0.00  0.00    +0.000 A 
ATOM     11  N   UNL     1      -2.443  10.074  17.282  0.00  0.00    +0.000 NA
ATOM     12  C   UNL     1      -1.243  10.199  17.789  0.00  0.00    +0.000 A 
ATOM     13  N   UNL     1      -0.080   9.579  17.502  0.00  0.00    +0.000 N 
ATOM     14  H   UNL     1      -0.053   8.818  16.827  0.00  0.00    +0.000 HD
ENDBRANCH   3   4
ENDBRANCH   2   3
BRANCH   2  15
ATOM     15  C   UNL     1       3.517   6.911  17.847  0.00  0.00    +0.000 C 
BRANCH  15  16
ATOM     16  C   UNL     1       3.882   5.389  18.185  0.00  0.00    +0.000 C 
ATOM     17  C   UNL     1       4.306   4.673  16.841  0.00  0.00    +0.000 C 
ATOM     18  C   UNL     1       5.582   5.169  16.166  0.00  0.00    +0.000 C 
ATOM     19  C   UNL     1       6.760   5.135  17.124  0.00  0.00    +0.000 C 
ATOM     20  C   UNL     1       6.431   5.879  18.411  0.00  0.00    +0.000 C 
ATOM     21  C   UNL     1       5.168   5.304  19.078  0.00  0.00    +0.000 C 
BRANCH  16  22
ATOM     22  N   UNL     1       2.801   4.564  18.839  0.00  0.00    +0.000 NA
ATOM     23  C   UNL     1       3.171   3.701  19.987  0.00  0.00    +0.000 C 
ATOM     24  C   UNL     1       3.834   2.390  19.558  0.00  0.00    +0.000 C 
ATOM     25  O   UNL     1       2.894   1.600  18.824  0.00  0.00    +0.000 OA
ATOM     26  C   UNL     1       2.424   2.310  17.669  0.00  0.00    +0.000 C 
ATOM     27  C   UNL     1       1.920   3.743  17.982  0.00  0.00    +0.000 C 
ENDBRANCH  16  22
ENDBRANCH  15  16
ENDBRANCH   2  15
TORSDOF 5
ENDMDL
MODEL 6
REMARK VINA RESULT:      -7.4      1.946      3.548
REMARK  Name = 
REMARK  6 active torsions:
REMARK  status: ('A' for Active; 'I' for Inactive)
REMARK    1  A    between atoms: C_1  and  N_2
REMARK    2  A    between atoms: N_2  and  C_3
REMARK    3  A    between atoms: N_2  and  C_14
REMARK    4  A    between atoms: C_3  and  C_4
REMARK    5  A    between atoms: C_14  and  C_15
REMARK    6  A    between atoms: C_15  and  N_16
REMARK                            x       y       z     vdW  Elec       q    Type
REMARK                         _______ _______ _______ _____ _____    ______ ____
ROOT
ATOM      1  C   UNL     1       1.578   5.749  18.042  0.00  0.00    +0.000 C 
ATOM      2  N   UNL     1       2.963   6.104  17.731  0.00  0.00    +0.000 NA
ENDROOT
BRANCH   2   3
ATOM      3  C   UNL     1       3.165   7.571  17.803  0.00  0.00    +0.000 C 
BRANCH   3   4
ATOM      4  C   UNL     1       2.104   8.323  18.597  0.00  0.00    +0.000 A 
ATOM      5  C   UNL     1       1.318   9.240  17.995  0.00  0.00    +0.000 A 
ATOM      6  C   UNL     1       0.329  10.018  18.792  0.00  0.00    +0.000 A 
ATOM      7  O   UNL     1      -0.396  10.878  18.316  0.00  0.00    +0.000 OA
ATOM      8  N   UNL     1       0.322   9.698  20.153  0.00  0.00    +0.000 N 
ATOM      9  N   UNL     1      -0.465  10.286  21.091  0.00  0.00    +0.000 NA
ATOM     10  C   UNL     1      -0.068   9.650  22.198  0.00  0.00    +0.000 A 
ATOM     11  N   UNL     1       0.911   8.708  22.031  0.00  0.00    +0.000 NA
ATOM     12  C   UNL     1       1.134   8.752  20.743  0.00  0.00    +0.000 A 
ATOM     13  N   UNL     1       1.993   8.069  19.958  0.00  0.00    +0.000 N 
ATOM     14  H   UNL     1       2.671   7.431  20.368  0.00  0.00    +0.000 HD
ENDBRANCH   3   4
ENDBRANCH   2   3
BRANCH   2  15
ATOM     15  C   UNL     1       3.975   5.440  18.612  0.00  0.00    +0.000 C 
BRANCH  15  16
ATOM     16  C   UNL     1       4.881   4.200  18.158  0.00  0.00    +0.000 C 
ATOM     17  C   UNL     1       4.815   4.093  16.582  0.00  0.00    +0.000 C 
ATOM     18  C   UNL     1       5.420   5.245  15.785  0.00  0.00    +0.000 C 
ATOM     19  C   UNL     1       6.861   5.499  16.191  0.00  0.00    +0.000 C 
ATOM     20  C   UNL     1       6.972   5.686  17.699  0.00  0.00    +0.000 C 
ATOM     21  C   UNL     1       6.396   4.474  18.453  0.00  0.00    +0.000 C 
BRANCH  16  22
ATOM     22  N   UNL     1       4.524   2.854  18.739  0.00  0.00    +0.000 NA
ATOM     23  C   UNL     1       3.634   1.963  17.956  0.00  0.00    +0.000 C 
ATOM     24  C   UNL     1       2.156   2.343  18.074  0.00  0.00    +0.000 C 
ATOM     25  O   UNL     1       1.724   2.159  19.425  0.00  0.00    +0.000 OA
ATOM     26  C   UNL     1       2.507   2.958  20.324  0.00  0.00    +0.000 C 
ATOM     27  C   UNL     1       4.037   2.791  20.133  0.00  0.00    +0.000 C 
ENDBRANCH  16  22
ENDBRANCH  15  16
ENDBRANCH   2  15
TORSDOF 5
ENDMDL
MODEL 7
REMARK VINA RESULT:      -7.4      0.834      1.119
REMARK  Name = 
REMARK  6 active torsions:
REMARK  status: ('A' for Active; 'I' for Inactive)
REMARK    1  A    between atoms: C_1  and  N_2
REMARK    2  A    between atoms: N_2  and  C_3
REMARK    3  A    between atoms: N_2  and  C_14
REMARK    4  A    between atoms: C_3  and  C_4
REMARK    5  A    between atoms: C_14  and  C_15
REMARK    6  A    between atoms: C_15  and  N_16
REMARK                            x       y       z     vdW  Elec       q    Type
REMARK                         _______ _______ _______ _____ _____    ______ ____
ROOT
ATOM      1  C   UNL     1       1.216   5.871  20.669  0.00  0.00    +0.000 C 
ATOM      2  N   UNL     1       2.188   6.184  19.621  0.00  0.00    +0.000 NA
ENDROOT
BRANCH   2   3
ATOM      3  C   UNL     1       2.539   7.625  19.634  0.00  0.00    +0.000 C 
BRANCH   3   4
ATOM      4  C   UNL     1       1.441   8.544  20.154  0.00  0.00    +0.000 A 
ATOM      5  C   UNL     1       0.654   9.227  19.297  0.00  0.00    +0.000 A 
ATOM      6  C   UNL     1      -0.372  10.174  19.815  0.00  0.00    +0.000 A 
ATOM      7  O   UNL     1      -1.101  10.840  19.096  0.00  0.00    +0.000 OA
ATOM      8  N   UNL     1      -0.411  10.260  21.210  0.00  0.00    +0.000 N 
ATOM      9  N   UNL     1      -1.236  11.071  21.922  0.00  0.00    +0.000 NA
ATOM     10  C   UNL     1      -0.856  10.793  23.173  0.00  0.00    +0.000 A 
ATOM     11  N   UNL     1       0.146   9.869  23.305  0.00  0.00    +0.000 NA
ATOM     12  C   UNL     1       0.404   9.546  22.065  0.00  0.00    +0.000 A 
ATOM     13  N   UNL     1       1.297   8.690  21.528  0.00  0.00    +0.000 N 
ATOM     14  H   UNL     1       1.977   8.216  22.119  0.00  0.00    +0.000 HD
ENDBRANCH   3   4
ENDBRANCH   2   3
BRANCH   2  15
ATOM     15  C   UNL     1       3.452   5.386  19.704  0.00  0.00    +0.000 C 
BRANCH  15  16
ATOM     16  C   UNL     1       4.200   4.761  18.433  0.00  0.00    +0.000 C 
ATOM     17  C   UNL     1       4.933   3.438  18.893  0.00  0.00    +0.000 C 
ATOM     18  C   UNL     1       4.049   2.281  19.349  0.00  0.00    +0.000 C 
ATOM     19  C   UNL     1       3.023   1.920  18.290  0.00  0.00    +0.000 C 
ATOM     20  C   UNL     1       2.233   3.150  17.862  0.00  0.00    +0.000 C 
ATOM     21  C   UNL     1       3.169   4.265  17.362  0.00  0.00    +0.000 C 
BRANCH  16  22
ATOM     22  N   UNL     1       5.209   5.644  17.741  0.00  0.00    +0.000 NA
ATOM     23  C   UNL     1       5.387   5.495  16.277  0.00  0.00    +0.000 C 
ATOM     24  C   UNL     1       6.263   4.296  15.901  0.00  0.00    +0.000 C 
ATOM     25  O   UNL     1       7.590   4.506  16.389  0.00  0.00    +0.000 OA
ATOM     26  C   UNL     1       7.589   4.682  17.813  0.00  0.00    +0.000 C 
ATOM     27  C   UNL     1       6.570   5.743  18.308  0.00  0.00    +0.000 C 
ENDBRANCH  16  22
ENDBRANCH  15  16
ENDBRANCH   2  15
TORSDOF 5
ENDMDL
MODEL 8
REMARK VINA RESULT:      -7.3      2.352      3.948
REMARK  Name = 
REMARK  6 active torsions:
REMARK  status: ('A' for Active; 'I' for Inactive)
REMARK    1  A    between atoms: C_1  and  N_2
REMARK    2  A    between atoms: N_2  and  C_3
REMARK    3  A    between atoms: N_2  and  C_14
REMARK    4  A    between atoms: C_3  and  C_4
REMARK    5  A    between atoms: C_14  and  C_15
REMARK    6  A    between atoms: C_15  and  N_16
REMARK                            x       y       z     vdW  Elec       q    Type
REMARK                         _______ _______ _______ _____ _____    ______ ____
ROOT
ATOM      1  C   UNL     1       3.819   7.834  17.427  0.00  0.00    +0.000 C 
ATOM      2  N   UNL     1       3.102   6.928  18.326  0.00  0.00    +0.000 NA
ENDROOT
BRANCH   2   3
ATOM      3  C   UNL     1       1.689   7.348  18.489  0.00  0.00    +0.000 C 
BRANCH   3   4
ATOM      4  C   UNL     1       1.478   8.525  19.432  0.00  0.00    +0.000 A 
ATOM      5  C   UNL     1       1.491   8.344  20.769  0.00  0.00    +0.000 A 
ATOM      6  C   UNL     1       1.217   9.489  21.682  0.00  0.00    +0.000 A 
ATOM      7  O   UNL     1       1.191   9.390  22.900  0.00  0.00    +0.000 OA
ATOM      8  N   UNL     1       0.960  10.693  21.021  0.00  0.00    +0.000 N 
ATOM      9  N   UNL     1       0.656  11.870  21.627  0.00  0.00    +0.000 NA
ATOM     10  C   UNL     1       0.483  12.669  20.569  0.00  0.00    +0.000 A 
ATOM     11  N   UNL     1       0.654  12.086  19.342  0.00  0.00    +0.000 NA
ATOM     12  C   UNL     1       0.958  10.852  19.650  0.00  0.00    +0.000 A 
ATOM     13  N   UNL     1       1.234   9.778  18.882  0.00  0.00    +0.000 N 
ATOM     14  H   UNL     1       1.151   9.832  17.870  0.00  0.00    +0.000 HD
ENDBRANCH   3   4
ENDBRANCH   2   3
BRANCH   2  15
ATOM     15  C   UNL     1       3.126   5.495  17.893  0.00  0.00    +0.000 C 
BRANCH  15  16
ATOM     16  C   UNL     1       4.072   4.380  18.545  0.00  0.00    +0.000 C 
ATOM     17  C   UNL     1       4.538   3.397  17.399  0.00  0.00    +0.000 C 
ATOM     18  C   UNL     1       5.432   3.981  16.308  0.00  0.00    +0.000 C 
ATOM     19  C   UNL     1       6.660   4.648  16.901  0.00  0.00    +0.000 C 
ATOM     20  C   UNL     1       6.263   5.665  17.963  0.00  0.00    +0.000 C 
ATOM     21  C   UNL     1       5.409   5.012  19.065  0.00  0.00    +0.000 C 
BRANCH  16  22
ATOM     22  N   UNL     1       3.476   3.557  19.661  0.00  0.00    +0.000 NA
ATOM     23  C   UNL     1       2.815   2.276  19.314  0.00  0.00    +0.000 C 
ATOM     24  C   UNL     1       1.397   2.464  18.771  0.00  0.00    +0.000 C 
ATOM     25  O   UNL     1       0.564   3.014  19.796  0.00  0.00    +0.000 OA
ATOM     26  C   UNL     1       1.082   4.270  20.254  0.00  0.00    +0.000 C 
ATOM     27  C   UNL     1       2.585   4.223  20.634  0.00  0.00    +0.000 C 
ENDBRANCH  16  22
ENDBRANCH  15  16
ENDBRANCH   2  15
TORSDOF 5
ENDMDL
MODEL 9
REMARK VINA RESULT:      -7.3      2.192      2.636
REMARK  Name = 
REMARK  6 active torsions:
REMARK  status: ('A' for Active; 'I' for Inactive)
REMARK    1  A    between atoms: C_1  and  N_2
REMARK    2  A    between atoms: N_2  and  C_3
REMARK    3  A    between atoms: N_2  and  C_14
REMARK    4  A    between atoms: C_3  and  C_4
REMARK    5  A    between atoms: C_14  and  C_15
REMARK    6  A    between atoms: C_15  and  N_16
REMARK                            x       y       z     vdW  Elec       q    Type
REMARK                         _______ _______ _______ _____ _____    ______ ____
ROOT
ATOM      1  C   UNL     1       1.804   7.678  20.215  0.00  0.00    +0.000 C 
ATOM      2  N   UNL     1       2.266   7.273  18.888  0.00  0.00    +0.000 NA
ENDROOT
BRANCH   2   3
ATOM      3  C   UNL     1       2.520   8.455  18.029  0.00  0.00    +0.000 C 
BRANCH   3   4
ATOM      4  C   UNL     1       1.475   9.559  18.137  0.00  0.00    +0.000 A 
ATOM      5  C   UNL     1       1.783  10.742  18.708  0.00  0.00    +0.000 A 
ATOM      6  C   UNL     1       0.737  11.790  18.869  0.00  0.00    +0.000 A 
ATOM      7  O   UNL     1       0.941  12.873  19.397  0.00  0.00    +0.000 OA
ATOM      8  N   UNL     1      -0.521  11.414  18.387  0.00  0.00    +0.000 N 
ATOM      9  N   UNL     1      -1.641  12.179  18.444  0.00  0.00    +0.000 NA
ATOM     10  C   UNL     1      -2.542  11.362  17.888  0.00  0.00    +0.000 A 
ATOM     11  N   UNL     1      -2.075  10.139  17.486  0.00  0.00    +0.000 NA
ATOM     12  C   UNL     1      -0.807  10.198  17.803  0.00  0.00    +0.000 A 
ATOM     13  N   UNL     1       0.192   9.302  17.669  0.00  0.00    +0.000 N 
ATOM     14  H   UNL     1       0.001   8.363  17.330  0.00  0.00    +0.000 HD
ENDBRANCH   3   4
ENDBRANCH   2   3
BRANCH   2  15
ATOM     15  C   UNL     1       3.499   6.424  18.905  0.00  0.00    +0.000 C 
BRANCH  15  16
ATOM     16  C   UNL     1       3.689   5.106  18.014  0.00  0.00    +0.000 C 
ATOM     17  C   UNL     1       4.329   3.984  18.924  0.00  0.00    +0.000 C 
ATOM     18  C   UNL     1       3.484   3.469  20.085  0.00  0.00    +0.000 C 
ATOM     19  C   UNL     1       2.126   2.986  19.607  0.00  0.00    +0.000 C 
ATOM     20  C   UNL     1       1.429   4.062  18.784  0.00  0.00    +0.000 C 
ATOM     21  C   UNL     1       2.302   4.506  17.597  0.00  0.00    +0.000 C 
BRANCH  16  22
ATOM     22  N   UNL     1       4.533   5.246  16.771  0.00  0.00    +0.000 NA
ATOM     23  C   UNL     1       5.628   4.271  16.551  0.00  0.00    +0.000 C 
ATOM     24  C   UNL     1       6.882   4.586  17.371  0.00  0.00    +0.000 C 
ATOM     25  O   UNL     1       7.436   5.830  16.933  0.00  0.00    +0.000 OA
ATOM     26  C   UNL     1       6.482   6.891  17.073  0.00  0.00    +0.000 C 
ATOM     27  C   UNL     1       5.099   6.572  16.446  0.00  0.00    +0.000 C 
ENDBRANCH  16  22
ENDBRANCH  15  16
ENDBRANCH   2  15
TORSDOF 5
ENDMDL
