MODEL 1
REMARK VINA RESULT:      -6.7      0.000      0.000
REMARK  Name = 
REMARK  13 active torsions:
REMARK  status: ('A' for Active; 'I' for Inactive)
REMARK    1  A    between atoms: C_1  and  C_2
REMARK    2  A    between atoms: C_2  and  N_3
REMARK    3  A    between atoms: N_3  and  C_4
REMARK    4  A    between atoms: N_3  and  C_6
REMARK    5  A    between atoms: C_4  and  C_5
REMARK    6  A    between atoms: C_6  and  C_7
REMARK    7  A    between atoms: C_7  and  C_8
REMARK    8  A    between atoms: C_8  and  N_9
REMARK    9  A    between atoms: N_9  and  C_10
REMARK   10  A    between atoms: C_13  and  C_14
REMARK   11  A    between atoms: C_21  and  O_22
REMARK   12  A    between atoms: O_22  and  C_23
REMARK   13  A    between atoms: N_29  and  C_30
REMARK                            x       y       z     vdW  Elec       q    Type
REMARK                         _______ _______ _______ _____ _____    ______ ____
ROOT
ATOM      1  C   UNL     1      -0.866  12.232  21.100  0.00  0.00    +0.000 A 
ATOM      2  N   UNL     1      -0.365  12.525  22.322  0.00  0.00    +0.000 NA
ATOM      3  C   UNL     1      -1.131  13.084  23.261  0.00  0.00    +0.000 A 
ATOM      4  C   UNL     1      -2.469  13.409  23.110  0.00  0.00    +0.000 A 
ATOM      5  C   UNL     1      -3.165  14.089  24.249  0.00  0.00    +0.000 C 
ATOM      6  C   UNL     1      -3.026  13.049  21.863  0.00  0.00    +0.000 A 
ATOM      7  C   UNL     1      -2.260  12.442  20.844  0.00  0.00    +0.000 A 
ATOM      8  C   UNL     1      -3.182  12.156  19.735  0.00  0.00    +0.000 A 
ATOM      9  C   UNL     1      -3.107  11.498  18.444  0.00  0.00    +0.000 A 
ATOM     10  C   UNL     1      -1.977  10.785  18.032  0.00  0.00    +0.000 A 
ATOM     11  C   UNL     1      -1.834  10.269  16.746  0.00  0.00    +0.000 A 
ATOM     12  C   UNL     1      -2.873  10.366  15.838  0.00  0.00    +0.000 A 
ATOM     13  C   UNL     1      -4.063  10.971  16.248  0.00  0.00    +0.000 A 
ATOM     14  C   UNL     1      -4.199  11.534  17.539  0.00  0.00    +0.000 A 
ATOM     15  C   UNL     1      -5.398  12.103  17.953  0.00  0.00    +0.000 A 
ATOM     16  C   UNL     1      -5.538  12.656  19.227  0.00  0.00    +0.000 A 
ATOM     17  C   UNL     1      -4.427  12.693  20.091  0.00  0.00    +0.000 A 
ATOM     18  N   UNL     1      -4.312  13.192  21.373  0.00  0.00    +0.000 N 
ATOM     19  C   UNL     1      -5.408  13.786  22.110  0.00  0.00    +0.000 C 
ENDROOT
BRANCH   1  20
ATOM     20  N   UNL     1       0.046  11.739  20.193  0.00  0.00    +0.000 N 
ATOM     21  H   UNL     1       0.096  12.149  19.274  0.00  0.00    +0.000 HD
BRANCH  20  22
ATOM     22  C   UNL     1       1.038  10.764  20.602  0.00  0.00    +0.000 C 
BRANCH  22  23
ATOM     23  C   UNL     1       0.491   9.334  20.509  0.00  0.00    +0.000 C 
BRANCH  23  24
ATOM     24  C   UNL     1       1.536   8.224  20.727  0.00  0.00    +0.000 C 
BRANCH  24  25
ATOM     25  N   UNL     1       1.741   7.320  19.576  0.00  0.00    +0.000 NA
BRANCH  25  27
ATOM     26  C   UNL     1       3.466   7.238  17.732  0.00  0.00    +0.000 C 
ATOM     27  C   UNL     1       2.387   8.029  18.461  0.00  0.00    +0.000 C 
ENDBRANCH  25  27
BRANCH  25  28
ATOM     28  C   UNL     1       2.434   6.082  19.979  0.00  0.00    +0.000 C 
ATOM     29  C   UNL     1       1.563   4.927  20.460  0.00  0.00    +0.000 C 
ENDBRANCH  25  28
ENDBRANCH  24  25
ENDBRANCH  23  24
ENDBRANCH  22  23
ENDBRANCH  20  22
ENDBRANCH   1  20
BRANCH  12  30
ATOM     30  O   UNL     1      -2.840   9.877  14.560  0.00  0.00    +0.000 OA
ATOM     31  C   UNL     1      -4.010  10.114  13.776  0.00  0.00    +0.000 C 
ENDBRANCH  12  30
TORSDOF 8
ENDMDL
MODEL 2
REMARK VINA RESULT:      -6.5      1.364      2.267
REMARK  Name = 
REMARK  13 active torsions:
REMARK  status: ('A' for Active; 'I' for Inactive)
REMARK    1  A    between atoms: C_1  and  C_2
REMARK    2  A    between atoms: C_2  and  N_3
REMARK    3  A    between atoms: N_3  and  C_4
REMARK    4  A    between atoms: N_3  and  C_6
REMARK    5  A    between atoms: C_4  and  C_5
REMARK    6  A    between atoms: C_6  and  C_7
REMARK    7  A    between atoms: C_7  and  C_8
REMARK    8  A    between atoms: C_8  and  N_9
REMARK    9  A    between atoms: N_9  and  C_10
REMARK   10  A    between atoms: C_13  and  C_14
REMARK   11  A    between atoms: C_21  and  O_22
REMARK   12  A    between atoms: O_22  and  C_23
REMARK   13  A    between atoms: N_29  and  C_30
REMARK                            x       y       z     vdW  Elec       q    Type
REMARK                         _______ _______ _______ _____ _____    ______ ____
ROOT
ATOM      1  C   UNL     1      -0.095  10.672  19.309  0.00  0.00    +0.000 A 
ATOM      2  N   UNL     1       0.739  10.653  20.374  0.00  0.00    +0.000 NA
ATOM      3  C   UNL     1       0.402  11.247  21.520  0.00  0.00    +0.000 A 
ATOM      4  C   UNL     1      -0.788  11.916  21.752  0.00  0.00    +0.000 A 
ATOM      5  C   UNL     1      -0.980  12.580  23.081  0.00  0.00    +0.000 C 
ATOM      6  C   UNL     1      -1.700  11.889  20.673  0.00  0.00    +0.000 A 
ATOM      7  C   UNL     1      -1.395  11.260  19.446  0.00  0.00    +0.000 A 
ATOM      8  C   UNL     1      -2.593  11.375  18.603  0.00  0.00    +0.000 A 
ATOM      9  C   UNL     1      -3.010  10.911  17.293  0.00  0.00    +0.000 A 
ATOM     10  C   UNL     1      -2.253  10.003  16.545  0.00  0.00    +0.000 A 
ATOM     11  C   UNL     1      -2.565   9.656  15.233  0.00  0.00    +0.000 A 
ATOM     12  C   UNL     1      -3.718  10.139  14.641  0.00  0.00    +0.000 A 
ATOM     13  C   UNL     1      -4.561  10.959  15.394  0.00  0.00    +0.000 A 
ATOM     14  C   UNL     1      -4.228  11.348  16.713  0.00  0.00    +0.000 A 
ATOM     15  C   UNL     1      -5.089  12.136  17.469  0.00  0.00    +0.000 A 
ATOM     16  C   UNL     1      -4.766  12.518  18.772  0.00  0.00    +0.000 A 
ATOM     17  C   UNL     1      -3.519  12.151  19.313  0.00  0.00    +0.000 A 
ATOM     18  N   UNL     1      -2.973  12.418  20.552  0.00  0.00    +0.000 N 
ATOM     19  C   UNL     1      -3.654  13.157  21.594  0.00  0.00    +0.000 C 
ENDROOT
BRANCH   1  20
ATOM     20  N   UNL     1       0.404  10.100  18.159  0.00  0.00    +0.000 N 
ATOM     21  H   UNL     1      -0.178  10.060  17.338  0.00  0.00    +0.000 HD
BRANCH  20  22
ATOM     22  C   UNL     1       1.800   9.718  18.073  0.00  0.00    +0.000 C 
BRANCH  22  23
ATOM     23  C   UNL     1       1.965   8.194  18.062  0.00  0.00    +0.000 C 
BRANCH  23  24
ATOM     24  C   UNL     1       2.251   7.561  19.436  0.00  0.00    +0.000 C 
BRANCH  24  25
ATOM     25  N   UNL     1       2.689   6.150  19.400  0.00  0.00    +0.000 NA
BRANCH  25  27
ATOM     26  C   UNL     1       1.073   4.433  20.304  0.00  0.00    +0.000 C 
ATOM     27  C   UNL     1       2.199   5.420  20.579  0.00  0.00    +0.000 C 
ENDBRANCH  25  27
BRANCH  25  28
ATOM     28  C   UNL     1       2.347   5.510  18.117  0.00  0.00    +0.000 C 
ATOM     29  C   UNL     1       3.411   4.622  17.480  0.00  0.00    +0.000 C 
ENDBRANCH  25  28
ENDBRANCH  24  25
ENDBRANCH  23  24
ENDBRANCH  22  23
ENDBRANCH  20  22
ENDBRANCH   1  20
BRANCH  12  30
ATOM     30  O   UNL     1      -4.123   9.844  13.367  0.00  0.00    +0.000 OA
ATOM     31  C   UNL     1      -3.077   9.572  12.433  0.00  0.00    +0.000 C 
ENDBRANCH  12  30
TORSDOF 8
ENDMDL
MODEL 3
REMARK VINA RESULT:      -6.4      0.655      1.260
REMARK  Name = 
REMARK  13 active torsions:
REMARK  status: ('A' for Active; 'I' for Inactive)
REMARK    1  A    between atoms: C_1  and  C_2
REMARK    2  A    between atoms: C_2  and  N_3
REMARK    3  A    between atoms: N_3  and  C_4
REMARK    4  A    between atoms: N_3  and  C_6
REMARK    5  A    between atoms: C_4  and  C_5
REMARK    6  A    between atoms: C_6  and  C_7
REMARK    7  A    between atoms: C_7  and  C_8
REMARK    8  A    between atoms: C_8  and  N_9
REMARK    9  A    between atoms: N_9  and  C_10
REMARK   10  A    between atoms: C_13  and  C_14
REMARK   11  A    between atoms: C_21  and  O_22
REMARK   12  A    between atoms: O_22  and  C_23
REMARK   13  A    between atoms: N_29  and  C_30
REMARK                            x       y       z     vdW  Elec       q    Type
REMARK                         _______ _______ _______ _____ _____    ______ ____
ROOT
ATOM      1  C   UNL     1      -0.954  12.357  21.368  0.00  0.00    +0.000 A 
ATOM      2  N   UNL     1      -0.518  12.682  22.608  0.00  0.00    +0.000 NA
ATOM      3  C   UNL     1      -1.321  13.296  23.478  0.00  0.00    +0.000 A 
ATOM      4  C   UNL     1      -2.638  13.652  23.235  0.00  0.00    +0.000 A 
ATOM      5  C   UNL     1      -3.380  14.393  24.304  0.00  0.00    +0.000 C 
ATOM      6  C   UNL     1      -3.131  13.261  21.970  0.00  0.00    +0.000 A 
ATOM      7  C   UNL     1      -2.324  12.595  21.021  0.00  0.00    +0.000 A 
ATOM      8  C   UNL     1      -3.186  12.293  19.870  0.00  0.00    +0.000 A 
ATOM      9  C   UNL     1      -3.054  11.586  18.610  0.00  0.00    +0.000 A 
ATOM     10  C   UNL     1      -1.923  10.827  18.293  0.00  0.00    +0.000 A 
ATOM     11  C   UNL     1      -1.719  10.260  17.037  0.00  0.00    +0.000 A 
ATOM     12  C   UNL     1      -2.699  10.350  16.066  0.00  0.00    +0.000 A 
ATOM     13  C   UNL     1      -3.893  11.002  16.381  0.00  0.00    +0.000 A 
ATOM     14  C   UNL     1      -4.089  11.617  17.640  0.00  0.00    +0.000 A 
ATOM     15  C   UNL     1      -5.293  12.234  17.960  0.00  0.00    +0.000 A 
ATOM     16  C   UNL     1      -5.492  12.837  19.203  0.00  0.00    +0.000 A 
ATOM     17  C   UNL     1      -4.434  12.876  20.130  0.00  0.00    +0.000 A 
ATOM     18  N   UNL     1      -4.381  13.419  21.398  0.00  0.00    +0.000 N 
ATOM     19  C   UNL     1      -5.500  14.071  22.046  0.00  0.00    +0.000 C 
ENDROOT
BRANCH   1  20
ATOM     20  N   UNL     1      -0.005  11.806  20.536  0.00  0.00    +0.000 N 
ATOM     21  H   UNL     1       0.172  12.232  19.641  0.00  0.00    +0.000 HD
BRANCH  20  22
ATOM     22  C   UNL     1       0.852  10.734  21.005  0.00  0.00    +0.000 C 
BRANCH  22  23
ATOM     23  C   UNL     1       0.226   9.359  20.742  0.00  0.00    +0.000 C 
BRANCH  23  24
ATOM     24  C   UNL     1       1.190   8.168  20.891  0.00  0.00    +0.000 C 
BRANCH  24  25
ATOM     25  N   UNL     1       2.105   7.953  19.750  0.00  0.00    +0.000 NA
BRANCH  25  27
ATOM     26  C   UNL     1       2.176   5.747  18.521  0.00  0.00    +0.000 C 
ATOM     27  C   UNL     1       2.601   6.568  19.731  0.00  0.00    +0.000 C 
ENDBRANCH  25  27
BRANCH  25  28
ATOM     28  C   UNL     1       1.496   8.385  18.479  0.00  0.00    +0.000 C 
ATOM     29  C   UNL     1       2.321   9.317  17.598  0.00  0.00    +0.000 C 
ENDBRANCH  25  28
ENDBRANCH  24  25
ENDBRANCH  23  24
ENDBRANCH  22  23
ENDBRANCH  20  22
ENDBRANCH   1  20
BRANCH  12  30
ATOM     30  O   UNL     1      -2.605   9.813  14.810  0.00  0.00    +0.000 OA
ATOM     31  C   UNL     1      -3.793   9.874  14.020  0.00  0.00    +0.000 C 
ENDBRANCH  12  30
TORSDOF 8
ENDMDL
MODEL 4
REMARK VINA RESULT:      -6.3      1.545      2.248
REMARK  Name = 
REMARK  13 active torsions:
REMARK  status: ('A' for Active; 'I' for Inactive)
REMARK    1  A    between atoms: C_1  and  C_2
REMARK    2  A    between atoms: C_2  and  N_3
REMARK    3  A    between atoms: N_3  and  C_4
REMARK    4  A    between atoms: N_3  and  C_6
REMARK    5  A    between atoms: C_4  and  C_5
REMARK    6  A    between atoms: C_6  and  C_7
REMARK    7  A    between atoms: C_7  and  C_8
REMARK    8  A    between atoms: C_8  and  N_9
REMARK    9  A    between atoms: N_9  and  C_10
REMARK   10  A    between atoms: C_13  and  C_14
REMARK   11  A    between atoms: C_21  and  O_22
REMARK   12  A    between atoms: O_22  and  C_23
REMARK   13  A    between atoms: N_29  and  C_30
REMARK                            x       y       z     vdW  Elec       q    Type
REMARK                         _______ _______ _______ _____ _____    ______ ____
ROOT
ATOM      1  C   UNL     1      -0.074  10.800  19.176  0.00  0.00    +0.000 A 
ATOM      2  N   UNL     1       0.728  10.805  20.266  0.00  0.00    +0.000 NA
ATOM      3  C   UNL     1       0.307  11.314  21.425  0.00  0.00    +0.000 A 
ATOM      4  C   UNL     1      -0.944  11.864  21.647  0.00  0.00    +0.000 A 
ATOM      5  C   UNL     1      -1.232  12.447  22.997  0.00  0.00    +0.000 C 
ATOM      6  C   UNL     1      -1.819  11.807  20.539  0.00  0.00    +0.000 A 
ATOM      7  C   UNL     1      -1.425  11.264  19.297  0.00  0.00    +0.000 A 
ATOM      8  C   UNL     1      -2.604  11.312  18.421  0.00  0.00    +0.000 A 
ATOM      9  C   UNL     1      -2.940  10.873  17.079  0.00  0.00    +0.000 A 
ATOM     10  C   UNL     1      -2.084  10.070  16.318  0.00  0.00    +0.000 A 
ATOM     11  C   UNL     1      -2.327   9.758  14.983  0.00  0.00    +0.000 A 
ATOM     12  C   UNL     1      -3.502  10.164  14.376  0.00  0.00    +0.000 A 
ATOM     13  C   UNL     1      -4.436  10.871  15.136  0.00  0.00    +0.000 A 
ATOM     14  C   UNL     1      -4.176  11.227  16.481  0.00  0.00    +0.000 A 
ATOM     15  C   UNL     1      -5.125  11.900  17.242  0.00  0.00    +0.000 A 
ATOM     16  C   UNL     1      -4.875  12.250  18.570  0.00  0.00    +0.000 A 
ATOM     17  C   UNL     1      -3.616  11.970  19.134  0.00  0.00    +0.000 A 
ATOM     18  N   UNL     1      -3.130  12.226  20.400  0.00  0.00    +0.000 N 
ATOM     19  C   UNL     1      -3.904  12.854  21.451  0.00  0.00    +0.000 C 
ENDROOT
BRANCH   1  20
ATOM     20  N   UNL     1       0.506  10.327  18.020  0.00  0.00    +0.000 N 
ATOM     21  H   UNL     1       0.109  10.583  17.130  0.00  0.00    +0.000 HD
BRANCH  20  22
ATOM     22  C   UNL     1       1.770   9.617  18.067  0.00  0.00    +0.000 C 
BRANCH  22  23
ATOM     23  C   UNL     1       1.561   8.098  18.050  0.00  0.00    +0.000 C 
BRANCH  23  24
ATOM     24  C   UNL     1       2.769   7.272  18.527  0.00  0.00    +0.000 C 
BRANCH  24  25
ATOM     25  N   UNL     1       2.983   5.998  17.808  0.00  0.00    +0.000 NA
BRANCH  25  27
ATOM     26  C   UNL     1       5.044   5.286  19.083  0.00  0.00    +0.000 C 
ATOM     27  C   UNL     1       4.414   5.665  17.749  0.00  0.00    +0.000 C 
ENDBRANCH  25  27
BRANCH  25  28
ATOM     28  C   UNL     1       2.141   4.920  18.357  0.00  0.00    +0.000 C 
ATOM     29  C   UNL     1       2.069   3.623  17.558  0.00  0.00    +0.000 C 
ENDBRANCH  25  28
ENDBRANCH  24  25
ENDBRANCH  23  24
ENDBRANCH  22  23
ENDBRANCH  20  22
ENDBRANCH   1  20
BRANCH  12  30
ATOM     30  O   UNL     1      -3.842   9.893  13.078  0.00  0.00    +0.000 OA
ATOM     31  C   UNL     1      -5.175   9.421  12.874  0.00  0.00    +0.000 C 
ENDBRANCH  12  30
TORSDOF 8
ENDMDL
MODEL 5
REMARK VINA RESULT:      -6.2      1.905      2.701
REMARK  Name = 
REMARK  13 active torsions:
REMARK  status: ('A' for Active; 'I' for Inactive)
REMARK    1  A    between atoms: C_1  and  C_2
REMARK    2  A    between atoms: C_2  and  N_3
REMARK    3  A    between atoms: N_3  and  C_4
REMARK    4  A    between atoms: N_3  and  C_6
REMARK    5  A    between atoms: C_4  and  C_5
REMARK    6  A    between atoms: C_6  and  C_7
REMARK    7  A    between atoms: C_7  and  C_8
REMARK    8  A    between atoms: C_8  and  N_9
REMARK    9  A    between atoms: N_9  and  C_10
REMARK   10  A    between atoms: C_13  and  C_14
REMARK   11  A    between atoms: C_21  and  O_22
REMARK   12  A    between atoms: O_22  and  C_23
REMARK   13  A    between atoms: N_29  and  C_30
REMARK                            x       y       z     vdW  Elec       q    Type
REMARK                         _______ _______ _______ _____ _____    ______ ____
ROOT
ATOM      1  C   UNL     1      -3.378  12.811  21.910  0.00  0.00    +0.000 A 
ATOM      2  N   UNL     1      -3.415  13.189  23.209  0.00  0.00    +0.000 NA
ATOM      3  C   UNL     1      -4.489  13.796  23.716  0.00  0.00    +0.000 A 
ATOM      4  C   UNL     1      -5.645  14.092  23.012  0.00  0.00    +0.000 A 
ATOM      5  C   UNL     1      -6.736  14.834  23.722  0.00  0.00    +0.000 C 
ATOM      6  C   UNL     1      -5.651  13.644  21.672  0.00  0.00    +0.000 A 
ATOM      7  C   UNL     1      -4.544  12.983  21.095  0.00  0.00    +0.000 A 
ATOM      8  C   UNL     1      -4.938  12.613  19.728  0.00  0.00    +0.000 A 
ATOM      9  C   UNL     1      -4.353  11.875  18.625  0.00  0.00    +0.000 A 
ATOM     10  C   UNL     1      -3.162  11.152  18.756  0.00  0.00    +0.000 A 
ATOM     11  C   UNL     1      -2.514  10.557  17.676  0.00  0.00    +0.000 A 
ATOM     12  C   UNL     1      -3.092  10.580  16.420  0.00  0.00    +0.000 A 
ATOM     13  C   UNL     1      -4.338  11.193  16.270  0.00  0.00    +0.000 A 
ATOM     14  C   UNL     1      -4.980  11.836  17.354  0.00  0.00    +0.000 A 
ATOM     15  C   UNL     1      -6.236  12.413  17.205  0.00  0.00    +0.000 A 
ATOM     16  C   UNL     1      -6.876  13.045  18.273  0.00  0.00    +0.000 A 
ATOM     17  C   UNL     1      -6.213  13.153  19.510  0.00  0.00    +0.000 A 
ATOM     18  N   UNL     1      -6.624  13.736  20.692  0.00  0.00    +0.000 N 
ATOM     19  C   UNL     1      -7.916  14.361  20.879  0.00  0.00    +0.000 C 
ENDROOT
BRANCH   1  20
ATOM     20  N   UNL     1      -2.182  12.273  21.487  0.00  0.00    +0.000 N 
ATOM     21  H   UNL     1      -2.095  11.273  21.405  0.00  0.00    +0.000 HD
BRANCH  20  22
ATOM     22  C   UNL     1      -1.121  13.132  20.999  0.00  0.00    +0.000 C 
BRANCH  22  23
ATOM     23  C   UNL     1       0.242  12.717  21.566  0.00  0.00    +0.000 C 
BRANCH  23  24
ATOM     24  C   UNL     1       0.987  11.647  20.747  0.00  0.00    +0.000 C 
BRANCH  24  25
ATOM     25  N   UNL     1       0.185  10.460  20.385  0.00  0.00    +0.000 NA
BRANCH  25  27
ATOM     26  C   UNL     1       1.582  10.620  18.286  0.00  0.00    +0.000 C 
ATOM     27  C   UNL     1       0.789   9.746  19.249  0.00  0.00    +0.000 C 
ENDBRANCH  25  27
BRANCH  25  28
ATOM     28  C   UNL     1      -0.075   9.605  21.557  0.00  0.00    +0.000 C 
ATOM     29  C   UNL     1       1.139   9.114  22.339  0.00  0.00    +0.000 C 
ENDBRANCH  25  28
ENDBRANCH  24  25
ENDBRANCH  23  24
ENDBRANCH  22  23
ENDBRANCH  20  22
ENDBRANCH   1  20
BRANCH  12  30
ATOM     30  O   UNL     1      -2.547  10.009  15.301  0.00  0.00    +0.000 OA
ATOM     31  C   UNL     1      -3.312  10.145  14.103  0.00  0.00    +0.000 C 
ENDBRANCH  12  30
TORSDOF 8
ENDMDL
MODEL 6
REMARK VINA RESULT:      -6.2      2.638      5.178
REMARK  Name = 
REMARK  13 active torsions:
REMARK  status: ('A' for Active; 'I' for Inactive)
REMARK    1  A    between atoms: C_1  and  C_2
REMARK    2  A    between atoms: C_2  and  N_3
REMARK    3  A    between atoms: N_3  and  C_4
REMARK    4  A    between atoms: N_3  and  C_6
REMARK    5  A    between atoms: C_4  and  C_5
REMARK    6  A    between atoms: C_6  and  C_7
REMARK    7  A    between atoms: C_7  and  C_8
REMARK    8  A    between atoms: C_8  and  N_9
REMARK    9  A    between atoms: N_9  and  C_10
REMARK   10  A    between atoms: C_13  and  C_14
REMARK   11  A    between atoms: C_21  and  O_22
REMARK   12  A    between atoms: O_22  and  C_23
REMARK   13  A    between atoms: N_29  and  C_30
REMARK                            x       y       z     vdW  Elec       q    Type
REMARK                         _______ _______ _______ _____ _____    ______ ____
ROOT
ATOM      1  C   UNL     1      -3.982  12.129  18.887  0.00  0.00    +0.000 A 
ATOM      2  N   UNL     1      -5.231  11.772  18.507  0.00  0.00    +0.000 NA
ATOM      3  C   UNL     1      -6.238  11.764  19.382  0.00  0.00    +0.000 A 
ATOM      4  C   UNL     1      -6.137  12.113  20.718  0.00  0.00    +0.000 A 
ATOM      5  C   UNL     1      -7.358  11.990  21.577  0.00  0.00    +0.000 C 
ATOM      6  C   UNL     1      -4.855  12.553  21.118  0.00  0.00    +0.000 A 
ATOM      7  C   UNL     1      -3.762  12.594  20.224  0.00  0.00    +0.000 A 
ATOM      8  C   UNL     1      -2.629  13.163  20.969  0.00  0.00    +0.000 A 
ATOM      9  C   UNL     1      -1.262  13.550  20.675  0.00  0.00    +0.000 A 
ATOM     10  C   UNL     1      -0.755  13.574  19.372  0.00  0.00    +0.000 A 
ATOM     11  C   UNL     1       0.589  13.806  19.086  0.00  0.00    +0.000 A 
ATOM     12  C   UNL     1       1.471  14.123  20.102  0.00  0.00    +0.000 A 
ATOM     13  C   UNL     1       0.980  14.221  21.406  0.00  0.00    +0.000 A 
ATOM     14  C   UNL     1      -0.374  13.945  21.708  0.00  0.00    +0.000 A 
ATOM     15  C   UNL     1      -0.864  14.079  23.003  0.00  0.00    +0.000 A 
ATOM     16  C   UNL     1      -2.201  13.812  23.304  0.00  0.00    +0.000 A 
ATOM     17  C   UNL     1      -3.057  13.340  22.292  0.00  0.00    +0.000 A 
ATOM     18  N   UNL     1      -4.393  12.997  22.344  0.00  0.00    +0.000 N 
ATOM     19  C   UNL     1      -5.207  13.096  23.538  0.00  0.00    +0.000 C 
ENDROOT
BRANCH   1  20
ATOM     20  N   UNL     1      -3.014  12.012  17.914  0.00  0.00    +0.000 N 
ATOM     21  H   UNL     1      -2.386  12.782  17.751  0.00  0.00    +0.000 HD
BRANCH  20  22
ATOM     22  C   UNL     1      -2.786  10.743  17.251  0.00  0.00    +0.000 C 
BRANCH  22  23
ATOM     23  C   UNL     1      -1.333  10.281  17.409  0.00  0.00    +0.000 C 
BRANCH  23  24
ATOM     24  C   UNL     1      -0.884  10.033  18.861  0.00  0.00    +0.000 C 
BRANCH  24  25
ATOM     25  N   UNL     1       0.520  10.386  19.155  0.00  0.00    +0.000 NA
BRANCH  25  27
ATOM     26  C   UNL     1      -0.269  10.111  21.539  0.00  0.00    +0.000 C 
ATOM     27  C   UNL     1       0.874  10.022  20.536  0.00  0.00    +0.000 C 
ENDBRANCH  25  27
BRANCH  25  28
ATOM     28  C   UNL     1       1.439   9.840  18.140  0.00  0.00    +0.000 C 
ATOM     29  C   UNL     1       1.922   8.408  18.343  0.00  0.00    +0.000 C 
ENDBRANCH  25  28
ENDBRANCH  24  25
ENDBRANCH  23  24
ENDBRANCH  22  23
ENDBRANCH  20  22
ENDBRANCH   1  20
BRANCH  12  30
ATOM     30  O   UNL     1       2.803  14.386  19.925  0.00  0.00    +0.000 OA
ATOM     31  C   UNL     1       3.138  15.756  19.698  0.00  0.00    +0.000 C 
ENDBRANCH  12  30
TORSDOF 8
ENDMDL
MODEL 7
REMARK VINA RESULT:      -6.2      2.510      4.099
REMARK  Name = 
REMARK  13 active torsions:
REMARK  status: ('A' for Active; 'I' for Inactive)
REMARK    1  A    between atoms: C_1  and  C_2
REMARK    2  A    between atoms: C_2  and  N_3
REMARK    3  A    between atoms: N_3  and  C_4
REMARK    4  A    between atoms: N_3  and  C_6
REMARK    5  A    between atoms: C_4  and  C_5
REMARK    6  A    between atoms: C_6  and  C_7
REMARK    7  A    between atoms: C_7  and  C_8
REMARK    8  A    between atoms: C_8  and  N_9
REMARK    9  A    between atoms: N_9  and  C_10
REMARK   10  A    between atoms: C_13  and  C_14
REMARK   11  A    between atoms: C_21  and  O_22
REMARK   12  A    between atoms: O_22  and  C_23
REMARK   13  A    between atoms: N_29  and  C_30
REMARK                            x       y       z     vdW  Elec       q    Type
REMARK                         _______ _______ _______ _____ _____    ______ ____
ROOT
ATOM      1  C   UNL     1      -1.398  12.150  21.297  0.00  0.00    +0.000 A 
ATOM      2  N   UNL     1      -1.019  12.441  22.563  0.00  0.00    +0.000 NA
ATOM      3  C   UNL     1      -1.835  13.097  23.389  0.00  0.00    +0.000 A 
ATOM      4  C   UNL     1      -3.110  13.533  23.072  0.00  0.00    +0.000 A 
ATOM      5  C   UNL     1      -3.870  14.312  24.102  0.00  0.00    +0.000 C 
ATOM      6  C   UNL     1      -3.549  13.180  21.776  0.00  0.00    +0.000 A 
ATOM      7  C   UNL     1      -2.728  12.472  20.871  0.00  0.00    +0.000 A 
ATOM      8  C   UNL     1      -3.537  12.230  19.668  0.00  0.00    +0.000 A 
ATOM      9  C   UNL     1      -3.372  11.523  18.411  0.00  0.00    +0.000 A 
ATOM     10  C   UNL     1      -2.272  10.699  18.155  0.00  0.00    +0.000 A 
ATOM     11  C   UNL     1      -2.027  10.128  16.908  0.00  0.00    +0.000 A 
ATOM     12  C   UNL     1      -2.940  10.283  15.881  0.00  0.00    +0.000 A 
ATOM     13  C   UNL     1      -4.110  11.005  16.131  0.00  0.00    +0.000 A 
ATOM     14  C   UNL     1      -4.343  11.622  17.382  0.00  0.00    +0.000 A 
ATOM     15  C   UNL     1      -5.526  12.309  17.635  0.00  0.00    +0.000 A 
ATOM     16  C   UNL     1      -5.762  12.916  18.870  0.00  0.00    +0.000 A 
ATOM     17  C   UNL     1      -4.761  12.886  19.859  0.00  0.00    +0.000 A 
ATOM     18  N   UNL     1      -4.751  13.417  21.133  0.00  0.00    +0.000 N 
ATOM     19  C   UNL     1      -5.866  14.131  21.719  0.00  0.00    +0.000 C 
ENDROOT
BRANCH   1  20
ATOM     20  N   UNL     1      -0.436  11.547  20.517  0.00  0.00    +0.000 N 
ATOM     21  H   UNL     1      -0.719  11.016  19.710  0.00  0.00    +0.000 HD
BRANCH  20  22
ATOM     22  C   UNL     1       0.971  11.814  20.747  0.00  0.00    +0.000 C 
BRANCH  22  23
ATOM     23  C   UNL     1       1.611  12.521  19.547  0.00  0.00    +0.000 C 
BRANCH  23  24
ATOM     24  C   UNL     1       1.952  14.005  19.774  0.00  0.00    +0.000 C 
BRANCH  24  25
ATOM     25  N   UNL     1       1.767  14.880  18.598  0.00  0.00    +0.000 NA
BRANCH  25  27
ATOM     26  C   UNL     1      -0.534  15.397  19.504  0.00  0.00    +0.000 C 
ATOM     27  C   UNL     1       0.751  15.910  18.865  0.00  0.00    +0.000 C 
ENDBRANCH  25  27
BRANCH  25  28
ATOM     28  C   UNL     1       3.052  15.420  18.118  0.00  0.00    +0.000 C 
ATOM     29  C   UNL     1       3.004  16.728  17.335  0.00  0.00    +0.000 C 
ENDBRANCH  25  28
ENDBRANCH  24  25
ENDBRANCH  23  24
ENDBRANCH  22  23
ENDBRANCH  20  22
ENDBRANCH   1  20
BRANCH  12  30
ATOM     30  O   UNL     1      -2.803   9.748  14.628  0.00  0.00    +0.000 OA
ATOM     31  C   UNL     1      -3.906   9.952  13.745  0.00  0.00    +0.000 C 
ENDBRANCH  12  30
TORSDOF 8
ENDMDL
MODEL 8
REMARK VINA RESULT:      -6.2      1.222      1.620
REMARK  Name = 
REMARK  13 active torsions:
REMARK  status: ('A' for Active; 'I' for Inactive)
REMARK    1  A    between atoms: C_1  and  C_2
REMARK    2  A    between atoms: C_2  and  N_3
REMARK    3  A    between atoms: N_3  and  C_4
REMARK    4  A    between atoms: N_3  and  C_6
REMARK    5  A    between atoms: C_4  and  C_5
REMARK    6  A    between atoms: C_6  and  C_7
REMARK    7  A    between atoms: C_7  and  C_8
REMARK    8  A    between atoms: C_8  and  N_9
REMARK    9  A    between atoms: N_9  and  C_10
REMARK   10  A    between atoms: C_13  and  C_14
REMARK   11  A    between atoms: C_21  and  O_22
REMARK   12  A    between atoms: O_22  and  C_23
REMARK   13  A    between atoms: N_29  and  C_30
REMARK                            x       y       z     vdW  Elec       q    Type
REMARK                         _______ _______ _______ _____ _____    ______ ____
ROOT
ATOM      1  C   UNL     1      -0.537  11.274  19.678  0.00  0.00    +0.000 A 
ATOM      2  N   UNL     1       0.119  11.411  20.854  0.00  0.00    +0.000 NA
ATOM      3  C   UNL     1      -0.475  11.970  21.909  0.00  0.00    +0.000 A 
ATOM      4  C   UNL     1      -1.775  12.447  21.933  0.00  0.00    +0.000 A 
ATOM      5  C   UNL     1      -2.267  13.102  23.188  0.00  0.00    +0.000 C 
ATOM      6  C   UNL     1      -2.498  12.251  20.735  0.00  0.00    +0.000 A 
ATOM      7  C   UNL     1      -1.917  11.651  19.596  0.00  0.00    +0.000 A 
ATOM      8  C   UNL     1      -2.976  11.556  18.582  0.00  0.00    +0.000 A 
ATOM      9  C   UNL     1      -3.113  11.002  17.248  0.00  0.00    +0.000 A 
ATOM     10  C   UNL     1      -2.121  10.209  16.662  0.00  0.00    +0.000 A 
ATOM     11  C   UNL     1      -2.173   9.788  15.335  0.00  0.00    +0.000 A 
ATOM     12  C   UNL     1      -3.283  10.068  14.560  0.00  0.00    +0.000 A 
ATOM     13  C   UNL     1      -4.346  10.760  15.142  0.00  0.00    +0.000 A 
ATOM     14  C   UNL     1      -4.281  11.227  16.476  0.00  0.00    +0.000 A 
ATOM     15  C   UNL     1      -5.358  11.885  17.061  0.00  0.00    +0.000 A 
ATOM     16  C   UNL     1      -5.299  12.343  18.378  0.00  0.00    +0.000 A 
ATOM     17  C   UNL     1      -4.108  12.191  19.112  0.00  0.00    +0.000 A 
ATOM     18  N   UNL     1      -3.803  12.569  20.404  0.00  0.00    +0.000 N 
ATOM     19  C   UNL     1      -4.740  13.214  21.300  0.00  0.00    +0.000 C 
ENDROOT
BRANCH   1  20
ATOM     20  N   UNL     1       0.213  10.763  18.641  0.00  0.00    +0.000 N 
ATOM     21  H   UNL     1      -0.087  10.920  17.693  0.00  0.00    +0.000 HD
BRANCH  20  22
ATOM     22  C   UNL     1       1.506  10.157  18.897  0.00  0.00    +0.000 C 
BRANCH  22  23
ATOM     23  C   UNL     1       1.697   8.877  18.075  0.00  0.00    +0.000 C 
BRANCH  23  24
ATOM     24  C   UNL     1       2.305   7.693  18.850  0.00  0.00    +0.000 C 
BRANCH  24  25
ATOM     25  N   UNL     1       2.914   6.639  18.012  0.00  0.00    +0.000 NA
BRANCH  25  27
ATOM     26  C   UNL     1       4.818   6.189  16.415  0.00  0.00    +0.000 C 
ATOM     27  C   UNL     1       4.236   7.058  17.522  0.00  0.00    +0.000 C 
ENDBRANCH  25  27
BRANCH  25  28
ATOM     28  C   UNL     1       2.918   5.336  18.701  0.00  0.00    +0.000 C 
ATOM     29  C   UNL     1       2.024   5.200  19.930  0.00  0.00    +0.000 C 
ENDBRANCH  25  28
ENDBRANCH  24  25
ENDBRANCH  23  24
ENDBRANCH  22  23
ENDBRANCH  20  22
ENDBRANCH   1  20
BRANCH  12  30
ATOM     30  O   UNL     1      -3.440   9.684  13.255  0.00  0.00    +0.000 OA
ATOM     31  C   UNL     1      -4.715   9.964  12.677  0.00  0.00    +0.000 C 
ENDBRANCH  12  30
TORSDOF 8
ENDMDL
MODEL 9
REMARK VINA RESULT:      -6.1      1.532      2.308
REMARK  Name = 
REMARK  13 active torsions:
REMARK  status: ('A' for Active; 'I' for Inactive)
REMARK    1  A    between atoms: C_1  and  C_2
REMARK    2  A    between atoms: C_2  and  N_3
REMARK    3  A    between atoms: N_3  and  C_4
REMARK    4  A    between atoms: N_3  and  C_6
REMARK    5  A    between atoms: C_4  and  C_5
REMARK    6  A    between atoms: C_6  and  C_7
REMARK    7  A    between atoms: C_7  and  C_8
REMARK    8  A    between atoms: C_8  and  N_9
REMARK    9  A    between atoms: N_9  and  C_10
REMARK   10  A    between atoms: C_13  and  C_14
REMARK   11  A    between atoms: C_21  and  O_22
REMARK   12  A    between atoms: O_22  and  C_23
REMARK   13  A    between atoms: N_29  and  C_30
REMARK                            x       y       z     vdW  Elec       q    Type
REMARK                         _______ _______ _______ _____ _____    ______ ____
ROOT
ATOM      1  C   UNL     1      -2.088  13.657  20.982  0.00  0.00    +0.000 A 
ATOM      2  N   UNL     1      -1.780  14.229  22.169  0.00  0.00    +0.000 NA
ATOM      3  C   UNL     1      -2.714  14.415  23.103  0.00  0.00    +0.000 A 
ATOM      4  C   UNL     1      -4.046  14.056  22.983  0.00  0.00    +0.000 A 
ATOM      5  C   UNL     1      -4.975  14.394  24.108  0.00  0.00    +0.000 C 
ATOM      6  C   UNL     1      -4.372  13.396  21.777  0.00  0.00    +0.000 A 
ATOM      7  C   UNL     1      -3.415  13.162  20.765  0.00  0.00    +0.000 A 
ATOM      8  C   UNL     1      -4.097  12.403  19.706  0.00  0.00    +0.000 A 
ATOM      9  C   UNL     1      -3.725  11.780  18.450  0.00  0.00    +0.000 A 
ATOM     10  C   UNL     1      -2.394  11.665  18.036  0.00  0.00    +0.000 A 
ATOM     11  C   UNL     1      -2.031  11.199  16.775  0.00  0.00    +0.000 A 
ATOM     12  C   UNL     1      -2.995  10.732  15.901  0.00  0.00    +0.000 A 
ATOM     13  C   UNL     1      -4.328  10.724  16.320  0.00  0.00    +0.000 A 
ATOM     14  C   UNL     1      -4.707  11.235  17.583  0.00  0.00    +0.000 A 
ATOM     15  C   UNL     1      -6.031  11.192  18.008  0.00  0.00    +0.000 A 
ATOM     16  C   UNL     1      -6.409  11.691  19.256  0.00  0.00    +0.000 A 
ATOM     17  C   UNL     1      -5.445  12.305  20.077  0.00  0.00    +0.000 A 
ATOM     18  N   UNL     1      -5.574  12.879  21.326  0.00  0.00    +0.000 N 
ATOM     19  C   UNL     1      -6.815  12.928  22.069  0.00  0.00    +0.000 C 
ENDROOT
BRANCH   1  20
ATOM     20  N   UNL     1      -1.057  13.599  20.071  0.00  0.00    +0.000 N 
ATOM     21  H   UNL     1      -1.232  13.859  19.113  0.00  0.00    +0.000 HD
BRANCH  20  22
ATOM     22  C   UNL     1       0.301  13.339  20.510  0.00  0.00    +0.000 C 
BRANCH  22  23
ATOM     23  C   UNL     1       0.809  11.989  19.990  0.00  0.00    +0.000 C 
BRANCH  23  24
ATOM     24  C   UNL     1       0.150  10.756  20.633  0.00  0.00    +0.000 C 
BRANCH  24  25
ATOM     25  N   UNL     1       1.088   9.774  21.218  0.00  0.00    +0.000 NA
BRANCH  25  27
ATOM     26  C   UNL     1      -0.683   9.955  23.010  0.00  0.00    +0.000 C 
ATOM     27  C   UNL     1       0.646   9.364  22.560  0.00  0.00    +0.000 C 
ENDBRANCH  25  27
BRANCH  25  28
ATOM     28  C   UNL     1       1.333   8.648  20.299  0.00  0.00    +0.000 C 
ATOM     29  C   UNL     1       1.424   7.257  20.919  0.00  0.00    +0.000 C 
ENDBRANCH  25  28
ENDBRANCH  24  25
ENDBRANCH  23  24
ENDBRANCH  22  23
ENDBRANCH  20  22
ENDBRANCH   1  20
BRANCH  12  30
ATOM     30  O   UNL     1      -2.741  10.238  14.650  0.00  0.00    +0.000 OA
ATOM     31  C   UNL     1      -3.886  10.025  13.824  0.00  0.00    +0.000 C 
ENDBRANCH  12  30
TORSDOF 8
ENDMDL
