MODEL 1
REMARK VINA RESULT:      -5.9      0.000      0.000
REMARK  Name = 
REMARK  27 active torsions:
REMARK  status: ('A' for Active; 'I' for Inactive)
REMARK    1  A    between atoms: C_1  and  C_2
REMARK    2  A    between atoms: C_2  and  N_3
REMARK    3  A    between atoms: N_6  and  C_7
REMARK    4  A    between atoms: C_7  and  C_8
REMARK    5  A    between atoms: C_8  and  C_9
REMARK    6  A    between atoms: C_9  and  C_10
REMARK    7  A    between atoms: C_10  and  C_11
REMARK    8  A    between atoms: C_12  and  C_13
REMARK    9  A    between atoms: C_13  and  C_14
REMARK   10  A    between atoms: C_14  and  C_15
REMARK   11  A    between atoms: C_15  and  C_16
REMARK   12  A    between atoms: C_16  and  C_17
REMARK   13  A    between atoms: C_17  and  C_18
REMARK   14  A    between atoms: C_18  and  C_19
REMARK   15  A    between atoms: C_19  and  C_20
REMARK   16  A    between atoms: C_20  and  C_21
REMARK   17  A    between atoms: C_21  and  C_22
REMARK   18  A    between atoms: C_22  and  O_24
REMARK   19  A    between atoms: O_24  and  C_25
REMARK   20  A    between atoms: C_25  and  C_26
REMARK   21  A    between atoms: C_26  and  O_27
REMARK   22  A    between atoms: O_27  and  C_28
REMARK   23  A    between atoms: C_28  and  C_29
REMARK   24  A    between atoms: C_29  and  O_30
REMARK   25  A    between atoms: O_30  and  C_31
REMARK   26  A    between atoms: C_31  and  C_32
REMARK   27  A    between atoms: C_32  and  O_33
REMARK                            x       y       z     vdW  Elec       q    Type
REMARK                         _______ _______ _______ _____ _____    ______ ____
ROOT
ATOM      1  C   UNL     1       1.345   3.451  21.235  0.00  0.00    +0.000 C 
ENDROOT
BRANCH   1   2
ATOM      2  C   UNL     1       0.943   4.744  20.547  0.00  0.00    +0.000 C 
BRANCH   2   3
ATOM      3  C   UNL     1       2.120   5.710  20.521  0.00  0.00    +0.000 C 
BRANCH   3   4
ATOM      4  C   UNL     1       1.655   7.118  20.165  0.00  0.00    +0.000 C 
BRANCH   4   5
ATOM      5  C   UNL     1       1.596   7.981  21.421  0.00  0.00    +0.000 C 
BRANCH   5   6
ATOM      6  C   UNL     1       0.253   8.686  21.577  0.00  0.00    +0.000 C 
BRANCH   6   7
ATOM      7  C   UNL     1       0.404   9.945  22.412  0.00  0.00    +0.000 C 
ATOM      8  O   UNL     1      -0.119  10.151  23.498  0.00  0.00    +0.000 OA
BRANCH   7   9
ATOM      9  O   UNL     1       1.081  10.875  21.689  0.00  0.00    +0.000 OA
BRANCH   9  10
ATOM     10  C   UNL     1       0.335  11.406  20.592  0.00  0.00    +0.000 C 
BRANCH  10  11
ATOM     11  C   UNL     1      -0.232  12.775  20.916  0.00  0.00    +0.000 C 
BRANCH  11  12
ATOM     12  O   UNL     1      -1.235  13.113  19.952  0.00  0.00    +0.000 OA
BRANCH  12  13
ATOM     13  C   UNL     1      -1.987  11.962  19.559  0.00  0.00    +0.000 C 
BRANCH  13  14
ATOM     14  C   UNL     1      -2.039  11.869  18.039  0.00  0.00    +0.000 C 
BRANCH  14  15
ATOM     15  O   UNL     1      -2.848  10.752  17.654  0.00  0.00    +0.000 OA
BRANCH  15  16
ATOM     16  C   UNL     1      -3.467  10.981  16.384  0.00  0.00    +0.000 C 
BRANCH  16  17
ATOM     17  C   UNL     1      -3.236   9.769  15.488  0.00  0.00    +0.000 C 
BRANCH  17  18
ATOM     18  O   UNL     1      -2.621  10.150  14.256  0.00  0.00    +0.000 OA
ATOM     19  H   UNL     1      -2.416   9.313  13.795  0.00  0.00    +0.000 HD
ENDBRANCH  17  18
ENDBRANCH  16  17
ENDBRANCH  15  16
ENDBRANCH  14  15
ENDBRANCH  13  14
ENDBRANCH  12  13
ENDBRANCH  11  12
ENDBRANCH  10  11
ENDBRANCH   9  10
ENDBRANCH   7   9
ENDBRANCH   6   7
ENDBRANCH   5   6
ENDBRANCH   4   5
ENDBRANCH   3   4
ENDBRANCH   2   3
ENDBRANCH   1   2
BRANCH   1  20
ATOM     20  C   UNL     1       1.323   2.285  20.251  0.00  0.00    +0.000 C 
BRANCH  20  21
ATOM     21  C   UNL     1       0.895   2.756  18.865  0.00  0.00    +0.000 C 
BRANCH  21  22
ATOM     22  C   UNL     1       2.067   2.734  17.888  0.00  0.00    +0.000 C 
BRANCH  22  24
ATOM     23  C   UNL     1       4.322   2.428  18.927  0.00  0.00    +0.000 C 
ATOM     24  C   UNL     1       3.213   1.895  18.393  0.00  0.00    +0.000 C 
BRANCH  23  25
ATOM     25  C   UNL     1       4.514   3.908  19.060  0.00  0.00    +0.000 C 
BRANCH  25  26
ATOM     26  C   UNL     1       4.610   4.603  17.718  0.00  0.00    +0.000 C 
BRANCH  26  27
ATOM     27  C   UNL     1       5.770   5.604  17.681  0.00  0.00    +0.000 C 
BRANCH  27  28
ATOM     28  C   UNL     1       7.040   4.919  17.208  0.00  0.00    +0.000 C 
BRANCH  28  32
ATOM     29  N   UNL     1       6.427   3.364  13.948  0.00  0.00    +0.000 N 
ATOM     30  C   UNL     1       6.703   4.392  14.824  0.00  0.00    +0.000 C 
ATOM     31  O   UNL     1       6.818   5.551  14.466  0.00  0.00    +0.000 OA
ATOM     32  N   UNL     1       6.790   3.974  16.126  0.00  0.00    +0.000 N 
ATOM     33  H   UNL     1       6.328   2.428  14.286  0.00  0.00    +0.000 HD
ATOM     34  H   UNL     1       6.669   3.001  16.341  0.00  0.00    +0.000 HD
BRANCH  29  36
ATOM     35  C   UNL     1       5.385   2.626  11.837  0.00  0.00    +0.000 C 
ATOM     36  C   UNL     1       6.268   3.645  12.535  0.00  0.00    +0.000 C 
ENDBRANCH  29  36
ENDBRANCH  28  32
ENDBRANCH  27  28
ENDBRANCH  26  27
ENDBRANCH  25  26
ENDBRANCH  23  25
ENDBRANCH  22  24
ENDBRANCH  21  22
ENDBRANCH  20  21
ENDBRANCH   1  20
TORSDOF 26
ENDMDL
MODEL 2
REMARK VINA RESULT:      -5.9      2.714      4.804
REMARK  Name = 
REMARK  27 active torsions:
REMARK  status: ('A' for Active; 'I' for Inactive)
REMARK    1  A    between atoms: C_1  and  C_2
REMARK    2  A    between atoms: C_2  and  N_3
REMARK    3  A    between atoms: N_6  and  C_7
REMARK    4  A    between atoms: C_7  and  C_8
REMARK    5  A    between atoms: C_8  and  C_9
REMARK    6  A    between atoms: C_9  and  C_10
REMARK    7  A    between atoms: C_10  and  C_11
REMARK    8  A    between atoms: C_12  and  C_13
REMARK    9  A    between atoms: C_13  and  C_14
REMARK   10  A    between atoms: C_14  and  C_15
REMARK   11  A    between atoms: C_15  and  C_16
REMARK   12  A    between atoms: C_16  and  C_17
REMARK   13  A    between atoms: C_17  and  C_18
REMARK   14  A    between atoms: C_18  and  C_19
REMARK   15  A    between atoms: C_19  and  C_20
REMARK   16  A    between atoms: C_20  and  C_21
REMARK   17  A    between atoms: C_21  and  C_22
REMARK   18  A    between atoms: C_22  and  O_24
REMARK   19  A    between atoms: O_24  and  C_25
REMARK   20  A    between atoms: C_25  and  C_26
REMARK   21  A    between atoms: C_26  and  O_27
REMARK   22  A    between atoms: O_27  and  C_28
REMARK   23  A    between atoms: C_28  and  C_29
REMARK   24  A    between atoms: C_29  and  O_30
REMARK   25  A    between atoms: O_30  and  C_31
REMARK   26  A    between atoms: C_31  and  C_32
REMARK   27  A    between atoms: C_32  and  O_33
REMARK                            x       y       z     vdW  Elec       q    Type
REMARK                         _______ _______ _______ _____ _____    ______ ____
ROOT
ATOM      1  C   UNL     1       2.810   7.929  17.848  0.00  0.00    +0.000 C 
ENDROOT
BRANCH   1   2
ATOM      2  C   UNL     1       1.583   8.802  18.035  0.00  0.00    +0.000 C 
BRANCH   2   3
ATOM      3  C   UNL     1       1.714   9.622  19.311  0.00  0.00    +0.000 C 
BRANCH   3   4
ATOM      4  C   UNL     1       0.343   9.898  19.920  0.00  0.00    +0.000 C 
BRANCH   4   5
ATOM      5  C   UNL     1       0.097  11.401  19.993  0.00  0.00    +0.000 C 
BRANCH   5   6
ATOM      6  C   UNL     1      -1.252  11.737  20.619  0.00  0.00    +0.000 C 
BRANCH   6   7
ATOM      7  C   UNL     1      -2.273  12.065  19.546  0.00  0.00    +0.000 C 
ATOM      8  O   UNL     1      -3.412  12.465  19.738  0.00  0.00    +0.000 OA
BRANCH   7   9
ATOM      9  O   UNL     1      -1.778  11.691  18.337  0.00  0.00    +0.000 OA
BRANCH   9  10
ATOM     10  C   UNL     1      -2.606  10.758  17.640  0.00  0.00    +0.000 C 
BRANCH  10  11
ATOM     11  C   UNL     1      -3.025  11.291  16.282  0.00  0.00    +0.000 C 
BRANCH  11  12
ATOM     12  O   UNL     1      -4.417  11.030  16.079  0.00  0.00    +0.000 OA
BRANCH  12  13
ATOM     13  C   UNL     1      -5.136  11.054  17.315  0.00  0.00    +0.000 C 
BRANCH  13  14
ATOM     14  C   UNL     1      -6.102  12.233  17.331  0.00  0.00    +0.000 C 
BRANCH  14  15
ATOM     15  O   UNL     1      -7.236  11.912  18.145  0.00  0.00    +0.000 OA
BRANCH  15  16
ATOM     16  C   UNL     1      -6.953  10.800  19.002  0.00  0.00    +0.000 C 
BRANCH  16  17
ATOM     17  C   UNL     1      -7.073  11.244  20.456  0.00  0.00    +0.000 C 
BRANCH  17  18
ATOM     18  O   UNL     1      -7.488  10.162  21.291  0.00  0.00    +0.000 OA
ATOM     19  H   UNL     1      -8.203  10.522  21.851  0.00  0.00    +0.000 HD
ENDBRANCH  17  18
ENDBRANCH  16  17
ENDBRANCH  15  16
ENDBRANCH  14  15
ENDBRANCH  13  14
ENDBRANCH  12  13
ENDBRANCH  11  12
ENDBRANCH  10  11
ENDBRANCH   9  10
ENDBRANCH   7   9
ENDBRANCH   6   7
ENDBRANCH   5   6
ENDBRANCH   4   5
ENDBRANCH   3   4
ENDBRANCH   2   3
ENDBRANCH   1   2
BRANCH   1  20
ATOM     20  C   UNL     1       2.505   6.479  18.216  0.00  0.00    +0.000 C 
BRANCH  20  21
ATOM     21  C   UNL     1       2.767   6.233  19.698  0.00  0.00    +0.000 C 
BRANCH  21  22
ATOM     22  C   UNL     1       1.515   5.720  20.403  0.00  0.00    +0.000 C 
BRANCH  22  24
ATOM     23  C   UNL     1       1.622   3.229  20.603  0.00  0.00    +0.000 C 
ATOM     24  C   UNL     1       1.771   4.441  21.158  0.00  0.00    +0.000 C 
BRANCH  23  25
ATOM     25  C   UNL     1       1.182   3.049  19.182  0.00  0.00    +0.000 C 
BRANCH  25  26
ATOM     26  C   UNL     1       2.067   2.087  18.417  0.00  0.00    +0.000 C 
BRANCH  26  27
ATOM     27  C   UNL     1       3.114   2.825  17.577  0.00  0.00    +0.000 C 
BRANCH  27  28
ATOM     28  C   UNL     1       4.324   3.167  18.428  0.00  0.00    +0.000 C 
BRANCH  28  32
ATOM     29  N   UNL     1       6.847   5.715  17.676  0.00  0.00    +0.000 N 
ATOM     30  C   UNL     1       6.105   4.870  18.474  0.00  0.00    +0.000 C 
ATOM     31  O   UNL     1       6.206   4.851  19.688  0.00  0.00    +0.000 OA
ATOM     32  N   UNL     1       5.225   4.099  17.761  0.00  0.00    +0.000 N 
ATOM     33  H   UNL     1       6.723   5.706  16.684  0.00  0.00    +0.000 HD
ATOM     34  H   UNL     1       5.193   4.184  16.761  0.00  0.00    +0.000 HD
BRANCH  29  36
ATOM     35  C   UNL     1       7.767   8.004  17.648  0.00  0.00    +0.000 C 
ATOM     36  C   UNL     1       7.800   6.624  18.281  0.00  0.00    +0.000 C 
ENDBRANCH  29  36
ENDBRANCH  28  32
ENDBRANCH  27  28
ENDBRANCH  26  27
ENDBRANCH  25  26
ENDBRANCH  23  25
ENDBRANCH  22  24
ENDBRANCH  21  22
ENDBRANCH  20  21
ENDBRANCH   1  20
TORSDOF 26
ENDMDL
MODEL 3
REMARK VINA RESULT:      -5.7      4.079     10.307
REMARK  Name = 
REMARK  27 active torsions:
REMARK  status: ('A' for Active; 'I' for Inactive)
REMARK    1  A    between atoms: C_1  and  C_2
REMARK    2  A    between atoms: C_2  and  N_3
REMARK    3  A    between atoms: N_6  and  C_7
REMARK    4  A    between atoms: C_7  and  C_8
REMARK    5  A    between atoms: C_8  and  C_9
REMARK    6  A    between atoms: C_9  and  C_10
REMARK    7  A    between atoms: C_10  and  C_11
REMARK    8  A    between atoms: C_12  and  C_13
REMARK    9  A    between atoms: C_13  and  C_14
REMARK   10  A    between atoms: C_14  and  C_15
REMARK   11  A    between atoms: C_15  and  C_16
REMARK   12  A    between atoms: C_16  and  C_17
REMARK   13  A    between atoms: C_17  and  C_18
REMARK   14  A    between atoms: C_18  and  C_19
REMARK   15  A    between atoms: C_19  and  C_20
REMARK   16  A    between atoms: C_20  and  C_21
REMARK   17  A    between atoms: C_21  and  C_22
REMARK   18  A    between atoms: C_22  and  O_24
REMARK   19  A    between atoms: O_24  and  C_25
REMARK   20  A    between atoms: C_25  and  C_26
REMARK   21  A    between atoms: C_26  and  O_27
REMARK   22  A    between atoms: O_27  and  C_28
REMARK   23  A    between atoms: C_28  and  C_29
REMARK   24  A    between atoms: C_29  and  O_30
REMARK   25  A    between atoms: O_30  and  C_31
REMARK   26  A    between atoms: C_31  and  C_32
REMARK   27  A    between atoms: C_32  and  O_33
REMARK                            x       y       z     vdW  Elec       q    Type
REMARK                         _______ _______ _______ _____ _____    ______ ____
ROOT
ATOM      1  C   UNL     1       1.286   4.586  20.114  0.00  0.00    +0.000 C 
ENDROOT
BRANCH   1   2
ATOM      2  C   UNL     1       2.109   3.385  20.542  0.00  0.00    +0.000 C 
BRANCH   2   3
ATOM      3  C   UNL     1       1.850   2.212  19.605  0.00  0.00    +0.000 C 
BRANCH   3   4
ATOM      4  C   UNL     1       2.685   2.341  18.336  0.00  0.00    +0.000 C 
BRANCH   4   5
ATOM      5  C   UNL     1       4.135   2.647  18.693  0.00  0.00    +0.000 C 
BRANCH   5   6
ATOM      6  C   UNL     1       4.639   3.922  18.027  0.00  0.00    +0.000 C 
BRANCH   6   7
ATOM      7  C   UNL     1       5.589   4.666  18.947  0.00  0.00    +0.000 C 
ATOM      8  O   UNL     1       5.269   5.474  19.807  0.00  0.00    +0.000 OA
BRANCH   7   9
ATOM      9  O   UNL     1       6.867   4.416  18.557  0.00  0.00    +0.000 OA
BRANCH   9  10
ATOM     10  C   UNL     1       7.598   5.589  18.196  0.00  0.00    +0.000 C 
BRANCH  10  11
ATOM     11  C   UNL     1       6.909   6.354  17.082  0.00  0.00    +0.000 C 
BRANCH  11  12
ATOM     12  O   UNL     1       7.301   5.808  15.818  0.00  0.00    +0.000 OA
BRANCH  12  13
ATOM     13  C   UNL     1       6.211   5.136  15.181  0.00  0.00    +0.000 C 
BRANCH  13  14
ATOM     14  C   UNL     1       6.641   4.634  13.808  0.00  0.00    +0.000 C 
BRANCH  14  15
ATOM     15  O   UNL     1       5.966   3.406  13.514  0.00  0.00    +0.000 OA
BRANCH  15  16
ATOM     16  C   UNL     1       5.290   3.481  12.255  0.00  0.00    +0.000 C 
BRANCH  16  17
ATOM     17  C   UNL     1       5.639   2.251  11.424  0.00  0.00    +0.000 C 
BRANCH  17  18
ATOM     18  O   UNL     1       6.960   1.791  11.717  0.00  0.00    +0.000 OA
ATOM     19  H   UNL     1       7.487   2.595  11.887  0.00  0.00    +0.000 HD
ENDBRANCH  17  18
ENDBRANCH  16  17
ENDBRANCH  15  16
ENDBRANCH  14  15
ENDBRANCH  13  14
ENDBRANCH  12  13
ENDBRANCH  11  12
ENDBRANCH  10  11
ENDBRANCH   9  10
ENDBRANCH   7   9
ENDBRANCH   6   7
ENDBRANCH   5   6
ENDBRANCH   4   5
ENDBRANCH   3   4
ENDBRANCH   2   3
ENDBRANCH   1   2
BRANCH   1  20
ATOM     20  C   UNL     1       2.132   5.856  20.131  0.00  0.00    +0.000 C 
BRANCH  20  21
ATOM     21  C   UNL     1       2.062   6.568  18.784  0.00  0.00    +0.000 C 
BRANCH  21  22
ATOM     22  C   UNL     1       2.226   8.076  18.947  0.00  0.00    +0.000 C 
BRANCH  22  24
ATOM     23  C   UNL     1       0.520   9.611  19.943  0.00  0.00    +0.000 C 
ATOM     24  C   UNL     1       1.408   8.616  20.092  0.00  0.00    +0.000 C 
BRANCH  23  25
ATOM     25  C   UNL     1       0.273  10.271  18.621  0.00  0.00    +0.000 C 
BRANCH  25  26
ATOM     26  C   UNL     1       0.135  11.775  18.739  0.00  0.00    +0.000 C 
BRANCH  26  27
ATOM     27  C   UNL     1      -1.332  12.212  18.715  0.00  0.00    +0.000 C 
BRANCH  27  28
ATOM     28  C   UNL     1      -2.175  11.187  17.977  0.00  0.00    +0.000 C 
BRANCH  28  32
ATOM     29  N   UNL     1      -5.445  12.479  16.951  0.00  0.00    +0.000 N 
ATOM     30  C   UNL     1      -4.524  11.909  17.803  0.00  0.00    +0.000 C 
ATOM     31  O   UNL     1      -4.814  11.517  18.920  0.00  0.00    +0.000 OA
ATOM     32  N   UNL     1      -3.278  11.798  17.246  0.00  0.00    +0.000 N 
ATOM     33  H   UNL     1      -5.167  12.777  16.037  0.00  0.00    +0.000 HD
ATOM     34  H   UNL     1      -3.123  12.134  16.312  0.00  0.00    +0.000 HD
BRANCH  29  36
ATOM     35  C   UNL     1      -7.117  14.039  17.876  0.00  0.00    +0.000 C 
ATOM     36  C   UNL     1      -6.821  12.636  17.377  0.00  0.00    +0.000 C 
ENDBRANCH  29  36
ENDBRANCH  28  32
ENDBRANCH  27  28
ENDBRANCH  26  27
ENDBRANCH  25  26
ENDBRANCH  23  25
ENDBRANCH  22  24
ENDBRANCH  21  22
ENDBRANCH  20  21
ENDBRANCH   1  20
TORSDOF 26
ENDMDL
MODEL 4
REMARK VINA RESULT:      -5.7      1.860      4.825
REMARK  Name = 
REMARK  27 active torsions:
REMARK  status: ('A' for Active; 'I' for Inactive)
REMARK    1  A    between atoms: C_1  and  C_2
REMARK    2  A    between atoms: C_2  and  N_3
REMARK    3  A    between atoms: N_6  and  C_7
REMARK    4  A    between atoms: C_7  and  C_8
REMARK    5  A    between atoms: C_8  and  C_9
REMARK    6  A    between atoms: C_9  and  C_10
REMARK    7  A    between atoms: C_10  and  C_11
REMARK    8  A    between atoms: C_12  and  C_13
REMARK    9  A    between atoms: C_13  and  C_14
REMARK   10  A    between atoms: C_14  and  C_15
REMARK   11  A    between atoms: C_15  and  C_16
REMARK   12  A    between atoms: C_16  and  C_17
REMARK   13  A    between atoms: C_17  and  C_18
REMARK   14  A    between atoms: C_18  and  C_19
REMARK   15  A    between atoms: C_19  and  C_20
REMARK   16  A    between atoms: C_20  and  C_21
REMARK   17  A    between atoms: C_21  and  C_22
REMARK   18  A    between atoms: C_22  and  O_24
REMARK   19  A    between atoms: O_24  and  C_25
REMARK   20  A    between atoms: C_25  and  C_26
REMARK   21  A    between atoms: C_26  and  O_27
REMARK   22  A    between atoms: O_27  and  C_28
REMARK   23  A    between atoms: C_28  and  C_29
REMARK   24  A    between atoms: C_29  and  O_30
REMARK   25  A    between atoms: O_30  and  C_31
REMARK   26  A    between atoms: C_31  and  C_32
REMARK   27  A    between atoms: C_32  and  O_33
REMARK                            x       y       z     vdW  Elec       q    Type
REMARK                         _______ _______ _______ _____ _____    ______ ____
ROOT
ATOM      1  C   UNL     1       2.476   8.145  18.615  0.00  0.00    +0.000 C 
ENDROOT
BRANCH   1   2
ATOM      2  C   UNL     1       1.707   9.103  17.722  0.00  0.00    +0.000 C 
BRANCH   2   3
ATOM      3  C   UNL     1       1.148  10.253  18.548  0.00  0.00    +0.000 C 
BRANCH   3   4
ATOM      4  C   UNL     1      -0.316  10.006  18.897  0.00  0.00    +0.000 C 
BRANCH   4   5
ATOM      5  C   UNL     1      -1.184  10.176  17.654  0.00  0.00    +0.000 C 
BRANCH   5   6
ATOM      6  C   UNL     1      -2.649   9.849  17.922  0.00  0.00    +0.000 C 
BRANCH   6   7
ATOM      7  C   UNL     1      -3.540  11.002  17.498  0.00  0.00    +0.000 C 
ATOM      8  O   UNL     1      -3.554  11.528  16.394  0.00  0.00    +0.000 OA
BRANCH   7   9
ATOM      9  O   UNL     1      -4.208  11.467  18.586  0.00  0.00    +0.000 OA
BRANCH   9  10
ATOM     10  C   UNL     1      -3.379  12.169  19.513  0.00  0.00    +0.000 C 
BRANCH  10  11
ATOM     11  C   UNL     1      -4.180  13.156  20.341  0.00  0.00    +0.000 C 
BRANCH  11  12
ATOM     12  O   UNL     1      -4.248  12.695  21.695  0.00  0.00    +0.000 OA
BRANCH  12  13
ATOM     13  C   UNL     1      -3.134  13.163  22.459  0.00  0.00    +0.000 C 
BRANCH  13  14
ATOM     14  C   UNL     1      -2.517  12.008  23.239  0.00  0.00    +0.000 C 
BRANCH  14  15
ATOM     15  O   UNL     1      -1.093  12.155  23.269  0.00  0.00    +0.000 OA
BRANCH  15  16
ATOM     16  C   UNL     1      -0.473  11.348  22.261  0.00  0.00    +0.000 C 
BRANCH  16  17
ATOM     17  C   UNL     1      -0.505   9.888  22.700  0.00  0.00    +0.000 C 
BRANCH  17  18
ATOM     18  O   UNL     1       0.355   9.668  23.819  0.00  0.00    +0.000 OA
ATOM     19  H   UNL     1       0.045  10.281  24.513  0.00  0.00    +0.000 HD
ENDBRANCH  17  18
ENDBRANCH  16  17
ENDBRANCH  15  16
ENDBRANCH  14  15
ENDBRANCH  13  14
ENDBRANCH  12  13
ENDBRANCH  11  12
ENDBRANCH  10  11
ENDBRANCH   9  10
ENDBRANCH   7   9
ENDBRANCH   6   7
ENDBRANCH   5   6
ENDBRANCH   4   5
ENDBRANCH   3   4
ENDBRANCH   2   3
ENDBRANCH   1   2
BRANCH   1  20
ATOM     20  C   UNL     1       1.606   6.953  19.006  0.00  0.00    +0.000 C 
BRANCH  20  21
ATOM     21  C   UNL     1       1.867   6.547  20.453  0.00  0.00    +0.000 C 
BRANCH  21  22
ATOM     22  C   UNL     1       2.385   5.114  20.540  0.00  0.00    +0.000 C 
BRANCH  22  24
ATOM     23  C   UNL     1       0.878   3.309  19.687  0.00  0.00    +0.000 C 
ATOM     24  C   UNL     1       1.266   4.115  20.687  0.00  0.00    +0.000 C 
BRANCH  23  25
ATOM     25  C   UNL     1       1.525   3.342  18.336  0.00  0.00    +0.000 C 
BRANCH  25  26
ATOM     26  C   UNL     1       2.131   2.009  17.950  0.00  0.00    +0.000 C 
BRANCH  26  27
ATOM     27  C   UNL     1       3.655   2.014  18.106  0.00  0.00    +0.000 C 
BRANCH  27  28
ATOM     28  C   UNL     1       4.200   3.417  17.907  0.00  0.00    +0.000 C 
BRANCH  28  32
ATOM     29  N   UNL     1       6.759   4.043  15.362  0.00  0.00    +0.000 N 
ATOM     30  C   UNL     1       5.540   4.190  15.988  0.00  0.00    +0.000 C 
ATOM     31  O   UNL     1       4.652   4.897  15.547  0.00  0.00    +0.000 OA
ATOM     32  N   UNL     1       5.428   3.429  17.123  0.00  0.00    +0.000 N 
ATOM     33  H   UNL     1       7.457   3.442  15.753  0.00  0.00    +0.000 HD
ATOM     34  H   UNL     1       6.203   2.860  17.413  0.00  0.00    +0.000 HD
BRANCH  29  36
ATOM     35  C   UNL     1       6.586   3.972  12.902  0.00  0.00    +0.000 C 
ATOM     36  C   UNL     1       7.024   4.754  14.127  0.00  0.00    +0.000 C 
ENDBRANCH  29  36
ENDBRANCH  28  32
ENDBRANCH  27  28
ENDBRANCH  26  27
ENDBRANCH  25  26
ENDBRANCH  23  25
ENDBRANCH  22  24
ENDBRANCH  21  22
ENDBRANCH  20  21
ENDBRANCH   1  20
TORSDOF 26
ENDMDL
MODEL 5
REMARK VINA RESULT:      -5.7      7.070     10.904
REMARK  Name = 
REMARK  27 active torsions:
REMARK  status: ('A' for Active; 'I' for Inactive)
REMARK    1  A    between atoms: C_1  and  C_2
REMARK    2  A    between atoms: C_2  and  N_3
REMARK    3  A    between atoms: N_6  and  C_7
REMARK    4  A    between atoms: C_7  and  C_8
REMARK    5  A    between atoms: C_8  and  C_9
REMARK    6  A    between atoms: C_9  and  C_10
REMARK    7  A    between atoms: C_10  and  C_11
REMARK    8  A    between atoms: C_12  and  C_13
REMARK    9  A    between atoms: C_13  and  C_14
REMARK   10  A    between atoms: C_14  and  C_15
REMARK   11  A    between atoms: C_15  and  C_16
REMARK   12  A    between atoms: C_16  and  C_17
REMARK   13  A    between atoms: C_17  and  C_18
REMARK   14  A    between atoms: C_18  and  C_19
REMARK   15  A    between atoms: C_19  and  C_20
REMARK   16  A    between atoms: C_20  and  C_21
REMARK   17  A    between atoms: C_21  and  C_22
REMARK   18  A    between atoms: C_22  and  O_24
REMARK   19  A    between atoms: O_24  and  C_25
REMARK   20  A    between atoms: C_25  and  C_26
REMARK   21  A    between atoms: C_26  and  O_27
REMARK   22  A    between atoms: O_27  and  C_28
REMARK   23  A    between atoms: C_28  and  C_29
REMARK   24  A    between atoms: C_29  and  O_30
REMARK   25  A    between atoms: O_30  and  C_31
REMARK   26  A    between atoms: C_31  and  C_32
REMARK   27  A    between atoms: C_32  and  O_33
REMARK                            x       y       z     vdW  Elec       q    Type
REMARK                         _______ _______ _______ _____ _____    ______ ____
ROOT
ATOM      1  C   UNL     1       9.685  10.822  17.965  0.00  0.00    +0.000 C 
ENDROOT
BRANCH   1   2
ATOM      2  C   UNL     1       8.961   9.748  18.756  0.00  0.00    +0.000 C 
BRANCH   2   3
ATOM      3  C   UNL     1       7.772   9.224  17.962  0.00  0.00    +0.000 C 
BRANCH   3   4
ATOM      4  C   UNL     1       7.951   7.746  17.632  0.00  0.00    +0.000 C 
BRANCH   4   5
ATOM      5  C   UNL     1       6.626   7.151  17.168  0.00  0.00    +0.000 C 
BRANCH   5   6
ATOM      6  C   UNL     1       6.752   5.678  16.794  0.00  0.00    +0.000 C 
BRANCH   6   7
ATOM      7  C   UNL     1       7.464   4.907  17.890  0.00  0.00    +0.000 C 
ATOM      8  O   UNL     1       8.396   4.133  17.731  0.00  0.00    +0.000 OA
BRANCH   7   9
ATOM      9  O   UNL     1       6.798   5.088  19.060  0.00  0.00    +0.000 OA
BRANCH   9  10
ATOM     10  C   UNL     1       5.481   4.534  19.064  0.00  0.00    +0.000 C 
BRANCH  10  11
ATOM     11  C   UNL     1       4.451   5.549  19.523  0.00  0.00    +0.000 C 
BRANCH  11  12
ATOM     12  O   UNL     1       3.143   5.099  19.154  0.00  0.00    +0.000 OA
BRANCH  12  13
ATOM     13  C   UNL     1       3.013   4.989  17.734  0.00  0.00    +0.000 C 
BRANCH  13  14
ATOM     14  C   UNL     1       2.556   3.584  17.362  0.00  0.00    +0.000 C 
BRANCH  14  15
ATOM     15  O   UNL     1       1.184   3.411  17.735  0.00  0.00    +0.000 OA
BRANCH  15  16
ATOM     16  C   UNL     1       1.036   2.327  18.658  0.00  0.00    +0.000 C 
BRANCH  16  17
ATOM     17  C   UNL     1       0.599   2.877  20.011  0.00  0.00    +0.000 C 
BRANCH  17  18
ATOM     18  O   UNL     1       1.705   3.439  20.719  0.00  0.00    +0.000 OA
ATOM     19  H   UNL     1       1.635   3.097  21.632  0.00  0.00    +0.000 HD
ENDBRANCH  17  18
ENDBRANCH  16  17
ENDBRANCH  15  16
ENDBRANCH  14  15
ENDBRANCH  13  14
ENDBRANCH  12  13
ENDBRANCH  11  12
ENDBRANCH  10  11
ENDBRANCH   9  10
ENDBRANCH   7   9
ENDBRANCH   6   7
ENDBRANCH   5   6
ENDBRANCH   4   5
ENDBRANCH   3   4
ENDBRANCH   2   3
ENDBRANCH   1   2
BRANCH   1  20
ATOM     20  C   UNL     1       9.454  12.199  18.584  0.00  0.00    +0.000 C 
BRANCH  20  21
ATOM     21  C   UNL     1       9.673  12.155  20.092  0.00  0.00    +0.000 C 
BRANCH  21  22
ATOM     22  C   UNL     1       8.960  13.311  20.787  0.00  0.00    +0.000 C 
BRANCH  22  24
ATOM     23  C   UNL     1      10.434  15.174  21.571  0.00  0.00    +0.000 C 
ATOM     24  C   UNL     1       9.841  13.993  21.803  0.00  0.00    +0.000 C 
BRANCH  23  25
ATOM     25  C   UNL     1      10.272  15.909  20.276  0.00  0.00    +0.000 C 
BRANCH  25  26
ATOM     26  C   UNL     1      11.314  15.515  19.250  0.00  0.00    +0.000 C 
BRANCH  26  27
ATOM     27  C   UNL     1      10.739  15.510  17.830  0.00  0.00    +0.000 C 
BRANCH  27  28
ATOM     28  C   UNL     1       9.408  16.240  17.800  0.00  0.00    +0.000 C 
BRANCH  28  32
ATOM     29  N   UNL     1       6.152  14.567  17.642  0.00  0.00    +0.000 N 
ATOM     30  C   UNL     1       7.064  15.519  18.046  0.00  0.00    +0.000 C 
ATOM     31  O   UNL     1       6.796  16.386  18.859  0.00  0.00    +0.000 OA
ATOM     32  N   UNL     1       8.297  15.355  17.472  0.00  0.00    +0.000 N 
ATOM     33  H   UNL     1       6.419  13.864  16.981  0.00  0.00    +0.000 HD
ATOM     34  H   UNL     1       8.442  14.605  16.820  0.00  0.00    +0.000 HD
BRANCH  29  36
ATOM     35  C   UNL     1       3.871  15.470  17.391  0.00  0.00    +0.000 C 
ATOM     36  C   UNL     1       4.810  14.579  18.186  0.00  0.00    +0.000 C 
ENDBRANCH  29  36
ENDBRANCH  28  32
ENDBRANCH  27  28
ENDBRANCH  26  27
ENDBRANCH  25  26
ENDBRANCH  23  25
ENDBRANCH  22  24
ENDBRANCH  21  22
ENDBRANCH  20  21
ENDBRANCH   1  20
TORSDOF 26
ENDMDL
MODEL 6
REMARK VINA RESULT:      -5.5      3.762      9.596
REMARK  Name = 
REMARK  27 active torsions:
REMARK  status: ('A' for Active; 'I' for Inactive)
REMARK    1  A    between atoms: C_1  and  C_2
REMARK    2  A    between atoms: C_2  and  N_3
REMARK    3  A    between atoms: N_6  and  C_7
REMARK    4  A    between atoms: C_7  and  C_8
REMARK    5  A    between atoms: C_8  and  C_9
REMARK    6  A    between atoms: C_9  and  C_10
REMARK    7  A    between atoms: C_10  and  C_11
REMARK    8  A    between atoms: C_12  and  C_13
REMARK    9  A    between atoms: C_13  and  C_14
REMARK   10  A    between atoms: C_14  and  C_15
REMARK   11  A    between atoms: C_15  and  C_16
REMARK   12  A    between atoms: C_16  and  C_17
REMARK   13  A    between atoms: C_17  and  C_18
REMARK   14  A    between atoms: C_18  and  C_19
REMARK   15  A    between atoms: C_19  and  C_20
REMARK   16  A    between atoms: C_20  and  C_21
REMARK   17  A    between atoms: C_21  and  C_22
REMARK   18  A    between atoms: C_22  and  O_24
REMARK   19  A    between atoms: O_24  and  C_25
REMARK   20  A    between atoms: C_25  and  C_26
REMARK   21  A    between atoms: C_26  and  O_27
REMARK   22  A    between atoms: O_27  and  C_28
REMARK   23  A    between atoms: C_28  and  C_29
REMARK   24  A    between atoms: C_29  and  O_30
REMARK   25  A    between atoms: O_30  and  C_31
REMARK   26  A    between atoms: C_31  and  C_32
REMARK   27  A    between atoms: C_32  and  O_33
REMARK                            x       y       z     vdW  Elec       q    Type
REMARK                         _______ _______ _______ _____ _____    ______ ____
ROOT
ATOM      1  C   UNL     1       2.965   7.561  18.711  0.00  0.00    +0.000 C 
ENDROOT
BRANCH   1   2
ATOM      2  C   UNL     1       2.561   6.471  17.735  0.00  0.00    +0.000 C 
BRANCH   2   3
ATOM      3  C   UNL     1       1.725   5.415  18.445  0.00  0.00    +0.000 C 
BRANCH   3   4
ATOM      4  C   UNL     1       1.700   4.118  17.645  0.00  0.00    +0.000 C 
BRANCH   4   5
ATOM      5  C   UNL     1       0.901   3.057  18.395  0.00  0.00    +0.000 C 
BRANCH   5   6
ATOM      6  C   UNL     1       1.773   1.895  18.860  0.00  0.00    +0.000 C 
BRANCH   6   7
ATOM      7  C   UNL     1       2.859   2.384  19.799  0.00  0.00    +0.000 C 
ATOM      8  O   UNL     1       2.682   2.912  20.887  0.00  0.00    +0.000 OA
BRANCH   7   9
ATOM      9  O   UNL     1       4.061   2.292  19.170  0.00  0.00    +0.000 OA
BRANCH   9  10
ATOM     10  C   UNL     1       5.034   3.220  19.651  0.00  0.00    +0.000 C 
BRANCH  10  11
ATOM     11  C   UNL     1       5.328   4.300  18.628  0.00  0.00    +0.000 C 
BRANCH  11  12
ATOM     12  O   UNL     1       6.708   4.670  18.710  0.00  0.00    +0.000 OA
BRANCH  12  13
ATOM     13  C   UNL     1       6.915   6.009  18.253  0.00  0.00    +0.000 C 
BRANCH  13  14
ATOM     14  C   UNL     1       6.725   6.077  16.742  0.00  0.00    +0.000 C 
BRANCH  14  15
ATOM     15  O   UNL     1       7.542   5.085  16.111  0.00  0.00    +0.000 OA
BRANCH  15  16
ATOM     16  C   UNL     1       7.154   4.893  14.747  0.00  0.00    +0.000 C 
BRANCH  16  17
ATOM     17  C   UNL     1       5.936   3.977  14.697  0.00  0.00    +0.000 C 
BRANCH  17  18
ATOM     18  O   UNL     1       6.000   2.980  15.717  0.00  0.00    +0.000 OA
ATOM     19  H   UNL     1       6.725   2.380  15.453  0.00  0.00    +0.000 HD
ENDBRANCH  17  18
ENDBRANCH  16  17
ENDBRANCH  15  16
ENDBRANCH  14  15
ENDBRANCH  13  14
ENDBRANCH  12  13
ENDBRANCH  11  12
ENDBRANCH  10  11
ENDBRANCH   9  10
ENDBRANCH   7   9
ENDBRANCH   6   7
ENDBRANCH   5   6
ENDBRANCH   4   5
ENDBRANCH   3   4
ENDBRANCH   2   3
ENDBRANCH   1   2
BRANCH   1  20
ATOM     20  C   UNL     1       1.739   8.321  19.213  0.00  0.00    +0.000 C 
BRANCH  20  21
ATOM     21  C   UNL     1       1.478   8.013  20.683  0.00  0.00    +0.000 C 
BRANCH  21  22
ATOM     22  C   UNL     1       1.387   9.293  21.508  0.00  0.00    +0.000 C 
BRANCH  22  24
ATOM     23  C   UNL     1      -0.501  10.064  22.957  0.00  0.00    +0.000 C 
ATOM     24  C   UNL     1       0.441   9.152  22.673  0.00  0.00    +0.000 C 
BRANCH  23  25
ATOM     25  C   UNL     1      -0.685  11.304  22.136  0.00  0.00    +0.000 C 
BRANCH  25  26
ATOM     26  C   UNL     1      -0.665  11.024  20.648  0.00  0.00    +0.000 C 
BRANCH  26  27
ATOM     27  C   UNL     1      -0.243  12.258  19.845  0.00  0.00    +0.000 C 
BRANCH  27  28
ATOM     28  C   UNL     1      -1.443  12.856  19.130  0.00  0.00    +0.000 C 
BRANCH  28  32
ATOM     29  N   UNL     1      -2.470  11.356  15.949  0.00  0.00    +0.000 N 
ATOM     30  C   UNL     1      -2.584  11.692  17.281  0.00  0.00    +0.000 C 
ATOM     31  O   UNL     1      -3.517  11.329  17.976  0.00  0.00    +0.000 OA
ATOM     32  N   UNL     1      -1.525  12.433  17.738  0.00  0.00    +0.000 N 
ATOM     33  H   UNL     1      -1.680  11.666  15.419  0.00  0.00    +0.000 HD
ATOM     34  H   UNL     1      -0.787  12.681  17.104  0.00  0.00    +0.000 HD
BRANCH  29  36
ATOM     35  C   UNL     1      -2.982   9.825  14.085  0.00  0.00    +0.000 C 
ATOM     36  C   UNL     1      -3.492  10.543  15.322  0.00  0.00    +0.000 C 
ENDBRANCH  29  36
ENDBRANCH  28  32
ENDBRANCH  27  28
ENDBRANCH  26  27
ENDBRANCH  25  26
ENDBRANCH  23  25
ENDBRANCH  22  24
ENDBRANCH  21  22
ENDBRANCH  20  21
ENDBRANCH   1  20
TORSDOF 26
ENDMDL
MODEL 7
REMARK VINA RESULT:      -5.5      4.083     10.261
REMARK  Name = 
REMARK  27 active torsions:
REMARK  status: ('A' for Active; 'I' for Inactive)
REMARK    1  A    between atoms: C_1  and  C_2
REMARK    2  A    between atoms: C_2  and  N_3
REMARK    3  A    between atoms: N_6  and  C_7
REMARK    4  A    between atoms: C_7  and  C_8
REMARK    5  A    between atoms: C_8  and  C_9
REMARK    6  A    between atoms: C_9  and  C_10
REMARK    7  A    between atoms: C_10  and  C_11
REMARK    8  A    between atoms: C_12  and  C_13
REMARK    9  A    between atoms: C_13  and  C_14
REMARK   10  A    between atoms: C_14  and  C_15
REMARK   11  A    between atoms: C_15  and  C_16
REMARK   12  A    between atoms: C_16  and  C_17
REMARK   13  A    between atoms: C_17  and  C_18
REMARK   14  A    between atoms: C_18  and  C_19
REMARK   15  A    between atoms: C_19  and  C_20
REMARK   16  A    between atoms: C_20  and  C_21
REMARK   17  A    between atoms: C_21  and  C_22
REMARK   18  A    between atoms: C_22  and  O_24
REMARK   19  A    between atoms: O_24  and  C_25
REMARK   20  A    between atoms: C_25  and  C_26
REMARK   21  A    between atoms: C_26  and  O_27
REMARK   22  A    between atoms: O_27  and  C_28
REMARK   23  A    between atoms: C_28  and  C_29
REMARK   24  A    between atoms: C_29  and  O_30
REMARK   25  A    between atoms: O_30  and  C_31
REMARK   26  A    between atoms: C_31  and  C_32
REMARK   27  A    between atoms: C_32  and  O_33
REMARK                            x       y       z     vdW  Elec       q    Type
REMARK                         _______ _______ _______ _____ _____    ______ ____
ROOT
ATOM      1  C   UNL     1       1.080   4.070  20.144  0.00  0.00    +0.000 C 
ENDROOT
BRANCH   1   2
ATOM      2  C   UNL     1       1.270   2.567  20.051  0.00  0.00    +0.000 C 
BRANCH   2   3
ATOM      3  C   UNL     1       1.602   2.170  18.618  0.00  0.00    +0.000 C 
BRANCH   3   4
ATOM      4  C   UNL     1       1.818   3.405  17.751  0.00  0.00    +0.000 C 
BRANCH   4   5
ATOM      5  C   UNL     1       3.260   3.450  17.256  0.00  0.00    +0.000 C 
BRANCH   5   6
ATOM      6  C   UNL     1       3.996   4.699  17.729  0.00  0.00    +0.000 C 
BRANCH   6   7
ATOM      7  C   UNL     1       5.011   4.348  18.800  0.00  0.00    +0.000 C 
ATOM      8  O   UNL     1       5.061   3.298  19.424  0.00  0.00    +0.000 OA
BRANCH   7   9
ATOM      9  O   UNL     1       5.761   5.448  19.074  0.00  0.00    +0.000 OA
BRANCH   9  10
ATOM     10  C   UNL     1       6.744   5.736  18.078  0.00  0.00    +0.000 C 
BRANCH  10  11
ATOM     11  C   UNL     1       7.520   4.493  17.686  0.00  0.00    +0.000 C 
BRANCH  11  12
ATOM     12  O   UNL     1       7.849   4.558  16.294  0.00  0.00    +0.000 OA
BRANCH  12  13
ATOM     13  C   UNL     1       6.741   5.024  15.520  0.00  0.00    +0.000 C 
BRANCH  13  14
ATOM     14  C   UNL     1       6.216   3.901  14.634  0.00  0.00    +0.000 C 
BRANCH  14  15
ATOM     15  O   UNL     1       6.492   4.204  13.262  0.00  0.00    +0.000 OA
BRANCH  15  16
ATOM     16  C   UNL     1       6.315   3.048  12.436  0.00  0.00    +0.000 C 
BRANCH  16  17
ATOM     17  C   UNL     1       5.269   3.350  11.369  0.00  0.00    +0.000 C 
BRANCH  17  18
ATOM     18  O   UNL     1       3.949   3.293  11.911  0.00  0.00    +0.000 OA
ATOM     19  H   UNL     1       3.759   4.194  12.238  0.00  0.00    +0.000 HD
ENDBRANCH  17  18
ENDBRANCH  16  17
ENDBRANCH  15  16
ENDBRANCH  14  15
ENDBRANCH  13  14
ENDBRANCH  12  13
ENDBRANCH  11  12
ENDBRANCH  10  11
ENDBRANCH   9  10
ENDBRANCH   7   9
ENDBRANCH   6   7
ENDBRANCH   5   6
ENDBRANCH   4   5
ENDBRANCH   3   4
ENDBRANCH   2   3
ENDBRANCH   1   2
BRANCH   1  20
ATOM     20  C   UNL     1       2.069   4.681  21.134  0.00  0.00    +0.000 C 
BRANCH  20  21
ATOM     21  C   UNL     1       2.593   6.016  20.617  0.00  0.00    +0.000 C 
BRANCH  21  22
ATOM     22  C   UNL     1       1.448   6.932  20.195  0.00  0.00    +0.000 C 
BRANCH  22  24
ATOM     23  C   UNL     1       0.937   9.269  20.927  0.00  0.00    +0.000 C 
ATOM     24  C   UNL     1       1.145   7.980  21.235  0.00  0.00    +0.000 C 
BRANCH  23  25
ATOM     25  C   UNL     1       0.996   9.773  19.518  0.00  0.00    +0.000 C 
BRANCH  25  26
ATOM     26  C   UNL     1      -0.253  10.533  19.121  0.00  0.00    +0.000 C 
BRANCH  26  27
ATOM     27  C   UNL     1       0.074  11.952  18.646  0.00  0.00    +0.000 C 
BRANCH  27  28
ATOM     28  C   UNL     1      -1.200  12.766  18.504  0.00  0.00    +0.000 C 
BRANCH  28  32
ATOM     29  N   UNL     1      -2.936  13.869  21.535  0.00  0.00    +0.000 N 
ATOM     30  C   UNL     1      -2.733  13.110  20.402  0.00  0.00    +0.000 C 
ATOM     31  O   UNL     1      -3.530  12.271  20.019  0.00  0.00    +0.000 OA
ATOM     32  N   UNL     1      -1.575  13.431  19.745  0.00  0.00    +0.000 N 
ATOM     33  H   UNL     1      -2.262  14.556  21.808  0.00  0.00    +0.000 HD
ATOM     34  H   UNL     1      -0.977  14.146  20.120  0.00  0.00    +0.000 HD
BRANCH  29  36
ATOM     35  C   UNL     1      -3.889  12.820  23.555  0.00  0.00    +0.000 C 
ATOM     36  C   UNL     1      -4.136  13.677  22.325  0.00  0.00    +0.000 C 
ENDBRANCH  29  36
ENDBRANCH  28  32
ENDBRANCH  27  28
ENDBRANCH  26  27
ENDBRANCH  25  26
ENDBRANCH  23  25
ENDBRANCH  22  24
ENDBRANCH  21  22
ENDBRANCH  20  21
ENDBRANCH   1  20
TORSDOF 26
ENDMDL
MODEL 8
REMARK VINA RESULT:      -5.5      3.522      5.454
REMARK  Name = 
REMARK  27 active torsions:
REMARK  status: ('A' for Active; 'I' for Inactive)
REMARK    1  A    between atoms: C_1  and  C_2
REMARK    2  A    between atoms: C_2  and  N_3
REMARK    3  A    between atoms: N_6  and  C_7
REMARK    4  A    between atoms: C_7  and  C_8
REMARK    5  A    between atoms: C_8  and  C_9
REMARK    6  A    between atoms: C_9  and  C_10
REMARK    7  A    between atoms: C_10  and  C_11
REMARK    8  A    between atoms: C_12  and  C_13
REMARK    9  A    between atoms: C_13  and  C_14
REMARK   10  A    between atoms: C_14  and  C_15
REMARK   11  A    between atoms: C_15  and  C_16
REMARK   12  A    between atoms: C_16  and  C_17
REMARK   13  A    between atoms: C_17  and  C_18
REMARK   14  A    between atoms: C_18  and  C_19
REMARK   15  A    between atoms: C_19  and  C_20
REMARK   16  A    between atoms: C_20  and  C_21
REMARK   17  A    between atoms: C_21  and  C_22
REMARK   18  A    between atoms: C_22  and  O_24
REMARK   19  A    between atoms: O_24  and  C_25
REMARK   20  A    between atoms: C_25  and  C_26
REMARK   21  A    between atoms: C_26  and  O_27
REMARK   22  A    between atoms: O_27  and  C_28
REMARK   23  A    between atoms: C_28  and  C_29
REMARK   24  A    between atoms: C_29  and  O_30
REMARK   25  A    between atoms: O_30  and  C_31
REMARK   26  A    between atoms: C_31  and  C_32
REMARK   27  A    between atoms: C_32  and  O_33
REMARK                            x       y       z     vdW  Elec       q    Type
REMARK                         _______ _______ _______ _____ _____    ______ ____
ROOT
ATOM      1  C   UNL     1      -0.171   8.901  21.379  0.00  0.00    +0.000 C 
ENDROOT
BRANCH   1   2
ATOM      2  C   UNL     1      -0.186   9.961  20.293  0.00  0.00    +0.000 C 
BRANCH   2   3
ATOM      3  C   UNL     1      -1.019  11.155  20.738  0.00  0.00    +0.000 C 
BRANCH   3   4
ATOM      4  C   UNL     1      -0.498  11.716  22.056  0.00  0.00    +0.000 C 
BRANCH   4   5
ATOM      5  C   UNL     1      -1.615  11.736  23.094  0.00  0.00    +0.000 C 
BRANCH   5   6
ATOM      6  C   UNL     1      -2.859  12.462  22.593  0.00  0.00    +0.000 C 
BRANCH   6   7
ATOM      7  C   UNL     1      -2.956  13.844  23.213  0.00  0.00    +0.000 C 
ATOM      8  O   UNL     1      -2.208  14.302  24.064  0.00  0.00    +0.000 OA
BRANCH   7   9
ATOM      9  O   UNL     1      -4.105  14.436  22.792  0.00  0.00    +0.000 OA
BRANCH   9  10
ATOM     10  C   UNL     1      -5.007  14.758  23.852  0.00  0.00    +0.000 C 
BRANCH  10  11
ATOM     11  C   UNL     1      -6.447  14.484  23.461  0.00  0.00    +0.000 C 
BRANCH  11  12
ATOM     12  O   UNL     1      -7.001  13.503  24.344  0.00  0.00    +0.000 OA
BRANCH  12  13
ATOM     13  C   UNL     1      -7.417  12.337  23.628  0.00  0.00    +0.000 C 
BRANCH  13  14
ATOM     14  C   UNL     1      -7.456  12.631  22.134  0.00  0.00    +0.000 C 
BRANCH  14  15
ATOM     15  O   UNL     1      -6.850  11.548  21.417  0.00  0.00    +0.000 OA
BRANCH  15  16
ATOM     16  C   UNL     1      -5.881  12.032  20.480  0.00  0.00    +0.000 C 
BRANCH  16  17
ATOM     17  C   UNL     1      -6.311  13.408  19.981  0.00  0.00    +0.000 C 
BRANCH  17  18
ATOM     18  O   UNL     1      -5.500  13.833  18.884  0.00  0.00    +0.000 OA
ATOM     19  H   UNL     1      -5.863  13.380  18.098  0.00  0.00    +0.000 HD
ENDBRANCH  17  18
ENDBRANCH  16  17
ENDBRANCH  15  16
ENDBRANCH  14  15
ENDBRANCH  13  14
ENDBRANCH  12  13
ENDBRANCH  11  12
ENDBRANCH  10  11
ENDBRANCH   9  10
ENDBRANCH   7   9
ENDBRANCH   6   7
ENDBRANCH   5   6
ENDBRANCH   4   5
ENDBRANCH   3   4
ENDBRANCH   2   3
ENDBRANCH   1   2
BRANCH   1  20
ATOM     20  C   UNL     1       1.205   8.247  21.480  0.00  0.00    +0.000 C 
BRANCH  20  21
ATOM     21  C   UNL     1       1.832   8.094  20.098  0.00  0.00    +0.000 C 
BRANCH  21  22
ATOM     22  C   UNL     1       1.815   6.637  19.643  0.00  0.00    +0.000 C 
BRANCH  22  24
ATOM     23  C   UNL     1       2.024   4.485  20.901  0.00  0.00    +0.000 C 
ATOM     24  C   UNL     1       2.475   5.722  20.643  0.00  0.00    +0.000 C 
BRANCH  23  25
ATOM     25  C   UNL     1       0.821   3.914  20.216  0.00  0.00    +0.000 C 
BRANCH  25  26
ATOM     26  C   UNL     1       1.173   2.782  19.272  0.00  0.00    +0.000 C 
BRANCH  26  27
ATOM     27  C   UNL     1       1.912   3.290  18.030  0.00  0.00    +0.000 C 
BRANCH  27  28
ATOM     28  C   UNL     1       3.135   2.432  17.759  0.00  0.00    +0.000 C 
BRANCH  28  32
ATOM     29  N   UNL     1       6.344   4.129  18.257  0.00  0.00    +0.000 N 
ATOM     30  C   UNL     1       5.240   3.698  17.553  0.00  0.00    +0.000 C 
ATOM     31  O   UNL     1       5.104   3.889  16.357  0.00  0.00    +0.000 OA
ATOM     32  N   UNL     1       4.350   3.003  18.329  0.00  0.00    +0.000 N 
ATOM     33  H   UNL     1       6.421   3.939  19.236  0.00  0.00    +0.000 HD
ATOM     34  H   UNL     1       4.542   2.876  19.306  0.00  0.00    +0.000 HD
BRANCH  29  36
ATOM     35  C   UNL     1       7.281   6.353  17.747  0.00  0.00    +0.000 C 
ATOM     36  C   UNL     1       7.398   4.849  17.573  0.00  0.00    +0.000 C 
ENDBRANCH  29  36
ENDBRANCH  28  32
ENDBRANCH  27  28
ENDBRANCH  26  27
ENDBRANCH  25  26
ENDBRANCH  23  25
ENDBRANCH  22  24
ENDBRANCH  21  22
ENDBRANCH  20  21
ENDBRANCH   1  20
TORSDOF 26
ENDMDL
MODEL 9
REMARK VINA RESULT:      -5.4      2.672      4.103
REMARK  Name = 
REMARK  27 active torsions:
REMARK  status: ('A' for Active; 'I' for Inactive)
REMARK    1  A    between atoms: C_1  and  C_2
REMARK    2  A    between atoms: C_2  and  N_3
REMARK    3  A    between atoms: N_6  and  C_7
REMARK    4  A    between atoms: C_7  and  C_8
REMARK    5  A    between atoms: C_8  and  C_9
REMARK    6  A    between atoms: C_9  and  C_10
REMARK    7  A    between atoms: C_10  and  C_11
REMARK    8  A    between atoms: C_12  and  C_13
REMARK    9  A    between atoms: C_13  and  C_14
REMARK   10  A    between atoms: C_14  and  C_15
REMARK   11  A    between atoms: C_15  and  C_16
REMARK   12  A    between atoms: C_16  and  C_17
REMARK   13  A    between atoms: C_17  and  C_18
REMARK   14  A    between atoms: C_18  and  C_19
REMARK   15  A    between atoms: C_19  and  C_20
REMARK   16  A    between atoms: C_20  and  C_21
REMARK   17  A    between atoms: C_21  and  C_22
REMARK   18  A    between atoms: C_22  and  O_24
REMARK   19  A    between atoms: O_24  and  C_25
REMARK   20  A    between atoms: C_25  and  C_26
REMARK   21  A    between atoms: C_26  and  O_27
REMARK   22  A    between atoms: O_27  and  C_28
REMARK   23  A    between atoms: C_28  and  C_29
REMARK   24  A    between atoms: C_29  and  O_30
REMARK   25  A    between atoms: O_30  and  C_31
REMARK   26  A    between atoms: C_31  and  C_32
REMARK   27  A    between atoms: C_32  and  O_33
REMARK                            x       y       z     vdW  Elec       q    Type
REMARK                         _______ _______ _______ _____ _____    ______ ____
ROOT
ATOM      1  C   UNL     1       3.262   7.354  17.673  0.00  0.00    +0.000 C 
ENDROOT
BRANCH   1   2
ATOM      2  C   UNL     1       2.676   8.731  17.923  0.00  0.00    +0.000 C 
BRANCH   2   3
ATOM      3  C   UNL     1       1.156   8.675  17.845  0.00  0.00    +0.000 C 
BRANCH   3   4
ATOM      4  C   UNL     1       0.548  10.034  18.174  0.00  0.00    +0.000 C 
BRANCH   4   5
ATOM      5  C   UNL     1       0.477  10.222  19.685  0.00  0.00    +0.000 C 
BRANCH   5   6
ATOM      6  C   UNL     1       0.807  11.650  20.107  0.00  0.00    +0.000 C 
BRANCH   6   7
ATOM      7  C   UNL     1      -0.460  12.470  20.258  0.00  0.00    +0.000 C 
ATOM      8  O   UNL     1      -0.982  13.150  19.386  0.00  0.00    +0.000 OA
BRANCH   7   9
ATOM      9  O   UNL     1      -0.839  12.461  21.563  0.00  0.00    +0.000 OA
BRANCH   9  10
ATOM     10  C   UNL     1      -1.921  13.347  21.853  0.00  0.00    +0.000 C 
BRANCH  10  11
ATOM     11  C   UNL     1      -3.168  12.588  22.267  0.00  0.00    +0.000 C 
BRANCH  11  12
ATOM     12  O   UNL     1      -4.172  12.739  21.258  0.00  0.00    +0.000 OA
BRANCH  12  13
ATOM     13  C   UNL     1      -5.437  13.079  21.832  0.00  0.00    +0.000 C 
BRANCH  13  14
ATOM     14  C   UNL     1      -6.565  12.566  20.944  0.00  0.00    +0.000 C 
BRANCH  14  15
ATOM     15  O   UNL     1      -6.078  12.385  19.609  0.00  0.00    +0.000 OA
BRANCH  15  16
ATOM     16  C   UNL     1      -6.867  11.421  18.903  0.00  0.00    +0.000 C 
BRANCH  16  17
ATOM     17  C   UNL     1      -7.048  10.184  19.777  0.00  0.00    +0.000 C 
BRANCH  17  18
ATOM     18  O   UNL     1      -7.634   9.113  19.037  0.00  0.00    +0.000 OA
ATOM     19  H   UNL     1      -6.891   8.533  18.781  0.00  0.00    +0.000 HD
ENDBRANCH  17  18
ENDBRANCH  16  17
ENDBRANCH  15  16
ENDBRANCH  14  15
ENDBRANCH  13  14
ENDBRANCH  12  13
ENDBRANCH  11  12
ENDBRANCH  10  11
ENDBRANCH   9  10
ENDBRANCH   7   9
ENDBRANCH   6   7
ENDBRANCH   5   6
ENDBRANCH   4   5
ENDBRANCH   3   4
ENDBRANCH   2   3
ENDBRANCH   1   2
BRANCH   1  20
ATOM     20  C   UNL     1       2.481   6.285  18.433  0.00  0.00    +0.000 C 
BRANCH  20  21
ATOM     21  C   UNL     1       2.802   6.341  19.923  0.00  0.00    +0.000 C 
BRANCH  21  22
ATOM     22  C   UNL     1       1.865   5.441  20.724  0.00  0.00    +0.000 C 
BRANCH  22  24
ATOM     23  C   UNL     1       0.938   3.197  20.120  0.00  0.00    +0.000 C 
ATOM     24  C   UNL     1       1.087   4.500  19.839  0.00  0.00    +0.000 C 
BRANCH  23  25
ATOM     25  C   UNL     1       1.539   2.569  21.340  0.00  0.00    +0.000 C 
BRANCH  25  26
ATOM     26  C   UNL     1       3.053   2.622  21.334  0.00  0.00    +0.000 C 
BRANCH  26  27
ATOM     27  C   UNL     1       3.632   2.121  20.008  0.00  0.00    +0.000 C 
BRANCH  27  28
ATOM     28  C   UNL     1       4.600   3.142  19.437  0.00  0.00    +0.000 C 
BRANCH  28  32
ATOM     29  N   UNL     1       4.905   4.242  15.956  0.00  0.00    +0.000 N 
ATOM     30  C   UNL     1       5.262   4.141  17.284  0.00  0.00    +0.000 C 
ATOM     31  O   UNL     1       6.215   4.734  17.758  0.00  0.00    +0.000 OA
ATOM     32  N   UNL     1       4.413   3.345  18.006  0.00  0.00    +0.000 N 
ATOM     33  H   UNL     1       4.107   3.746  15.612  0.00  0.00    +0.000 HD
ATOM     34  H   UNL     1       3.639   2.901  17.544  0.00  0.00    +0.000 HD
BRANCH  29  36
ATOM     35  C   UNL     1       6.417   4.269  14.007  0.00  0.00    +0.000 C 
ATOM     36  C   UNL     1       5.682   5.076  15.063  0.00  0.00    +0.000 C 
ENDBRANCH  29  36
ENDBRANCH  28  32
ENDBRANCH  27  28
ENDBRANCH  26  27
ENDBRANCH  25  26
ENDBRANCH  23  25
ENDBRANCH  22  24
ENDBRANCH  21  22
ENDBRANCH  20  21
ENDBRANCH   1  20
TORSDOF 26
ENDMDL
