MODEL 1
REMARK VINA RESULT:      -7.3      0.000      0.000
REMARK  Name = 
REMARK  19 active torsions:
REMARK  status: ('A' for Active; 'I' for Inactive)
REMARK    1  A    between atoms: C_1  and  C_2
REMARK    2  A    between atoms: C_2  and  C_3
REMARK    3  A    between atoms: C_2  and  C_4
REMARK    4  A    between atoms: C_4  and  C_5
REMARK    5  A    between atoms: C_4  and  N_24
REMARK    6  A    between atoms: N_7  and  C_8
REMARK    7  A    between atoms: C_8  and  C_9
REMARK    8  A    between atoms: C_8  and  C_21
REMARK    9  A    between atoms: C_9  and  C_10
REMARK   10  A    between atoms: C_13  and  O_14
REMARK   11  A    between atoms: C_15  and  C_16
REMARK   12  A    between atoms: C_16  and  C_17
REMARK   13  A    between atoms: C_16  and  C_18
REMARK   14  A    between atoms: C_16  and  C_19
REMARK   15  A    between atoms: N_24  and  C_25
REMARK   16  A    between atoms: C_26  and  C_28
REMARK   17  A    between atoms: C_28  and  N_29
REMARK   18  A    between atoms: C_28  and  C_30
REMARK   19  A    between atoms: C_30  and  C_31
REMARK                            x       y       z     vdW  Elec       q    Type
REMARK                         _______ _______ _______ _____ _____    ______ ____
ROOT
ATOM      1  C   UNL     1       0.051  10.355  19.837  0.00  0.00    +0.000 C 
ATOM      2  O   UNL     1      -0.767  10.628  20.717  0.00  0.00    +0.000 OA
ATOM      3  N   UNL     1       0.899   9.273  19.968  0.00  0.00    +0.000 N 
ATOM      4  H   UNL     1       1.522   9.059  19.191  0.00  0.00    +0.000 HD
ENDROOT
BRANCH   1   5
ATOM      5  C   UNL     1       0.187  11.210  18.530  0.00  0.00    +0.000 C 
BRANCH   5   6
ATOM      6  N   UNL     1      -1.175  11.707  18.172  0.00  0.00    +0.000 N 
ATOM      7  C   UNL     1      -1.609  12.977  18.743  0.00  0.00    +0.000 C 
ATOM      8  C   UNL     1      -1.969  10.925  17.345  0.00  0.00    +0.000 C 
ATOM      9  O   UNL     1      -1.631   9.760  17.089  0.00  0.00    +0.000 OA
BRANCH   8  10
ATOM     10  C   UNL     1      -3.339  11.449  16.794  0.00  0.00    +0.000 C 
BRANCH  10  11
ATOM     11  N   UNL     1      -3.298  11.435  15.312  0.00  0.00    +0.000 NA
ATOM     12  H   UNL     1      -3.885  10.681  14.957  0.00  0.00    +0.000 HD
ATOM     13  H   UNL     1      -2.352  11.159  15.027  0.00  0.00    +0.000 HD
ENDBRANCH  10  11
BRANCH  10  14
ATOM     14  C   UNL     1      -4.657  10.849  17.339  0.00  0.00    +0.000 C 
BRANCH  14  15
ATOM     15  C   UNL     1      -5.593  11.774  18.093  0.00  0.00    +0.000 A 
ATOM     16  C   UNL     1      -6.817  12.206  17.567  0.00  0.00    +0.000 A 
ATOM     17  C   UNL     1      -7.608  13.129  18.253  0.00  0.00    +0.000 A 
ATOM     18  C   UNL     1      -7.209  13.600  19.499  0.00  0.00    +0.000 A 
ATOM     19  C   UNL     1      -6.029  13.133  20.070  0.00  0.00    +0.000 A 
ATOM     20  C   UNL     1      -5.228  12.222  19.375  0.00  0.00    +0.000 A 
ENDBRANCH  14  15
ENDBRANCH  10  14
ENDBRANCH   8  10
ENDBRANCH   5   6
BRANCH   5  22
ATOM     21  C   UNL     1       1.660  12.644  20.106  0.00  0.00    +0.000 C 
ATOM     22  C   UNL     1       1.252  12.355  18.655  0.00  0.00    +0.000 C 
ATOM     23  C   UNL     1       2.534  12.048  17.864  0.00  0.00    +0.000 C 
ENDBRANCH   5  22
ENDBRANCH   1   5
BRANCH   3  24
ATOM     24  C   UNL     1       0.846   8.360  21.132  0.00  0.00    +0.000 C 
BRANCH  24  25
ATOM     25  C   UNL     1       0.908   9.104  22.518  0.00  0.00    +0.000 C 
ATOM     26  N   UNL     1      -0.274   9.239  23.194  0.00  0.00    +0.000 N 
ATOM     27  O   UNL     1       1.951   9.444  23.074  0.00  0.00    +0.000 OA
ATOM     28  H   UNL     1      -1.009   8.585  22.992  0.00  0.00    +0.000 HD
ATOM     29  H   UNL     1      -0.181   9.555  24.158  0.00  0.00    +0.000 HD
ENDBRANCH  24  25
BRANCH  24  30
ATOM     30  C   UNL     1       1.993   7.334  21.185  0.00  0.00    +0.000 C 
BRANCH  30  31
ATOM     31  C   UNL     1       2.086   6.266  20.120  0.00  0.00    +0.000 A 
ATOM     32  C   UNL     1       1.319   5.104  20.214  0.00  0.00    +0.000 A 
ATOM     33  C   UNL     1       1.603   4.019  19.390  0.00  0.00    +0.000 A 
ATOM     34  C   UNL     1       2.679   4.071  18.494  0.00  0.00    +0.000 A 
ATOM     35  C   UNL     1       3.487   5.215  18.373  0.00  0.00    +0.000 A 
ATOM     36  C   UNL     1       3.113   6.329  19.161  0.00  0.00    +0.000 A 
BRANCH  35  37
ATOM     37  C   UNL     1       4.788   5.306  17.536  0.00  0.00    +0.000 C 
ATOM     38  C   UNL     1       5.265   6.740  17.213  0.00  0.00    +0.000 C 
ATOM     39  C   UNL     1       5.940   4.587  18.265  0.00  0.00    +0.000 C 
ATOM     40  C   UNL     1       4.587   4.620  16.155  0.00  0.00    +0.000 C 
ENDBRANCH  35  37
BRANCH  34  41
ATOM     41  O   UNL     1       2.928   2.954  17.750  0.00  0.00    +0.000 OA
ATOM     42  H   UNL     1       3.313   3.213  16.897  0.00  0.00    +0.000 HD
ENDBRANCH  34  41
ENDBRANCH  30  31
ENDBRANCH  24  30
ENDBRANCH   3  24
TORSDOF 13
ENDMDL
MODEL 2
REMARK VINA RESULT:      -7.0      3.322     10.179
REMARK  Name = 
REMARK  19 active torsions:
REMARK  status: ('A' for Active; 'I' for Inactive)
REMARK    1  A    between atoms: C_1  and  C_2
REMARK    2  A    between atoms: C_2  and  C_3
REMARK    3  A    between atoms: C_2  and  C_4
REMARK    4  A    between atoms: C_4  and  C_5
REMARK    5  A    between atoms: C_4  and  N_24
REMARK    6  A    between atoms: N_7  and  C_8
REMARK    7  A    between atoms: C_8  and  C_9
REMARK    8  A    between atoms: C_8  and  C_21
REMARK    9  A    between atoms: C_9  and  C_10
REMARK   10  A    between atoms: C_13  and  O_14
REMARK   11  A    between atoms: C_15  and  C_16
REMARK   12  A    between atoms: C_16  and  C_17
REMARK   13  A    between atoms: C_16  and  C_18
REMARK   14  A    between atoms: C_16  and  C_19
REMARK   15  A    between atoms: N_24  and  C_25
REMARK   16  A    between atoms: C_26  and  C_28
REMARK   17  A    between atoms: C_28  and  N_29
REMARK   18  A    between atoms: C_28  and  C_30
REMARK   19  A    between atoms: C_30  and  C_31
REMARK                            x       y       z     vdW  Elec       q    Type
REMARK                         _______ _______ _______ _____ _____    ______ ____
ROOT
ATOM      1  C   UNL     1       2.630   6.535  19.312  0.00  0.00    +0.000 C 
ATOM      2  O   UNL     1       2.943   6.509  20.504  0.00  0.00    +0.000 OA
ATOM      3  N   UNL     1       1.950   7.614  18.781  0.00  0.00    +0.000 N 
ATOM      4  H   UNL     1       1.757   7.611  17.781  0.00  0.00    +0.000 HD
ENDROOT
BRANCH   1   5
ATOM      5  C   UNL     1       2.969   5.358  18.333  0.00  0.00    +0.000 C 
BRANCH   5   6
ATOM      6  N   UNL     1       4.444   5.377  18.101  0.00  0.00    +0.000 N 
ATOM      7  C   UNL     1       5.272   4.482  18.903  0.00  0.00    +0.000 C 
ATOM      8  C   UNL     1       4.956   6.262  17.163  0.00  0.00    +0.000 C 
ATOM      9  O   UNL     1       4.228   7.149  16.692  0.00  0.00    +0.000 OA
BRANCH   8  10
ATOM     10  C   UNL     1       6.466   6.228  16.746  0.00  0.00    +0.000 C 
BRANCH  10  11
ATOM     11  N   UNL     1       7.283   6.780  17.854  0.00  0.00    +0.000 NA
ATOM     12  H   UNL     1       7.775   7.615  17.538  0.00  0.00    +0.000 HD
ATOM     13  H   UNL     1       8.037   6.113  18.049  0.00  0.00    +0.000 HD
ENDBRANCH  10  11
BRANCH  10  14
ATOM     14  C   UNL     1       7.070   4.919  16.184  0.00  0.00    +0.000 C 
BRANCH  14  15
ATOM     15  C   UNL     1       6.921   4.656  14.697  0.00  0.00    +0.000 A 
ATOM     16  C   UNL     1       5.969   3.772  14.176  0.00  0.00    +0.000 A 
ATOM     17  C   UNL     1       5.924   3.488  12.810  0.00  0.00    +0.000 A 
ATOM     18  C   UNL     1       6.802   4.120  11.937  0.00  0.00    +0.000 A 
ATOM     19  C   UNL     1       7.712   5.054  12.425  0.00  0.00    +0.000 A 
ATOM     20  C   UNL     1       7.769   5.325  13.796  0.00  0.00    +0.000 A 
ENDBRANCH  14  15
ENDBRANCH  10  14
ENDBRANCH   8  10
ENDBRANCH   5   6
BRANCH   5  22
ATOM     21  C   UNL     1       1.147   4.080  19.658  0.00  0.00    +0.000 C 
ATOM     22  C   UNL     1       2.438   3.970  18.835  0.00  0.00    +0.000 C 
ATOM     23  C   UNL     1       2.169   2.996  17.676  0.00  0.00    +0.000 C 
ENDBRANCH   5  22
ENDBRANCH   1   5
BRANCH   3  24
ATOM     24  C   UNL     1       1.605   8.807  19.586  0.00  0.00    +0.000 C 
BRANCH  24  25
ATOM     25  C   UNL     1       1.002   8.461  20.998  0.00  0.00    +0.000 C 
ATOM     26  N   UNL     1       1.774   8.766  22.086  0.00  0.00    +0.000 N 
ATOM     27  O   UNL     1      -0.147   8.065  21.181  0.00  0.00    +0.000 OA
ATOM     28  H   UNL     1       2.469   9.485  21.983  0.00  0.00    +0.000 HD
ATOM     29  H   UNL     1       1.294   8.705  22.982  0.00  0.00    +0.000 HD
ENDBRANCH  24  25
BRANCH  24  30
ATOM     30  C   UNL     1       0.564   9.734  18.931  0.00  0.00    +0.000 C 
BRANCH  30  31
ATOM     31  C   UNL     1       0.266  11.078  19.554  0.00  0.00    +0.000 A 
ATOM     32  C   UNL     1      -1.034  11.407  19.936  0.00  0.00    +0.000 A 
ATOM     33  C   UNL     1      -1.349  12.725  20.253  0.00  0.00    +0.000 A 
ATOM     34  C   UNL     1      -0.378  13.731  20.153  0.00  0.00    +0.000 A 
ATOM     35  C   UNL     1       0.941  13.449  19.760  0.00  0.00    +0.000 A 
ATOM     36  C   UNL     1       1.246  12.086  19.533  0.00  0.00    +0.000 A 
BRANCH  35  37
ATOM     37  C   UNL     1       2.032  14.509  19.464  0.00  0.00    +0.000 C 
ATOM     38  C   UNL     1       1.552  15.743  18.666  0.00  0.00    +0.000 C 
ATOM     39  C   UNL     1       2.648  15.020  20.780  0.00  0.00    +0.000 C 
ATOM     40  C   UNL     1       3.169  13.884  18.608  0.00  0.00    +0.000 C 
ENDBRANCH  35  37
BRANCH  34  41
ATOM     41  O   UNL     1      -0.769  15.009  20.435  0.00  0.00    +0.000 OA
ATOM     42  H   UNL     1      -1.666  14.997  20.806  0.00  0.00    +0.000 HD
ENDBRANCH  34  41
ENDBRANCH  30  31
ENDBRANCH  24  30
ENDBRANCH   3  24
TORSDOF 13
ENDMDL
MODEL 3
REMARK VINA RESULT:      -6.8      3.323      8.595
REMARK  Name = 
REMARK  19 active torsions:
REMARK  status: ('A' for Active; 'I' for Inactive)
REMARK    1  A    between atoms: C_1  and  C_2
REMARK    2  A    between atoms: C_2  and  C_3
REMARK    3  A    between atoms: C_2  and  C_4
REMARK    4  A    between atoms: C_4  and  C_5
REMARK    5  A    between atoms: C_4  and  N_24
REMARK    6  A    between atoms: N_7  and  C_8
REMARK    7  A    between atoms: C_8  and  C_9
REMARK    8  A    between atoms: C_8  and  C_21
REMARK    9  A    between atoms: C_9  and  C_10
REMARK   10  A    between atoms: C_13  and  O_14
REMARK   11  A    between atoms: C_15  and  C_16
REMARK   12  A    between atoms: C_16  and  C_17
REMARK   13  A    between atoms: C_16  and  C_18
REMARK   14  A    between atoms: C_16  and  C_19
REMARK   15  A    between atoms: N_24  and  C_25
REMARK   16  A    between atoms: C_26  and  C_28
REMARK   17  A    between atoms: C_28  and  N_29
REMARK   18  A    between atoms: C_28  and  C_30
REMARK   19  A    between atoms: C_30  and  C_31
REMARK                            x       y       z     vdW  Elec       q    Type
REMARK                         _______ _______ _______ _____ _____    ______ ____
ROOT
ATOM      1  C   UNL     1      -0.166  11.342  21.194  0.00  0.00    +0.000 C 
ATOM      2  O   UNL     1       0.728  11.234  22.036  0.00  0.00    +0.000 OA
ATOM      3  N   UNL     1      -1.413  11.824  21.542  0.00  0.00    +0.000 N 
ATOM      4  H   UNL     1      -2.102  11.940  20.801  0.00  0.00    +0.000 HD
ENDROOT
BRANCH   1   5
ATOM      5  C   UNL     1       0.047  10.937  19.695  0.00  0.00    +0.000 C 
BRANCH   5   6
ATOM      6  N   UNL     1       0.599   9.550  19.676  0.00  0.00    +0.000 N 
ATOM      7  C   UNL     1       0.066   8.591  20.638  0.00  0.00    +0.000 C 
ATOM      8  C   UNL     1       1.609   9.251  18.772  0.00  0.00    +0.000 C 
ATOM      9  O   UNL     1       2.171  10.166  18.152  0.00  0.00    +0.000 OA
BRANCH   8  10
ATOM     10  C   UNL     1       2.124   7.784  18.579  0.00  0.00    +0.000 C 
BRANCH  10  11
ATOM     11  N   UNL     1       3.189   7.780  17.547  0.00  0.00    +0.000 NA
ATOM     12  H   UNL     1       3.089   6.961  16.950  0.00  0.00    +0.000 HD
ATOM     13  H   UNL     1       4.085   7.626  18.022  0.00  0.00    +0.000 HD
ENDBRANCH  10  11
BRANCH  10  14
ATOM     14  C   UNL     1       2.523   6.949  19.820  0.00  0.00    +0.000 C 
BRANCH  14  15
ATOM     15  C   UNL     1       2.057   5.507  19.878  0.00  0.00    +0.000 A 
ATOM     16  C   UNL     1       1.939   4.797  21.079  0.00  0.00    +0.000 A 
ATOM     17  C   UNL     1       1.594   3.444  21.083  0.00  0.00    +0.000 A 
ATOM     18  C   UNL     1       1.318   2.791  19.887  0.00  0.00    +0.000 A 
ATOM     19  C   UNL     1       1.364   3.495  18.687  0.00  0.00    +0.000 A 
ATOM     20  C   UNL     1       1.726   4.846  18.682  0.00  0.00    +0.000 A 
ENDBRANCH  14  15
ENDBRANCH  10  14
ENDBRANCH   8  10
ENDBRANCH   5   6
BRANCH   5  22
ATOM     21  C   UNL     1      -1.409  12.510  18.240  0.00  0.00    +0.000 C 
ATOM     22  C   UNL     1      -1.249  11.101  18.826  0.00  0.00    +0.000 C 
ATOM     23  C   UNL     1      -1.296  10.104  17.657  0.00  0.00    +0.000 C 
ENDBRANCH   5  22
ENDBRANCH   1   5
BRANCH   3  24
ATOM     24  C   UNL     1      -1.734  12.279  22.913  0.00  0.00    +0.000 C 
BRANCH  24  25
ATOM     25  C   UNL     1      -3.274  12.271  23.235  0.00  0.00    +0.000 C 
ATOM     26  N   UNL     1      -4.124  12.410  22.171  0.00  0.00    +0.000 N 
ATOM     27  O   UNL     1      -3.748  12.019  24.342  0.00  0.00    +0.000 OA
ATOM     28  H   UNL     1      -3.785  12.150  21.261  0.00  0.00    +0.000 HD
ATOM     29  H   UNL     1      -5.103  12.219  22.377  0.00  0.00    +0.000 HD
ENDBRANCH  24  25
BRANCH  24  30
ATOM     30  C   UNL     1      -1.273  13.713  23.229  0.00  0.00    +0.000 C 
BRANCH  30  31
ATOM     31  C   UNL     1      -0.897  14.641  22.096  0.00  0.00    +0.000 A 
ATOM     32  C   UNL     1      -1.885  15.305  21.369  0.00  0.00    +0.000 A 
ATOM     33  C   UNL     1      -1.557  15.935  20.172  0.00  0.00    +0.000 A 
ATOM     34  C   UNL     1      -0.249  15.874  19.674  0.00  0.00    +0.000 A 
ATOM     35  C   UNL     1       0.777  15.206  20.365  0.00  0.00    +0.000 A 
ATOM     36  C   UNL     1       0.426  14.655  21.620  0.00  0.00    +0.000 A 
BRANCH  35  37
ATOM     37  C   UNL     1       2.202  14.947  19.817  0.00  0.00    +0.000 C 
ATOM     38  C   UNL     1       3.001  16.213  19.431  0.00  0.00    +0.000 C 
ATOM     39  C   UNL     1       3.036  14.169  20.853  0.00  0.00    +0.000 C 
ATOM     40  C   UNL     1       2.130  14.096  18.517  0.00  0.00    +0.000 C 
ENDBRANCH  35  37
BRANCH  34  41
ATOM     41  O   UNL     1      -0.009  16.476  18.471  0.00  0.00    +0.000 OA
ATOM     42  H   UNL     1       0.538  17.265  18.609  0.00  0.00    +0.000 HD
ENDBRANCH  34  41
ENDBRANCH  30  31
ENDBRANCH  24  30
ENDBRANCH   3  24
TORSDOF 13
ENDMDL
MODEL 4
REMARK VINA RESULT:      -6.8      3.924      9.740
REMARK  Name = 
REMARK  19 active torsions:
REMARK  status: ('A' for Active; 'I' for Inactive)
REMARK    1  A    between atoms: C_1  and  C_2
REMARK    2  A    between atoms: C_2  and  C_3
REMARK    3  A    between atoms: C_2  and  C_4
REMARK    4  A    between atoms: C_4  and  C_5
REMARK    5  A    between atoms: C_4  and  N_24
REMARK    6  A    between atoms: N_7  and  C_8
REMARK    7  A    between atoms: C_8  and  C_9
REMARK    8  A    between atoms: C_8  and  C_21
REMARK    9  A    between atoms: C_9  and  C_10
REMARK   10  A    between atoms: C_13  and  O_14
REMARK   11  A    between atoms: C_15  and  C_16
REMARK   12  A    between atoms: C_16  and  C_17
REMARK   13  A    between atoms: C_16  and  C_18
REMARK   14  A    between atoms: C_16  and  C_19
REMARK   15  A    between atoms: N_24  and  C_25
REMARK   16  A    between atoms: C_26  and  C_28
REMARK   17  A    between atoms: C_28  and  N_29
REMARK   18  A    between atoms: C_28  and  C_30
REMARK   19  A    between atoms: C_30  and  C_31
REMARK                            x       y       z     vdW  Elec       q    Type
REMARK                         _______ _______ _______ _____ _____    ______ ____
ROOT
ATOM      1  C   UNL     1       1.899   6.988  19.623  0.00  0.00    +0.000 C 
ATOM      2  O   UNL     1       2.401   7.762  18.806  0.00  0.00    +0.000 OA
ATOM      3  N   UNL     1       1.327   7.460  20.788  0.00  0.00    +0.000 N 
ATOM      4  H   UNL     1       0.882   6.786  21.408  0.00  0.00    +0.000 HD
ENDROOT
BRANCH   1   5
ATOM      5  C   UNL     1       1.883   5.436  19.403  0.00  0.00    +0.000 C 
BRANCH   5   6
ATOM      6  N   UNL     1       3.254   5.027  18.975  0.00  0.00    +0.000 N 
ATOM      7  C   UNL     1       4.389   5.567  19.716  0.00  0.00    +0.000 C 
ATOM      8  C   UNL     1       3.383   4.184  17.880  0.00  0.00    +0.000 C 
ATOM      9  O   UNL     1       2.399   3.954  17.161  0.00  0.00    +0.000 OA
BRANCH   8  10
ATOM     10  C   UNL     1       4.771   3.582  17.472  0.00  0.00    +0.000 C 
BRANCH  10  11
ATOM     11  N   UNL     1       4.562   2.215  16.936  0.00  0.00    +0.000 NA
ATOM     12  H   UNL     1       4.204   2.268  15.983  0.00  0.00    +0.000 HD
ATOM     13  H   UNL     1       3.792   1.787  17.461  0.00  0.00    +0.000 HD
ENDBRANCH  10  11
BRANCH  10  14
ATOM     14  C   UNL     1       5.726   4.410  16.580  0.00  0.00    +0.000 C 
BRANCH  14  15
ATOM     15  C   UNL     1       6.552   5.492  17.248  0.00  0.00    +0.000 A 
ATOM     16  C   UNL     1       6.511   6.833  16.847  0.00  0.00    +0.000 A 
ATOM     17  C   UNL     1       7.353   7.783  17.427  0.00  0.00    +0.000 A 
ATOM     18  C   UNL     1       8.220   7.415  18.449  0.00  0.00    +0.000 A 
ATOM     19  C   UNL     1       8.230   6.101  18.909  0.00  0.00    +0.000 A 
ATOM     20  C   UNL     1       7.399   5.146  18.317  0.00  0.00    +0.000 A 
ENDBRANCH  14  15
ENDBRANCH  10  14
ENDBRANCH   8  10
ENDBRANCH   5   6
BRANCH   5  22
ATOM     21  C   UNL     1       0.494   3.433  20.282  0.00  0.00    +0.000 C 
ATOM     22  C   UNL     1       1.361   4.645  20.653  0.00  0.00    +0.000 C 
ATOM     23  C   UNL     1       2.508   4.140  21.543  0.00  0.00    +0.000 C 
ENDBRANCH   5  22
ENDBRANCH   1   5
BRANCH   3  24
ATOM     24  C   UNL     1       1.239   8.905  21.099  0.00  0.00    +0.000 C 
BRANCH  24  25
ATOM     25  C   UNL     1       0.689   9.205  22.543  0.00  0.00    +0.000 C 
ATOM     26  N   UNL     1      -0.640   8.958  22.757  0.00  0.00    +0.000 N 
ATOM     27  O   UNL     1       1.395   9.515  23.501  0.00  0.00    +0.000 OA
ATOM     28  H   UNL     1      -1.096   8.292  22.159  0.00  0.00    +0.000 HD
ATOM     29  H   UNL     1      -0.928   8.983  23.734  0.00  0.00    +0.000 HD
ENDBRANCH  24  25
BRANCH  24  30
ATOM     30  C   UNL     1       0.322   9.702  20.155  0.00  0.00    +0.000 C 
BRANCH  30  31
ATOM     31  C   UNL     1       0.781  11.041  19.625  0.00  0.00    +0.000 A 
ATOM     32  C   UNL     1       1.676  11.110  18.556  0.00  0.00    +0.000 A 
ATOM     33  C   UNL     1       2.298  12.317  18.252  0.00  0.00    +0.000 A 
ATOM     34  C   UNL     1       2.063  13.454  19.036  0.00  0.00    +0.000 A 
ATOM     35  C   UNL     1       1.181  13.430  20.129  0.00  0.00    +0.000 A 
ATOM     36  C   UNL     1       0.498  12.210  20.353  0.00  0.00    +0.000 A 
BRANCH  35  37
ATOM     37  C   UNL     1       0.984  14.583  21.145  0.00  0.00    +0.000 C 
ATOM     38  C   UNL     1       2.274  15.072  21.844  0.00  0.00    +0.000 C 
ATOM     39  C   UNL     1       0.343  15.800  20.451  0.00  0.00    +0.000 C 
ATOM     40  C   UNL     1       0.042  14.129  22.296  0.00  0.00    +0.000 C 
ENDBRANCH  35  37
BRANCH  34  41
ATOM     41  O   UNL     1       2.743  14.592  18.708  0.00  0.00    +0.000 OA
ATOM     42  H   UNL     1       2.955  14.579  17.761  0.00  0.00    +0.000 HD
ENDBRANCH  34  41
ENDBRANCH  30  31
ENDBRANCH  24  30
ENDBRANCH   3  24
TORSDOF 13
ENDMDL
MODEL 5
REMARK VINA RESULT:      -6.7      3.411      9.751
REMARK  Name = 
REMARK  19 active torsions:
REMARK  status: ('A' for Active; 'I' for Inactive)
REMARK    1  A    between atoms: C_1  and  C_2
REMARK    2  A    between atoms: C_2  and  C_3
REMARK    3  A    between atoms: C_2  and  C_4
REMARK    4  A    between atoms: C_4  and  C_5
REMARK    5  A    between atoms: C_4  and  N_24
REMARK    6  A    between atoms: N_7  and  C_8
REMARK    7  A    between atoms: C_8  and  C_9
REMARK    8  A    between atoms: C_8  and  C_21
REMARK    9  A    between atoms: C_9  and  C_10
REMARK   10  A    between atoms: C_13  and  O_14
REMARK   11  A    between atoms: C_15  and  C_16
REMARK   12  A    between atoms: C_16  and  C_17
REMARK   13  A    between atoms: C_16  and  C_18
REMARK   14  A    between atoms: C_16  and  C_19
REMARK   15  A    between atoms: N_24  and  C_25
REMARK   16  A    between atoms: C_26  and  C_28
REMARK   17  A    between atoms: C_28  and  N_29
REMARK   18  A    between atoms: C_28  and  C_30
REMARK   19  A    between atoms: C_30  and  C_31
REMARK                            x       y       z     vdW  Elec       q    Type
REMARK                         _______ _______ _______ _____ _____    ______ ____
ROOT
ATOM      1  C   UNL     1       1.917   6.923  19.630  0.00  0.00    +0.000 C 
ATOM      2  O   UNL     1       2.599   7.676  18.933  0.00  0.00    +0.000 OA
ATOM      3  N   UNL     1       1.203   7.409  20.709  0.00  0.00    +0.000 N 
ATOM      4  H   UNL     1       0.615   6.757  21.224  0.00  0.00    +0.000 HD
ENDROOT
BRANCH   1   5
ATOM      5  C   UNL     1       1.819   5.384  19.350  0.00  0.00    +0.000 C 
BRANCH   5   6
ATOM      6  N   UNL     1       3.173   4.915  18.931  0.00  0.00    +0.000 N 
ATOM      7  C   UNL     1       4.330   5.447  19.645  0.00  0.00    +0.000 C 
ATOM      8  C   UNL     1       3.269   4.028  17.869  0.00  0.00    +0.000 C 
ATOM      9  O   UNL     1       2.273   3.802  17.164  0.00  0.00    +0.000 OA
BRANCH   8  10
ATOM     10  C   UNL     1       4.634   3.366  17.476  0.00  0.00    +0.000 C 
BRANCH  10  11
ATOM     11  N   UNL     1       4.380   1.984  17.004  0.00  0.00    +0.000 NA
ATOM     12  H   UNL     1       3.841   2.007  16.139  0.00  0.00    +0.000 HD
ATOM     13  H   UNL     1       3.744   1.536  17.673  0.00  0.00    +0.000 HD
ENDBRANCH  10  11
BRANCH  10  14
ATOM     14  C   UNL     1       5.604   4.125  16.540  0.00  0.00    +0.000 C 
BRANCH  14  15
ATOM     15  C   UNL     1       6.501   5.180  17.159  0.00  0.00    +0.000 A 
ATOM     16  C   UNL     1       7.415   4.893  18.180  0.00  0.00    +0.000 A 
ATOM     17  C   UNL     1       8.156   5.908  18.787  0.00  0.00    +0.000 A 
ATOM     18  C   UNL     1       8.029   7.221  18.350  0.00  0.00    +0.000 A 
ATOM     19  C   UNL     1       7.175   7.519  17.292  0.00  0.00    +0.000 A 
ATOM     20  C   UNL     1       6.419   6.505  16.696  0.00  0.00    +0.000 A 
ENDBRANCH  14  15
ENDBRANCH  10  14
ENDBRANCH   8  10
ENDBRANCH   5   6
BRANCH   5  22
ATOM     21  C   UNL     1       0.488   3.303  20.130  0.00  0.00    +0.000 C 
ATOM     22  C   UNL     1       1.230   4.577  20.559  0.00  0.00    +0.000 C 
ATOM     23  C   UNL     1       2.314   4.165  21.568  0.00  0.00    +0.000 C 
ENDBRANCH   5  22
ENDBRANCH   1   5
BRANCH   3  24
ATOM     24  C   UNL     1       1.176   8.847  21.059  0.00  0.00    +0.000 C 
BRANCH  24  25
ATOM     25  C   UNL     1       0.625   9.132  22.505  0.00  0.00    +0.000 C 
ATOM     26  N   UNL     1      -0.641   8.690  22.778  0.00  0.00    +0.000 N 
ATOM     27  O   UNL     1       1.298   9.600  23.422  0.00  0.00    +0.000 OA
ATOM     28  H   UNL     1      -1.002   7.930  22.228  0.00  0.00    +0.000 HD
ATOM     29  H   UNL     1      -0.903   8.721  23.762  0.00  0.00    +0.000 HD
ENDBRANCH  24  25
BRANCH  24  30
ATOM     30  C   UNL     1       0.304   9.709  20.128  0.00  0.00    +0.000 C 
BRANCH  30  31
ATOM     31  C   UNL     1       0.092  11.171  20.448  0.00  0.00    +0.000 A 
ATOM     32  C   UNL     1      -1.176  11.644  20.785  0.00  0.00    +0.000 A 
ATOM     33  C   UNL     1      -1.418  13.014  20.813  0.00  0.00    +0.000 A 
ATOM     34  C   UNL     1      -0.408  13.921  20.467  0.00  0.00    +0.000 A 
ATOM     35  C   UNL     1       0.881  13.491  20.109  0.00  0.00    +0.000 A 
ATOM     36  C   UNL     1       1.115  12.097  20.179  0.00  0.00    +0.000 A 
BRANCH  35  37
ATOM     37  C   UNL     1       2.006  14.401  19.556  0.00  0.00    +0.000 C 
ATOM     38  C   UNL     1       2.821  15.165  20.625  0.00  0.00    +0.000 C 
ATOM     39  C   UNL     1       3.000  13.571  18.721  0.00  0.00    +0.000 C 
ATOM     40  C   UNL     1       1.403  15.501  18.637  0.00  0.00    +0.000 C 
ENDBRANCH  35  37
BRANCH  34  41
ATOM     41  O   UNL     1      -0.729  15.248  20.472  0.00  0.00    +0.000 OA
ATOM     42  H   UNL     1      -1.304  15.443  19.715  0.00  0.00    +0.000 HD
ENDBRANCH  34  41
ENDBRANCH  30  31
ENDBRANCH  24  30
ENDBRANCH   3  24
TORSDOF 13
ENDMDL
MODEL 6
REMARK VINA RESULT:      -6.7      4.057      8.683
REMARK  Name = 
REMARK  19 active torsions:
REMARK  status: ('A' for Active; 'I' for Inactive)
REMARK    1  A    between atoms: C_1  and  C_2
REMARK    2  A    between atoms: C_2  and  C_3
REMARK    3  A    between atoms: C_2  and  C_4
REMARK    4  A    between atoms: C_4  and  C_5
REMARK    5  A    between atoms: C_4  and  N_24
REMARK    6  A    between atoms: N_7  and  C_8
REMARK    7  A    between atoms: C_8  and  C_9
REMARK    8  A    between atoms: C_8  and  C_21
REMARK    9  A    between atoms: C_9  and  C_10
REMARK   10  A    between atoms: C_13  and  O_14
REMARK   11  A    between atoms: C_15  and  C_16
REMARK   12  A    between atoms: C_16  and  C_17
REMARK   13  A    between atoms: C_16  and  C_18
REMARK   14  A    between atoms: C_16  and  C_19
REMARK   15  A    between atoms: N_24  and  C_25
REMARK   16  A    between atoms: C_26  and  C_28
REMARK   17  A    between atoms: C_28  and  N_29
REMARK   18  A    between atoms: C_28  and  C_30
REMARK   19  A    between atoms: C_30  and  C_31
REMARK                            x       y       z     vdW  Elec       q    Type
REMARK                         _______ _______ _______ _____ _____    ______ ____
ROOT
ATOM      1  C   UNL     1       1.395  11.821  20.133  0.00  0.00    +0.000 C 
ATOM      2  O   UNL     1       1.656  11.575  21.312  0.00  0.00    +0.000 OA
ATOM      3  N   UNL     1       1.876  12.964  19.523  0.00  0.00    +0.000 N 
ATOM      4  H   UNL     1       1.675  13.097  18.534  0.00  0.00    +0.000 HD
ENDROOT
BRANCH   1   5
ATOM      5  C   UNL     1       0.505  10.872  19.258  0.00  0.00    +0.000 C 
BRANCH   5   6
ATOM      6  N   UNL     1       1.076   9.496  19.363  0.00  0.00    +0.000 N 
ATOM      7  C   UNL     1       0.802   8.734  20.577  0.00  0.00    +0.000 C 
ATOM      8  C   UNL     1       1.862   9.024  18.321  0.00  0.00    +0.000 C 
ATOM      9  O   UNL     1       2.243   9.804  17.436  0.00  0.00    +0.000 OA
BRANCH   8  10
ATOM     10  C   UNL     1       2.360   7.539  18.282  0.00  0.00    +0.000 C 
BRANCH  10  11
ATOM     11  N   UNL     1       3.624   7.477  17.509  0.00  0.00    +0.000 NA
ATOM     12  H   UNL     1       3.697   6.576  17.037  0.00  0.00    +0.000 HD
ATOM     13  H   UNL     1       4.400   7.462  18.179  0.00  0.00    +0.000 HD
ENDBRANCH  10  11
BRANCH  10  14
ATOM     14  C   UNL     1       2.451   6.733  19.600  0.00  0.00    +0.000 C 
BRANCH  14  15
ATOM     15  C   UNL     1       2.024   5.278  19.566  0.00  0.00    +0.000 A 
ATOM     16  C   UNL     1       1.831   4.573  18.372  0.00  0.00    +0.000 A 
ATOM     17  C   UNL     1       1.350   3.262  18.382  0.00  0.00    +0.000 A 
ATOM     18  C   UNL     1       1.098   2.620  19.588  0.00  0.00    +0.000 A 
ATOM     19  C   UNL     1       1.347   3.280  20.789  0.00  0.00    +0.000 A 
ATOM     20  C   UNL     1       1.812   4.599  20.779  0.00  0.00    +0.000 A 
ENDBRANCH  14  15
ENDBRANCH  10  14
ENDBRANCH   8  10
ENDBRANCH   5   6
BRANCH   5  22
ATOM     21  C   UNL     1      -1.368  12.149  20.513  0.00  0.00    +0.000 C 
ATOM     22  C   UNL     1      -1.017  10.942  19.632  0.00  0.00    +0.000 C 
ATOM     23  C   UNL     1      -1.920  10.995  18.390  0.00  0.00    +0.000 C 
ENDBRANCH   5  22
ENDBRANCH   1   5
BRANCH   3  24
ATOM     24  C   UNL     1       2.761  13.923  20.222  0.00  0.00    +0.000 C 
BRANCH  24  25
ATOM     25  C   UNL     1       2.038  14.726  21.367  0.00  0.00    +0.000 C 
ATOM     26  N   UNL     1       0.785  15.201  21.086  0.00  0.00    +0.000 N 
ATOM     27  O   UNL     1       2.469  14.834  22.514  0.00  0.00    +0.000 OA
ATOM     28  H   UNL     1       0.258  14.738  20.367  0.00  0.00    +0.000 HD
ATOM     29  H   UNL     1       0.271  15.552  21.892  0.00  0.00    +0.000 HD
ENDBRANCH  24  25
BRANCH  24  30
ATOM     30  C   UNL     1       3.373  15.001  19.310  0.00  0.00    +0.000 C 
BRANCH  30  31
ATOM     31  C   UNL     1       4.869  15.035  19.097  0.00  0.00    +0.000 A 
ATOM     32  C   UNL     1       5.412  14.727  17.850  0.00  0.00    +0.000 A 
ATOM     33  C   UNL     1       6.779  14.496  17.729  0.00  0.00    +0.000 A 
ATOM     34  C   UNL     1       7.608  14.533  18.858  0.00  0.00    +0.000 A 
ATOM     35  C   UNL     1       7.104  14.827  20.137  0.00  0.00    +0.000 A 
ATOM     36  C   UNL     1       5.726  15.144  20.206  0.00  0.00    +0.000 A 
BRANCH  35  37
ATOM     37  C   UNL     1       7.906  14.729  21.459  0.00  0.00    +0.000 C 
ATOM     38  C   UNL     1       7.111  15.073  22.739  0.00  0.00    +0.000 C 
ATOM     39  C   UNL     1       8.473  13.307  21.632  0.00  0.00    +0.000 C 
ATOM     40  C   UNL     1       9.099  15.726  21.437  0.00  0.00    +0.000 C 
ENDBRANCH  35  37
BRANCH  34  41
ATOM     41  O   UNL     1       8.931  14.252  18.673  0.00  0.00    +0.000 OA
ATOM     42  H   UNL     1       9.020  13.527  18.035  0.00  0.00    +0.000 HD
ENDBRANCH  34  41
ENDBRANCH  30  31
ENDBRANCH  24  30
ENDBRANCH   3  24
TORSDOF 13
ENDMDL
MODEL 7
REMARK VINA RESULT:      -6.6      3.452      5.008
REMARK  Name = 
REMARK  19 active torsions:
REMARK  status: ('A' for Active; 'I' for Inactive)
REMARK    1  A    between atoms: C_1  and  C_2
REMARK    2  A    between atoms: C_2  and  C_3
REMARK    3  A    between atoms: C_2  and  C_4
REMARK    4  A    between atoms: C_4  and  C_5
REMARK    5  A    between atoms: C_4  and  N_24
REMARK    6  A    between atoms: N_7  and  C_8
REMARK    7  A    between atoms: C_8  and  C_9
REMARK    8  A    between atoms: C_8  and  C_21
REMARK    9  A    between atoms: C_9  and  C_10
REMARK   10  A    between atoms: C_13  and  O_14
REMARK   11  A    between atoms: C_15  and  C_16
REMARK   12  A    between atoms: C_16  and  C_17
REMARK   13  A    between atoms: C_16  and  C_18
REMARK   14  A    between atoms: C_16  and  C_19
REMARK   15  A    between atoms: N_24  and  C_25
REMARK   16  A    between atoms: C_26  and  C_28
REMARK   17  A    between atoms: C_28  and  N_29
REMARK   18  A    between atoms: C_28  and  C_30
REMARK   19  A    between atoms: C_30  and  C_31
REMARK                            x       y       z     vdW  Elec       q    Type
REMARK                         _______ _______ _______ _____ _____    ______ ____
ROOT
ATOM      1  C   UNL     1      -0.971  11.545  20.015  0.00  0.00    +0.000 C 
ATOM      2  O   UNL     1      -0.511  11.228  21.113  0.00  0.00    +0.000 OA
ATOM      3  N   UNL     1      -0.146  11.686  18.915  0.00  0.00    +0.000 N 
ATOM      4  H   UNL     1      -0.580  11.900  18.019  0.00  0.00    +0.000 HD
ENDROOT
BRANCH   1   5
ATOM      5  C   UNL     1      -2.500  11.812  19.795  0.00  0.00    +0.000 C 
BRANCH   5   6
ATOM      6  N   UNL     1      -2.784  13.204  20.255  0.00  0.00    +0.000 N 
ATOM      7  C   UNL     1      -1.800  14.238  19.950  0.00  0.00    +0.000 C 
ATOM      8  C   UNL     1      -3.947  13.439  20.975  0.00  0.00    +0.000 C 
ATOM      9  O   UNL     1      -4.614  12.482  21.396  0.00  0.00    +0.000 OA
BRANCH   8  10
ATOM     10  C   UNL     1      -4.395  14.893  21.350  0.00  0.00    +0.000 C 
BRANCH  10  11
ATOM     11  N   UNL     1      -5.094  15.495  20.189  0.00  0.00    +0.000 NA
ATOM     12  H   UNL     1      -4.856  14.984  19.340  0.00  0.00    +0.000 HD
ATOM     13  H   UNL     1      -4.694  16.426  20.031  0.00  0.00    +0.000 HD
ENDBRANCH  10  11
BRANCH  10  14
ATOM     14  C   UNL     1      -5.164  15.134  22.672  0.00  0.00    +0.000 C 
BRANCH  14  15
ATOM     15  C   UNL     1      -4.605  16.165  23.634  0.00  0.00    +0.000 A 
ATOM     16  C   UNL     1      -5.398  16.830  24.576  0.00  0.00    +0.000 A 
ATOM     17  C   UNL     1      -4.864  17.838  25.381  0.00  0.00    +0.000 A 
ATOM     18  C   UNL     1      -3.517  18.165  25.288  0.00  0.00    +0.000 A 
ATOM     19  C   UNL     1      -2.695  17.470  24.405  0.00  0.00    +0.000 A 
ATOM     20  C   UNL     1      -3.233  16.472  23.586  0.00  0.00    +0.000 A 
ENDBRANCH  14  15
ENDBRANCH  10  14
ENDBRANCH   8  10
ENDBRANCH   5   6
BRANCH   5  22
ATOM     21  C   UNL     1      -2.692  10.102  17.859  0.00  0.00    +0.000 C 
ATOM     22  C   UNL     1      -2.964  11.540  18.322  0.00  0.00    +0.000 C 
ATOM     23  C   UNL     1      -4.463  11.815  18.123  0.00  0.00    +0.000 C 
ENDBRANCH   5  22
ENDBRANCH   1   5
BRANCH   3  24
ATOM     24  C   UNL     1       1.309  11.423  18.976  0.00  0.00    +0.000 C 
BRANCH  24  25
ATOM     25  C   UNL     1       2.190  12.658  18.556  0.00  0.00    +0.000 C 
ATOM     26  N   UNL     1       3.197  12.417  17.661  0.00  0.00    +0.000 N 
ATOM     27  O   UNL     1       1.947  13.820  18.875  0.00  0.00    +0.000 OA
ATOM     28  H   UNL     1       3.111  11.616  17.061  0.00  0.00    +0.000 HD
ATOM     29  H   UNL     1       3.629  13.252  17.268  0.00  0.00    +0.000 HD
ENDBRANCH  24  25
BRANCH  24  30
ATOM     30  C   UNL     1       1.784  10.273  18.068  0.00  0.00    +0.000 C 
BRANCH  30  31
ATOM     31  C   UNL     1       1.864   8.870  18.624  0.00  0.00    +0.000 A 
ATOM     32  C   UNL     1       1.367   8.584  19.895  0.00  0.00    +0.000 A 
ATOM     33  C   UNL     1       1.682   7.372  20.504  0.00  0.00    +0.000 A 
ATOM     34  C   UNL     1       2.528   6.455  19.865  0.00  0.00    +0.000 A 
ATOM     35  C   UNL     1       3.063   6.706  18.590  0.00  0.00    +0.000 A 
ATOM     36  C   UNL     1       2.648   7.906  17.965  0.00  0.00    +0.000 A 
BRANCH  35  37
ATOM     37  C   UNL     1       4.129   5.834  17.881  0.00  0.00    +0.000 C 
ATOM     38  C   UNL     1       5.349   5.448  18.750  0.00  0.00    +0.000 C 
ATOM     39  C   UNL     1       3.493   4.528  17.369  0.00  0.00    +0.000 C 
ATOM     40  C   UNL     1       4.720   6.596  16.661  0.00  0.00    +0.000 C 
ENDBRANCH  35  37
BRANCH  34  41
ATOM     41  O   UNL     1       2.831   5.308  20.541  0.00  0.00    +0.000 OA
ATOM     42  H   UNL     1       3.768   5.094  20.408  0.00  0.00    +0.000 HD
ENDBRANCH  34  41
ENDBRANCH  30  31
ENDBRANCH  24  30
ENDBRANCH   3  24
TORSDOF 13
ENDMDL
MODEL 8
REMARK VINA RESULT:      -6.6      3.574      6.876
REMARK  Name = 
REMARK  19 active torsions:
REMARK  status: ('A' for Active; 'I' for Inactive)
REMARK    1  A    between atoms: C_1  and  C_2
REMARK    2  A    between atoms: C_2  and  C_3
REMARK    3  A    between atoms: C_2  and  C_4
REMARK    4  A    between atoms: C_4  and  C_5
REMARK    5  A    between atoms: C_4  and  N_24
REMARK    6  A    between atoms: N_7  and  C_8
REMARK    7  A    between atoms: C_8  and  C_9
REMARK    8  A    between atoms: C_8  and  C_21
REMARK    9  A    between atoms: C_9  and  C_10
REMARK   10  A    between atoms: C_13  and  O_14
REMARK   11  A    between atoms: C_15  and  C_16
REMARK   12  A    between atoms: C_16  and  C_17
REMARK   13  A    between atoms: C_16  and  C_18
REMARK   14  A    between atoms: C_16  and  C_19
REMARK   15  A    between atoms: N_24  and  C_25
REMARK   16  A    between atoms: C_26  and  C_28
REMARK   17  A    between atoms: C_28  and  N_29
REMARK   18  A    between atoms: C_28  and  C_30
REMARK   19  A    between atoms: C_30  and  C_31
REMARK                            x       y       z     vdW  Elec       q    Type
REMARK                         _______ _______ _______ _____ _____    ______ ____
ROOT
ATOM      1  C   UNL     1       0.773  12.889  20.813  0.00  0.00    +0.000 C 
ATOM      2  O   UNL     1       1.942  12.729  20.458  0.00  0.00    +0.000 OA
ATOM      3  N   UNL     1      -0.255  12.203  20.196  0.00  0.00    +0.000 N 
ATOM      4  H   UNL     1      -1.198  12.331  20.558  0.00  0.00    +0.000 HD
ENDROOT
BRANCH   1   5
ATOM      5  C   UNL     1       0.377  13.872  21.969  0.00  0.00    +0.000 C 
BRANCH   5   6
ATOM      6  N   UNL     1       0.540  15.263  21.451  0.00  0.00    +0.000 N 
ATOM      7  C   UNL     1      -0.428  15.744  20.471  0.00  0.00    +0.000 C 
ATOM      8  C   UNL     1       1.616  16.016  21.901  0.00  0.00    +0.000 C 
ATOM      9  O   UNL     1       2.522  15.469  22.548  0.00  0.00    +0.000 OA
BRANCH   8  10
ATOM     10  C   UNL     1       1.763  17.532  21.533  0.00  0.00    +0.000 C 
BRANCH  10  11
ATOM     11  N   UNL     1       2.518  18.217  22.610  0.00  0.00    +0.000 NA
ATOM     12  H   UNL     1       2.243  17.841  23.517  0.00  0.00    +0.000 HD
ATOM     13  H   UNL     1       2.200  19.191  22.645  0.00  0.00    +0.000 HD
ENDBRANCH  10  11
BRANCH  10  14
ATOM     14  C   UNL     1       2.279  17.926  20.128  0.00  0.00    +0.000 C 
BRANCH  14  15
ATOM     15  C   UNL     1       3.166  16.935  19.400  0.00  0.00    +0.000 A 
ATOM     16  C   UNL     1       4.500  16.705  19.759  0.00  0.00    +0.000 A 
ATOM     17  C   UNL     1       5.310  15.852  19.008  0.00  0.00    +0.000 A 
ATOM     18  C   UNL     1       4.785  15.180  17.910  0.00  0.00    +0.000 A 
ATOM     19  C   UNL     1       3.444  15.342  17.574  0.00  0.00    +0.000 A 
ATOM     20  C   UNL     1       2.637  16.210  18.317  0.00  0.00    +0.000 A 
ENDBRANCH  14  15
ENDBRANCH  10  14
ENDBRANCH   8  10
ENDBRANCH   5   6
BRANCH   5  22
ATOM     21  C   UNL     1      -1.241  12.137  23.008  0.00  0.00    +0.000 C 
ATOM     22  C   UNL     1      -1.051  13.590  22.551  0.00  0.00    +0.000 C 
ATOM     23  C   UNL     1      -1.383  14.499  23.746  0.00  0.00    +0.000 C 
ENDBRANCH   5  22
ENDBRANCH   1   5
BRANCH   3  24
ATOM     24  C   UNL     1      -0.016  11.215  19.120  0.00  0.00    +0.000 C 
BRANCH  24  25
ATOM     25  C   UNL     1      -1.213  11.086  18.106  0.00  0.00    +0.000 C 
ATOM     26  N   UNL     1      -1.592  12.228  17.455  0.00  0.00    +0.000 N 
ATOM     27  O   UNL     1      -1.727  10.018  17.776  0.00  0.00    +0.000 OA
ATOM     28  H   UNL     1      -0.912  12.963  17.361  0.00  0.00    +0.000 HD
ATOM     29  H   UNL     1      -2.236  12.085  16.680  0.00  0.00    +0.000 HD
ENDBRANCH  24  25
BRANCH  24  30
ATOM     30  C   UNL     1       0.232   9.780  19.621  0.00  0.00    +0.000 C 
BRANCH  30  31
ATOM     31  C   UNL     1       1.425   9.008  19.107  0.00  0.00    +0.000 A 
ATOM     32  C   UNL     1       2.123   9.451  17.983  0.00  0.00    +0.000 A 
ATOM     33  C   UNL     1       3.036   8.606  17.359  0.00  0.00    +0.000 A 
ATOM     34  C   UNL     1       3.231   7.300  17.829  0.00  0.00    +0.000 A 
ATOM     35  C   UNL     1       2.542   6.806  18.949  0.00  0.00    +0.000 A 
ATOM     36  C   UNL     1       1.689   7.722  19.610  0.00  0.00    +0.000 A 
BRANCH  35  37
ATOM     37  C   UNL     1       2.567   5.336  19.438  0.00  0.00    +0.000 C 
ATOM     38  C   UNL     1       1.969   4.304  18.455  0.00  0.00    +0.000 C 
ATOM     39  C   UNL     1       4.014   4.902  19.742  0.00  0.00    +0.000 C 
ATOM     40  C   UNL     1       1.734   5.190  20.743  0.00  0.00    +0.000 C 
ENDBRANCH  35  37
BRANCH  34  41
ATOM     41  O   UNL     1       4.109   6.512  17.141  0.00  0.00    +0.000 OA
ATOM     42  H   UNL     1       4.191   6.840  16.231  0.00  0.00    +0.000 HD
ENDBRANCH  34  41
ENDBRANCH  30  31
ENDBRANCH  24  30
ENDBRANCH   3  24
TORSDOF 13
ENDMDL
MODEL 9
REMARK VINA RESULT:      -6.6      3.273     10.368
REMARK  Name = 
REMARK  19 active torsions:
REMARK  status: ('A' for Active; 'I' for Inactive)
REMARK    1  A    between atoms: C_1  and  C_2
REMARK    2  A    between atoms: C_2  and  C_3
REMARK    3  A    between atoms: C_2  and  C_4
REMARK    4  A    between atoms: C_4  and  C_5
REMARK    5  A    between atoms: C_4  and  N_24
REMARK    6  A    between atoms: N_7  and  C_8
REMARK    7  A    between atoms: C_8  and  C_9
REMARK    8  A    between atoms: C_8  and  C_21
REMARK    9  A    between atoms: C_9  and  C_10
REMARK   10  A    between atoms: C_13  and  O_14
REMARK   11  A    between atoms: C_15  and  C_16
REMARK   12  A    between atoms: C_16  and  C_17
REMARK   13  A    between atoms: C_16  and  C_18
REMARK   14  A    between atoms: C_16  and  C_19
REMARK   15  A    between atoms: N_24  and  C_25
REMARK   16  A    between atoms: C_26  and  C_28
REMARK   17  A    between atoms: C_28  and  N_29
REMARK   18  A    between atoms: C_28  and  C_30
REMARK   19  A    between atoms: C_30  and  C_31
REMARK                            x       y       z     vdW  Elec       q    Type
REMARK                         _______ _______ _______ _____ _____    ______ ____
ROOT
ATOM      1  C   UNL     1       2.322   7.018  19.308  0.00  0.00    +0.000 C 
ATOM      2  O   UNL     1       2.604   7.842  18.436  0.00  0.00    +0.000 OA
ATOM      3  N   UNL     1       1.739   7.414  20.496  0.00  0.00    +0.000 N 
ATOM      4  H   UNL     1       1.480   6.690  21.164  0.00  0.00    +0.000 HD
ENDROOT
BRANCH   1   5
ATOM      5  C   UNL     1       2.606   5.486  19.132  0.00  0.00    +0.000 C 
BRANCH   5   6
ATOM      6  N   UNL     1       3.991   5.344  18.592  0.00  0.00    +0.000 N 
ATOM      7  C   UNL     1       5.080   5.970  19.335  0.00  0.00    +0.000 C 
ATOM      8  C   UNL     1       4.170   4.656  17.400  0.00  0.00    +0.000 C 
ATOM      9  O   UNL     1       3.185   4.356  16.709  0.00  0.00    +0.000 OA
BRANCH   8  10
ATOM     10  C   UNL     1       5.602   4.324  16.856  0.00  0.00    +0.000 C 
BRANCH  10  11
ATOM     11  N   UNL     1       6.472   3.940  17.994  0.00  0.00    +0.000 NA
ATOM     12  H   UNL     1       7.173   3.270  17.681  0.00  0.00    +0.000 HD
ATOM     13  H   UNL     1       5.902   3.403  18.656  0.00  0.00    +0.000 HD
ENDBRANCH  10  11
BRANCH  10  14
ATOM     14  C   UNL     1       5.754   3.353  15.661  0.00  0.00    +0.000 C 
BRANCH  14  15
ATOM     15  C   UNL     1       6.313   3.910  14.366  0.00  0.00    +0.000 A 
ATOM     16  C   UNL     1       5.924   3.437  13.107  0.00  0.00    +0.000 A 
ATOM     17  C   UNL     1       6.529   3.913  11.943  0.00  0.00    +0.000 A 
ATOM     18  C   UNL     1       7.500   4.904  12.016  0.00  0.00    +0.000 A 
ATOM     19  C   UNL     1       7.855   5.436  13.253  0.00  0.00    +0.000 A 
ATOM     20  C   UNL     1       7.262   4.947  14.421  0.00  0.00    +0.000 A 
ENDBRANCH  14  15
ENDBRANCH  10  14
ENDBRANCH   8  10
ENDBRANCH   5   6
BRANCH   5  22
ATOM     21  C   UNL     1       0.904   4.234  20.631  0.00  0.00    +0.000 C 
ATOM     22  C   UNL     1       2.366   4.664  20.446  0.00  0.00    +0.000 C 
ATOM     23  C   UNL     1       3.233   3.396  20.507  0.00  0.00    +0.000 C 
ENDBRANCH   5  22
ENDBRANCH   1   5
BRANCH   3  24
ATOM     24  C   UNL     1       1.381   8.823  20.772  0.00  0.00    +0.000 C 
BRANCH  24  25
ATOM     25  C   UNL     1       1.049   9.103  22.286  0.00  0.00    +0.000 C 
ATOM     26  N   UNL     1      -0.209   8.772  22.709  0.00  0.00    +0.000 N 
ATOM     27  O   UNL     1       1.877   9.469  23.118  0.00  0.00    +0.000 OA
ATOM     28  H   UNL     1      -0.710   8.071  22.192  0.00  0.00    +0.000 HD
ATOM     29  H   UNL     1      -0.339   8.789  23.719  0.00  0.00    +0.000 HD
ENDBRANCH  24  25
BRANCH  24  30
ATOM     30  C   UNL     1       0.148   9.327  19.999  0.00  0.00    +0.000 C 
BRANCH  30  31
ATOM     31  C   UNL     1      -0.028  10.809  19.763  0.00  0.00    +0.000 A 
ATOM     32  C   UNL     1       0.847  11.500  18.925  0.00  0.00    +0.000 A 
ATOM     33  C   UNL     1       0.848  12.892  18.923  0.00  0.00    +0.000 A 
ATOM     34  C   UNL     1       0.003  13.604  19.785  0.00  0.00    +0.000 A 
ATOM     35  C   UNL     1      -0.886  12.950  20.656  0.00  0.00    +0.000 A 
ATOM     36  C   UNL     1      -0.922  11.539  20.566  0.00  0.00    +0.000 A 
BRANCH  35  37
ATOM     37  C   UNL     1      -1.732  13.642  21.754  0.00  0.00    +0.000 C 
ATOM     38  C   UNL     1      -2.741  14.696  21.243  0.00  0.00    +0.000 C 
ATOM     39  C   UNL     1      -2.525  12.592  22.555  0.00  0.00    +0.000 C 
ATOM     40  C   UNL     1      -0.806  14.407  22.742  0.00  0.00    +0.000 C 
ENDBRANCH  35  37
BRANCH  34  41
ATOM     41  O   UNL     1       0.090  14.966  19.763  0.00  0.00    +0.000 OA
ATOM     42  H   UNL     1      -0.661  15.329  19.268  0.00  0.00    +0.000 HD
ENDBRANCH  34  41
ENDBRANCH  30  31
ENDBRANCH  24  30
ENDBRANCH   3  24
TORSDOF 13
ENDMDL
