MODEL 1
REMARK VINA RESULT:      -7.9      0.000      0.000
REMARK  Name = 
REMARK  6 active torsions:
REMARK  status: ('A' for Active; 'I' for Inactive)
REMARK    1  A    between atoms: C_1  and  C_2
REMARK    2  A    between atoms: C_2  and  O_3
REMARK    3  A    between atoms: O_3  and  C_4
REMARK    4  A    between atoms: C_4  and  C_6
REMARK    5  A    between atoms: C_10  and  N_11
REMARK    6  A    between atoms: C_12  and  C_14
REMARK                            x       y       z     vdW  Elec       q    Type
REMARK                         _______ _______ _______ _____ _____    ______ ____
ROOT
ATOM      1  C   UNL     1       0.897  10.004  19.791  0.00  0.00    +0.000 A 
ATOM      2  C   UNL     1       1.458  10.161  18.575  0.00  0.00    +0.000 A 
ATOM      3  N   UNL     1       2.209   9.234  17.909  0.00  0.00    +0.000 NA
ATOM      4  C   UNL     1       2.337   8.103  18.515  0.00  0.00    +0.000 A 
ATOM      5  S   UNL     1       3.180   6.767  17.845  0.00  0.00    +0.000 S 
ATOM      6  C   UNL     1       2.698   5.827  19.255  0.00  0.00    +0.000 A 
ATOM      7  N   UNL     1       3.053   4.498  19.310  0.00  0.00    +0.000 N 
ATOM      8  C   UNL     1       3.292   3.651  18.127  0.00  0.00    +0.000 C 
ATOM      9  C   UNL     1       2.186   2.592  18.014  0.00  0.00    +0.000 C 
ATOM     10  O   UNL     1       2.106   1.800  19.208  0.00  0.00    +0.000 OA
ATOM     11  C   UNL     1       1.809   2.632  20.342  0.00  0.00    +0.000 C 
ATOM     12  C   UNL     1       2.884   3.711  20.541  0.00  0.00    +0.000 C 
ATOM     13  N   UNL     1       2.042   6.489  20.165  0.00  0.00    +0.000 NA
ATOM     14  N   UNL     1       1.831   7.786  19.745  0.00  0.00    +0.000 N 
ATOM     15  C   UNL     1       1.116   8.711  20.493  0.00  0.00    +0.000 A 
ATOM     16  O   UNL     1       0.680   8.541  21.631  0.00  0.00    +0.000 OA
ENDROOT
BRANCH   1  18
ATOM     17  N   UNL     1       0.004  11.312  21.653  0.00  0.00    +0.000 N 
ATOM     18  C   UNL     1       0.071  11.141  20.285  0.00  0.00    +0.000 C 
ATOM     19  O   UNL     1      -0.484  11.871  19.464  0.00  0.00    +0.000 OA
ATOM     20  H   UNL     1       0.615  10.736  22.235  0.00  0.00    +0.000 HD
BRANCH  17  25
ATOM     21  C   UNL     1      -2.840  12.857  23.479  0.00  0.00    +0.000 A 
ATOM     22  C   UNL     1      -2.387  14.174  23.646  0.00  0.00    +0.000 A 
ATOM     23  C   UNL     1      -1.158  14.555  23.124  0.00  0.00    +0.000 A 
ATOM     24  C   UNL     1      -0.371  13.618  22.458  0.00  0.00    +0.000 A 
ATOM     25  C   UNL     1      -0.786  12.289  22.308  0.00  0.00    +0.000 A 
ATOM     26  C   UNL     1      -2.040  11.918  22.805  0.00  0.00    +0.000 A 
BRANCH  21  27
ATOM     27  C   UNL     1      -4.197  12.449  23.927  0.00  0.00    +0.000 C 
ATOM     28  O   UNL     1      -4.428  11.917  25.000  0.00  0.00    +0.000 OA
BRANCH  27  29
ATOM     29  O   UNL     1      -5.078  12.631  22.913  0.00  0.00    +0.000 OA
BRANCH  29  31
ATOM     30  C   UNL     1      -6.328  14.580  23.482  0.00  0.00    +0.000 C 
ATOM     31  C   UNL     1      -6.385  13.073  23.294  0.00  0.00    +0.000 C 
ENDBRANCH  29  31
ENDBRANCH  27  29
ENDBRANCH  21  27
ENDBRANCH  17  25
ENDBRANCH   1  18
TORSDOF 5
ENDMDL
MODEL 2
REMARK VINA RESULT:      -7.9      2.515      9.881
REMARK  Name = 
REMARK  6 active torsions:
REMARK  status: ('A' for Active; 'I' for Inactive)
REMARK    1  A    between atoms: C_1  and  C_2
REMARK    2  A    between atoms: C_2  and  O_3
REMARK    3  A    between atoms: O_3  and  C_4
REMARK    4  A    between atoms: C_4  and  C_6
REMARK    5  A    between atoms: C_10  and  N_11
REMARK    6  A    between atoms: C_12  and  C_14
REMARK                            x       y       z     vdW  Elec       q    Type
REMARK                         _______ _______ _______ _____ _____    ______ ____
ROOT
ATOM      1  C   UNL     1       0.920   8.931  20.948  0.00  0.00    +0.000 A 
ATOM      2  C   UNL     1       1.040   9.102  22.279  0.00  0.00    +0.000 A 
ATOM      3  N   UNL     1       0.388  10.038  23.032  0.00  0.00    +0.000 NA
ATOM      4  C   UNL     1      -0.438  10.781  22.377  0.00  0.00    +0.000 A 
ATOM      5  S   UNL     1      -1.417  11.980  23.119  0.00  0.00    +0.000 S 
ATOM      6  C   UNL     1      -2.159  12.267  21.548  0.00  0.00    +0.000 A 
ATOM      7  N   UNL     1      -3.182  13.185  21.464  0.00  0.00    +0.000 N 
ATOM      8  C   UNL     1      -4.079  13.535  22.580  0.00  0.00    +0.000 C 
ATOM      9  C   UNL     1      -5.498  13.026  22.285  0.00  0.00    +0.000 C 
ATOM     10  O   UNL     1      -5.988  13.554  21.044  0.00  0.00    +0.000 OA
ATOM     11  C   UNL     1      -5.137  13.151  19.958  0.00  0.00    +0.000 C 
ATOM     12  C   UNL     1      -3.697  13.641  20.163  0.00  0.00    +0.000 C 
ATOM     13  N   UNL     1      -1.653  11.583  20.563  0.00  0.00    +0.000 NA
ATOM     14  N   UNL     1      -0.674  10.731  21.032  0.00  0.00    +0.000 N 
ATOM     15  C   UNL     1       0.007   9.844  20.210  0.00  0.00    +0.000 A 
ATOM     16  O   UNL     1      -0.089   9.771  18.986  0.00  0.00    +0.000 OA
ENDROOT
BRANCH   1  18
ATOM     17  N   UNL     1       2.182   7.980  19.082  0.00  0.00    +0.000 N 
ATOM     18  C   UNL     1       1.693   7.800  20.360  0.00  0.00    +0.000 C 
ATOM     19  O   UNL     1       1.870   6.789  21.037  0.00  0.00    +0.000 OA
ATOM     20  H   UNL     1       2.096   8.910  18.665  0.00  0.00    +0.000 HD
BRANCH  17  25
ATOM     21  C   UNL     1       3.042   4.685  17.595  0.00  0.00    +0.000 A 
ATOM     22  C   UNL     1       4.184   5.003  16.845  0.00  0.00    +0.000 A 
ATOM     23  C   UNL     1       4.684   6.298  16.860  0.00  0.00    +0.000 A 
ATOM     24  C   UNL     1       4.034   7.280  17.604  0.00  0.00    +0.000 A 
ATOM     25  C   UNL     1       2.873   6.996  18.334  0.00  0.00    +0.000 A 
ATOM     26  C   UNL     1       2.392   5.682  18.344  0.00  0.00    +0.000 A 
BRANCH  21  27
ATOM     27  C   UNL     1       2.548   3.286  17.688  0.00  0.00    +0.000 C 
ATOM     28  O   UNL     1       3.243   2.305  17.487  0.00  0.00    +0.000 OA
BRANCH  27  29
ATOM     29  O   UNL     1       1.207   3.297  17.885  0.00  0.00    +0.000 OA
BRANCH  29  31
ATOM     30  C   UNL     1       1.105   2.972  20.245  0.00  0.00    +0.000 C 
ATOM     31  C   UNL     1       0.717   2.403  18.890  0.00  0.00    +0.000 C 
ENDBRANCH  29  31
ENDBRANCH  27  29
ENDBRANCH  21  27
ENDBRANCH  17  25
ENDBRANCH   1  18
TORSDOF 5
ENDMDL
MODEL 3
REMARK VINA RESULT:      -7.8      0.972      1.070
REMARK  Name = 
REMARK  6 active torsions:
REMARK  status: ('A' for Active; 'I' for Inactive)
REMARK    1  A    between atoms: C_1  and  C_2
REMARK    2  A    between atoms: C_2  and  O_3
REMARK    3  A    between atoms: O_3  and  C_4
REMARK    4  A    between atoms: C_4  and  C_6
REMARK    5  A    between atoms: C_10  and  N_11
REMARK    6  A    between atoms: C_12  and  C_14
REMARK                            x       y       z     vdW  Elec       q    Type
REMARK                         _______ _______ _______ _____ _____    ______ ____
ROOT
ATOM      1  C   UNL     1       0.349  10.287  20.423  0.00  0.00    +0.000 A 
ATOM      2  C   UNL     1       0.912  10.443  19.209  0.00  0.00    +0.000 A 
ATOM      3  N   UNL     1       1.675   9.519  18.551  0.00  0.00    +0.000 NA
ATOM      4  C   UNL     1       1.812   8.393  19.164  0.00  0.00    +0.000 A 
ATOM      5  S   UNL     1       2.670   7.061  18.505  0.00  0.00    +0.000 S 
ATOM      6  C   UNL     1       2.192   6.124  19.918  0.00  0.00    +0.000 A 
ATOM      7  N   UNL     1       2.560   4.799  19.982  0.00  0.00    +0.000 N 
ATOM      8  C   UNL     1       2.811   3.949  18.805  0.00  0.00    +0.000 C 
ATOM      9  C   UNL     1       1.716   2.878  18.694  0.00  0.00    +0.000 C 
ATOM     10  O   UNL     1       1.639   2.092  19.892  0.00  0.00    +0.000 OA
ATOM     11  C   UNL     1       1.331   2.928  21.020  0.00  0.00    +0.000 C 
ATOM     12  C   UNL     1       2.394   4.018  21.217  0.00  0.00    +0.000 C 
ATOM     13  N   UNL     1       1.527   6.786  20.822  0.00  0.00    +0.000 NA
ATOM     14  N   UNL     1       1.304   8.078  20.394  0.00  0.00    +0.000 N 
ATOM     15  C   UNL     1       0.578   9.000  21.134  0.00  0.00    +0.000 A 
ATOM     16  O   UNL     1       0.139   8.832  22.271  0.00  0.00    +0.000 OA
ENDROOT
BRANCH   1  18
ATOM     17  N   UNL     1      -0.605  11.567  22.275  0.00  0.00    +0.000 N 
ATOM     18  C   UNL     1      -0.490  11.419  20.908  0.00  0.00    +0.000 C 
ATOM     19  O   UNL     1      -1.013  12.164  20.081  0.00  0.00    +0.000 OA
ATOM     20  H   UNL     1      -0.017  10.978  22.869  0.00  0.00    +0.000 HD
BRANCH  17  25
ATOM     21  C   UNL     1      -3.575  13.155  23.845  0.00  0.00    +0.000 A 
ATOM     22  C   UNL     1      -3.061  14.404  24.224  0.00  0.00    +0.000 A 
ATOM     23  C   UNL     1      -1.744  14.729  23.928  0.00  0.00    +0.000 A 
ATOM     24  C   UNL     1      -0.934  13.802  23.277  0.00  0.00    +0.000 A 
ATOM     25  C   UNL     1      -1.414  12.535  22.919  0.00  0.00    +0.000 A 
ATOM     26  C   UNL     1      -2.751  12.224  23.188  0.00  0.00    +0.000 A 
BRANCH  21  27
ATOM     27  C   UNL     1      -5.009  12.820  24.048  0.00  0.00    +0.000 C 
ATOM     28  O   UNL     1      -5.403  11.925  24.777  0.00  0.00    +0.000 OA
BRANCH  27  29
ATOM     29  O   UNL     1      -5.766  13.560  23.200  0.00  0.00    +0.000 OA
BRANCH  29  31
ATOM     30  C   UNL     1      -6.080  12.483  21.096  0.00  0.00    +0.000 C 
ATOM     31  C   UNL     1      -6.726  12.834  22.427  0.00  0.00    +0.000 C 
ENDBRANCH  29  31
ENDBRANCH  27  29
ENDBRANCH  21  27
ENDBRANCH  17  25
ENDBRANCH   1  18
TORSDOF 5
ENDMDL
MODEL 4
REMARK VINA RESULT:      -7.7      2.558     10.143
REMARK  Name = 
REMARK  6 active torsions:
REMARK  status: ('A' for Active; 'I' for Inactive)
REMARK    1  A    between atoms: C_1  and  C_2
REMARK    2  A    between atoms: C_2  and  O_3
REMARK    3  A    between atoms: O_3  and  C_4
REMARK    4  A    between atoms: C_4  and  C_6
REMARK    5  A    between atoms: C_10  and  N_11
REMARK    6  A    between atoms: C_12  and  C_14
REMARK                            x       y       z     vdW  Elec       q    Type
REMARK                         _______ _______ _______ _____ _____    ______ ____
ROOT
ATOM      1  C   UNL     1       0.886   8.966  20.948  0.00  0.00    +0.000 A 
ATOM      2  C   UNL     1       1.014   9.141  22.279  0.00  0.00    +0.000 A 
ATOM      3  N   UNL     1       0.363  10.076  23.033  0.00  0.00    +0.000 NA
ATOM      4  C   UNL     1      -0.472  10.813  22.383  0.00  0.00    +0.000 A 
ATOM      5  S   UNL     1      -1.452  12.009  23.128  0.00  0.00    +0.000 S 
ATOM      6  C   UNL     1      -2.206  12.289  21.561  0.00  0.00    +0.000 A 
ATOM      7  N   UNL     1      -3.233  13.202  21.481  0.00  0.00    +0.000 N 
ATOM      8  C   UNL     1      -4.125  13.549  22.602  0.00  0.00    +0.000 C 
ATOM      9  C   UNL     1      -5.543  13.032  22.318  0.00  0.00    +0.000 C 
ATOM     10  O   UNL     1      -6.044  13.555  21.079  0.00  0.00    +0.000 OA
ATOM     11  C   UNL     1      -5.198  13.153  19.988  0.00  0.00    +0.000 C 
ATOM     12  C   UNL     1      -3.759  13.651  20.183  0.00  0.00    +0.000 C 
ATOM     13  N   UNL     1      -1.702  11.605  20.574  0.00  0.00    +0.000 NA
ATOM     14  N   UNL     1      -0.717  10.759  21.039  0.00  0.00    +0.000 N 
ATOM     15  C   UNL     1      -0.036   9.874  20.215  0.00  0.00    +0.000 A 
ATOM     16  O   UNL     1      -0.140   9.797  18.991  0.00  0.00    +0.000 OA
ENDROOT
BRANCH   1  18
ATOM     17  N   UNL     1       2.156   8.025  19.083  0.00  0.00    +0.000 N 
ATOM     18  C   UNL     1       1.661   7.838  20.358  0.00  0.00    +0.000 C 
ATOM     19  O   UNL     1       1.834   6.823  21.031  0.00  0.00    +0.000 OA
ATOM     20  H   UNL     1       2.073   8.956  18.672  0.00  0.00    +0.000 HD
BRANCH  17  25
ATOM     21  C   UNL     1       3.008   4.742  17.564  0.00  0.00    +0.000 A 
ATOM     22  C   UNL     1       4.166   5.058  16.839  0.00  0.00    +0.000 A 
ATOM     23  C   UNL     1       4.680   6.347  16.882  0.00  0.00    +0.000 A 
ATOM     24  C   UNL     1       4.027   7.326  17.629  0.00  0.00    +0.000 A 
ATOM     25  C   UNL     1       2.850   7.043  18.334  0.00  0.00    +0.000 A 
ATOM     26  C   UNL     1       2.355   5.735  18.315  0.00  0.00    +0.000 A 
BRANCH  21  27
ATOM     27  C   UNL     1       2.497   3.348  17.627  0.00  0.00    +0.000 C 
ATOM     28  O   UNL     1       1.321   3.060  17.770  0.00  0.00    +0.000 OA
BRANCH  27  29
ATOM     29  O   UNL     1       3.544   2.487  17.645  0.00  0.00    +0.000 OA
BRANCH  29  31
ATOM     30  C   UNL     1       4.336   2.262  19.884  0.00  0.00    +0.000 C 
ATOM     31  C   UNL     1       3.587   1.579  18.750  0.00  0.00    +0.000 C 
ENDBRANCH  29  31
ENDBRANCH  27  29
ENDBRANCH  21  27
ENDBRANCH  17  25
ENDBRANCH   1  18
TORSDOF 5
ENDMDL
MODEL 5
REMARK VINA RESULT:      -7.7      3.378     10.477
REMARK  Name = 
REMARK  6 active torsions:
REMARK  status: ('A' for Active; 'I' for Inactive)
REMARK    1  A    between atoms: C_1  and  C_2
REMARK    2  A    between atoms: C_2  and  O_3
REMARK    3  A    between atoms: O_3  and  C_4
REMARK    4  A    between atoms: C_4  and  C_6
REMARK    5  A    between atoms: C_10  and  N_11
REMARK    6  A    between atoms: C_12  and  C_14
REMARK                            x       y       z     vdW  Elec       q    Type
REMARK                         _______ _______ _______ _____ _____    ______ ____
ROOT
ATOM      1  C   UNL     1       1.275   8.964  19.767  0.00  0.00    +0.000 A 
ATOM      2  C   UNL     1       1.225   8.412  20.995  0.00  0.00    +0.000 A 
ATOM      3  N   UNL     1       0.575   8.926  22.082  0.00  0.00    +0.000 NA
ATOM      4  C   UNL     1      -0.070  10.021  21.861  0.00  0.00    +0.000 A 
ATOM      5  S   UNL     1      -1.013  10.815  23.055  0.00  0.00    +0.000 S 
ATOM      6  C   UNL     1      -1.494  11.977  21.823  0.00  0.00    +0.000 A 
ATOM      7  N   UNL     1      -2.394  12.961  22.165  0.00  0.00    +0.000 N 
ATOM      8  C   UNL     1      -3.397  12.834  23.238  0.00  0.00    +0.000 C 
ATOM      9  C   UNL     1      -4.806  12.782  22.628  0.00  0.00    +0.000 C 
ATOM     10  O   UNL     1      -5.061  13.939  21.819  0.00  0.00    +0.000 OA
ATOM     11  C   UNL     1      -4.113  14.014  20.740  0.00  0.00    +0.000 C 
ATOM     12  C   UNL     1      -2.672  14.091  21.265  0.00  0.00    +0.000 C 
ATOM     13  N   UNL     1      -0.929  11.818  20.660  0.00  0.00    +0.000 NA
ATOM     14  N   UNL     1      -0.120  10.701  20.677  0.00  0.00    +0.000 N 
ATOM     15  C   UNL     1       0.574  10.260  19.559  0.00  0.00    +0.000 A 
ATOM     16  O   UNL     1       0.643  10.836  18.474  0.00  0.00    +0.000 OA
ENDROOT
BRANCH   1  18
ATOM     17  N   UNL     1       2.359   6.892  19.056  0.00  0.00    +0.000 N 
ATOM     18  C   UNL     1       2.000   8.183  18.725  0.00  0.00    +0.000 C 
ATOM     19  O   UNL     1       2.222   8.710  17.637  0.00  0.00    +0.000 OA
ATOM     20  H   UNL     1       2.003   6.508  19.934  0.00  0.00    +0.000 HD
BRANCH  17  25
ATOM     21  C   UNL     1       5.130   5.625  16.928  0.00  0.00    +0.000 A 
ATOM     22  C   UNL     1       4.673   4.339  16.604  0.00  0.00    +0.000 A 
ATOM     23  C   UNL     1       3.435   3.909  17.062  0.00  0.00    +0.000 A 
ATOM     24  C   UNL     1       2.664   4.750  17.862  0.00  0.00    +0.000 A 
ATOM     25  C   UNL     1       3.114   6.025  18.227  0.00  0.00    +0.000 A 
ATOM     26  C   UNL     1       4.346   6.468  17.735  0.00  0.00    +0.000 A 
BRANCH  21  27
ATOM     27  C   UNL     1       6.398   6.156  16.362  0.00  0.00    +0.000 C 
ATOM     28  O   UNL     1       7.132   5.521  15.623  0.00  0.00    +0.000 OA
BRANCH  27  29
ATOM     29  O   UNL     1       6.659   7.369  16.906  0.00  0.00    +0.000 OA
BRANCH  29  31
ATOM     30  C   UNL     1       7.945   6.624  18.771  0.00  0.00    +0.000 C 
ATOM     31  C   UNL     1       7.937   7.509  17.535  0.00  0.00    +0.000 C 
ENDBRANCH  29  31
ENDBRANCH  27  29
ENDBRANCH  21  27
ENDBRANCH  17  25
ENDBRANCH   1  18
TORSDOF 5
ENDMDL
MODEL 6
REMARK VINA RESULT:      -7.6      3.863     10.440
REMARK  Name = 
REMARK  6 active torsions:
REMARK  status: ('A' for Active; 'I' for Inactive)
REMARK    1  A    between atoms: C_1  and  C_2
REMARK    2  A    between atoms: C_2  and  O_3
REMARK    3  A    between atoms: O_3  and  C_4
REMARK    4  A    between atoms: C_4  and  C_6
REMARK    5  A    between atoms: C_10  and  N_11
REMARK    6  A    between atoms: C_12  and  C_14
REMARK                            x       y       z     vdW  Elec       q    Type
REMARK                         _______ _______ _______ _____ _____    ______ ____
ROOT
ATOM      1  C   UNL     1       0.458  10.098  18.780  0.00  0.00    +0.000 A 
ATOM      2  C   UNL     1       0.730  10.832  19.878  0.00  0.00    +0.000 A 
ATOM      3  N   UNL     1      -0.117  11.716  20.484  0.00  0.00    +0.000 NA
ATOM      4  C   UNL     1      -1.288  11.799  19.951  0.00  0.00    +0.000 A 
ATOM      5  S   UNL     1      -2.540  12.791  20.578  0.00  0.00    +0.000 S 
ATOM      6  C   UNL     1      -3.604  12.139  19.335  0.00  0.00    +0.000 A 
ATOM      7  N   UNL     1      -4.922  12.538  19.324  0.00  0.00    +0.000 N 
ATOM      8  C   UNL     1      -5.663  12.993  20.514  0.00  0.00    +0.000 C 
ATOM      9  C   UNL     1      -6.743  11.964  20.878  0.00  0.00    +0.000 C 
ATOM     10  O   UNL     1      -7.631  11.736  19.774  0.00  0.00    +0.000 OA
ATOM     11  C   UNL     1      -6.902  11.232  18.642  0.00  0.00    +0.000 C 
ATOM     12  C   UNL     1      -5.810  12.215  18.197  0.00  0.00    +0.000 C 
ATOM     13  N   UNL     1      -3.038  11.323  18.493  0.00  0.00    +0.000 NA
ATOM     14  N   UNL     1      -1.718  11.123  18.843  0.00  0.00    +0.000 N 
ATOM     15  C   UNL     1      -0.879  10.262  18.150  0.00  0.00    +0.000 A 
ATOM     16  O   UNL     1      -1.154   9.664  17.111  0.00  0.00    +0.000 OA
ENDROOT
BRANCH   1  18
ATOM     17  N   UNL     1       1.696   8.013  19.092  0.00  0.00    +0.000 N 
ATOM     18  C   UNL     1       1.526   9.158  18.339  0.00  0.00    +0.000 C 
ATOM     19  O   UNL     1       2.179   9.433  17.334  0.00  0.00    +0.000 OA
ATOM     20  H   UNL     1       1.008   7.817  19.822  0.00  0.00    +0.000 HD
BRANCH  17  25
ATOM     21  C   UNL     1       4.444   6.143  17.430  0.00  0.00    +0.000 A 
ATOM     22  C   UNL     1       4.737   5.161  18.388  0.00  0.00    +0.000 A 
ATOM     23  C   UNL     1       4.003   5.100  19.564  0.00  0.00    +0.000 A 
ATOM     24  C   UNL     1       2.993   6.031  19.797  0.00  0.00    +0.000 A 
ATOM     25  C   UNL     1       2.703   7.042  18.871  0.00  0.00    +0.000 A 
ATOM     26  C   UNL     1       3.422   7.078  17.672  0.00  0.00    +0.000 A 
BRANCH  21  27
ATOM     27  C   UNL     1       5.135   6.164  16.115  0.00  0.00    +0.000 C 
ATOM     28  O   UNL     1       5.006   7.055  15.292  0.00  0.00    +0.000 OA
BRANCH  27  29
ATOM     29  O   UNL     1       5.796   4.994  15.936  0.00  0.00    +0.000 OA
BRANCH  29  31
ATOM     30  C   UNL     1       6.282   3.899  13.874  0.00  0.00    +0.000 C 
ATOM     31  C   UNL     1       6.736   4.967  14.857  0.00  0.00    +0.000 C 
ENDBRANCH  29  31
ENDBRANCH  27  29
ENDBRANCH  21  27
ENDBRANCH  17  25
ENDBRANCH   1  18
TORSDOF 5
ENDMDL
MODEL 7
REMARK VINA RESULT:      -7.6      3.339     10.439
REMARK  Name = 
REMARK  6 active torsions:
REMARK  status: ('A' for Active; 'I' for Inactive)
REMARK    1  A    between atoms: C_1  and  C_2
REMARK    2  A    between atoms: C_2  and  O_3
REMARK    3  A    between atoms: O_3  and  C_4
REMARK    4  A    between atoms: C_4  and  C_6
REMARK    5  A    between atoms: C_10  and  N_11
REMARK    6  A    between atoms: C_12  and  C_14
REMARK                            x       y       z     vdW  Elec       q    Type
REMARK                         _______ _______ _______ _____ _____    ______ ____
ROOT
ATOM      1  C   UNL     1       1.005   8.759  20.883  0.00  0.00    +0.000 A 
ATOM      2  C   UNL     1       1.191   9.002  22.196  0.00  0.00    +0.000 A 
ATOM      3  N   UNL     1       0.593   9.994  22.922  0.00  0.00    +0.000 NA
ATOM      4  C   UNL     1      -0.248  10.717  22.265  0.00  0.00    +0.000 A 
ATOM      5  S   UNL     1      -1.167  11.977  22.980  0.00  0.00    +0.000 S 
ATOM      6  C   UNL     1      -1.976  12.193  21.431  0.00  0.00    +0.000 A 
ATOM      7  N   UNL     1      -2.983  13.127  21.341  0.00  0.00    +0.000 N 
ATOM      8  C   UNL     1      -3.820  13.559  22.474  0.00  0.00    +0.000 C 
ATOM      9  C   UNL     1      -5.260  13.066  22.274  0.00  0.00    +0.000 C 
ATOM     10  O   UNL     1      -5.798  13.534  21.029  0.00  0.00    +0.000 OA
ATOM     11  C   UNL     1      -5.006  13.052  19.929  0.00  0.00    +0.000 C 
ATOM     12  C   UNL     1      -3.548  13.520  20.041  0.00  0.00    +0.000 C 
ATOM     13  N   UNL     1      -1.529  11.443  20.464  0.00  0.00    +0.000 NA
ATOM     14  N   UNL     1      -0.547  10.597  20.936  0.00  0.00    +0.000 N 
ATOM     15  C   UNL     1       0.077   9.650  20.137  0.00  0.00    +0.000 A 
ATOM     16  O   UNL     1      -0.077   9.511  18.924  0.00  0.00    +0.000 OA
ENDROOT
BRANCH   1  18
ATOM     17  N   UNL     1       2.118   7.659  19.004  0.00  0.00    +0.000 N 
ATOM     18  C   UNL     1       1.727   7.580  20.326  0.00  0.00    +0.000 C 
ATOM     19  O   UNL     1       1.953   6.622  21.063  0.00  0.00    +0.000 OA
ATOM     20  H   UNL     1       2.003   8.555  18.526  0.00  0.00    +0.000 HD
BRANCH  17  25
ATOM     21  C   UNL     1       4.639   5.845  16.964  0.00  0.00    +0.000 A 
ATOM     22  C   UNL     1       4.061   4.571  16.866  0.00  0.00    +0.000 A 
ATOM     23  C   UNL     1       2.824   4.326  17.447  0.00  0.00    +0.000 A 
ATOM     24  C   UNL     1       2.175   5.343  18.144  0.00  0.00    +0.000 A 
ATOM     25  C   UNL     1       2.747   6.614  18.284  0.00  0.00    +0.000 A 
ATOM     26  C   UNL     1       3.977   6.867  17.668  0.00  0.00    +0.000 A 
BRANCH  21  27
ATOM     27  C   UNL     1       5.907   6.170  16.259  0.00  0.00    +0.000 C 
ATOM     28  O   UNL     1       6.067   6.051  15.056  0.00  0.00    +0.000 OA
BRANCH  27  29
ATOM     29  O   UNL     1       6.862   6.472  17.172  0.00  0.00    +0.000 OA
BRANCH  29  31
ATOM     30  C   UNL     1       7.792   5.799  19.263  0.00  0.00    +0.000 C 
ATOM     31  C   UNL     1       7.453   5.357  17.848  0.00  0.00    +0.000 C 
ENDBRANCH  29  31
ENDBRANCH  27  29
ENDBRANCH  21  27
ENDBRANCH  17  25
ENDBRANCH   1  18
TORSDOF 5
ENDMDL
MODEL 8
REMARK VINA RESULT:      -7.5      3.213      9.748
REMARK  Name = 
REMARK  6 active torsions:
REMARK  status: ('A' for Active; 'I' for Inactive)
REMARK    1  A    between atoms: C_1  and  C_2
REMARK    2  A    between atoms: C_2  and  O_3
REMARK    3  A    between atoms: O_3  and  C_4
REMARK    4  A    between atoms: C_4  and  C_6
REMARK    5  A    between atoms: C_10  and  N_11
REMARK    6  A    between atoms: C_12  and  C_14
REMARK                            x       y       z     vdW  Elec       q    Type
REMARK                         _______ _______ _______ _____ _____    ______ ____
ROOT
ATOM      1  C   UNL     1       0.415  10.243  18.814  0.00  0.00    +0.000 A 
ATOM      2  C   UNL     1       0.699  10.904  19.954  0.00  0.00    +0.000 A 
ATOM      3  N   UNL     1      -0.140  11.747  20.626  0.00  0.00    +0.000 NA
ATOM      4  C   UNL     1      -1.317  11.864  20.112  0.00  0.00    +0.000 A 
ATOM      5  S   UNL     1      -2.561  12.814  20.816  0.00  0.00    +0.000 S 
ATOM      6  C   UNL     1      -3.640  12.243  19.545  0.00  0.00    +0.000 A 
ATOM      7  N   UNL     1      -4.957  12.643  19.575  0.00  0.00    +0.000 N 
ATOM      8  C   UNL     1      -5.684  13.020  20.799  0.00  0.00    +0.000 C 
ATOM      9  C   UNL     1      -6.762  11.969  21.108  0.00  0.00    +0.000 C 
ATOM     10  O   UNL     1      -7.662  11.813  20.001  0.00  0.00    +0.000 OA
ATOM     11  C   UNL     1      -6.945  11.384  18.830  0.00  0.00    +0.000 C 
ATOM     12  C   UNL     1      -5.857  12.394  18.438  0.00  0.00    +0.000 C 
ATOM     13  N   UNL     1      -3.083  11.484  18.646  0.00  0.00    +0.000 NA
ATOM     14  N   UNL     1      -1.760  11.262  18.968  0.00  0.00    +0.000 N 
ATOM     15  C   UNL     1      -0.929  10.447  18.211  0.00  0.00    +0.000 A 
ATOM     16  O   UNL     1      -1.216   9.918  17.138  0.00  0.00    +0.000 OA
ENDROOT
BRANCH   1  18
ATOM     17  N   UNL     1       1.627   8.124  18.950  0.00  0.00    +0.000 N 
ATOM     18  C   UNL     1       1.477   9.333  18.301  0.00  0.00    +0.000 C 
ATOM     19  O   UNL     1       2.143   9.688  17.330  0.00  0.00    +0.000 OA
ATOM     20  H   UNL     1       0.929   7.871  19.654  0.00  0.00    +0.000 HD
BRANCH  17  25
ATOM     21  C   UNL     1       3.587   4.969  19.064  0.00  0.00    +0.000 A 
ATOM     22  C   UNL     1       4.564   5.207  18.087  0.00  0.00    +0.000 A 
ATOM     23  C   UNL     1       4.591   6.423  17.417  0.00  0.00    +0.000 A 
ATOM     24  C   UNL     1       3.632   7.392  17.705  0.00  0.00    +0.000 A 
ATOM     25  C   UNL     1       2.626   7.164  18.653  0.00  0.00    +0.000 A 
ATOM     26  C   UNL     1       2.623   5.952  19.350  0.00  0.00    +0.000 A 
BRANCH  21  27
ATOM     27  C   UNL     1       3.600   3.724  19.876  0.00  0.00    +0.000 C 
ATOM     28  O   UNL     1       4.317   2.766  19.641  0.00  0.00    +0.000 OA
BRANCH  27  29
ATOM     29  O   UNL     1       2.608   3.780  20.798  0.00  0.00    +0.000 OA
BRANCH  29  31
ATOM     30  C   UNL     1       0.811   2.725  19.639  0.00  0.00    +0.000 C 
ATOM     31  C   UNL     1       1.734   2.648  20.844  0.00  0.00    +0.000 C 
ENDBRANCH  29  31
ENDBRANCH  27  29
ENDBRANCH  21  27
ENDBRANCH  17  25
ENDBRANCH   1  18
TORSDOF 5
ENDMDL
MODEL 9
REMARK VINA RESULT:      -7.5      2.475      9.850
REMARK  Name = 
REMARK  6 active torsions:
REMARK  status: ('A' for Active; 'I' for Inactive)
REMARK    1  A    between atoms: C_1  and  C_2
REMARK    2  A    between atoms: C_2  and  O_3
REMARK    3  A    between atoms: O_3  and  C_4
REMARK    4  A    between atoms: C_4  and  C_6
REMARK    5  A    between atoms: C_10  and  N_11
REMARK    6  A    between atoms: C_12  and  C_14
REMARK                            x       y       z     vdW  Elec       q    Type
REMARK                         _______ _______ _______ _____ _____    ______ ____
ROOT
ATOM      1  C   UNL     1       0.826  10.338  19.312  0.00  0.00    +0.000 A 
ATOM      2  C   UNL     1       1.492  10.804  20.388  0.00  0.00    +0.000 A 
ATOM      3  N   UNL     1       1.005  11.679  21.318  0.00  0.00    +0.000 NA
ATOM      4  C   UNL     1      -0.220  12.039  21.136  0.00  0.00    +0.000 A 
ATOM      5  S   UNL     1      -1.065  13.078  22.208  0.00  0.00    +0.000 S 
ATOM      6  C   UNL     1      -2.502  12.841  21.218  0.00  0.00    +0.000 A 
ATOM      7  N   UNL     1      -3.679  13.434  21.617  0.00  0.00    +0.000 N 
ATOM      8  C   UNL     1      -4.010  13.767  23.014  0.00  0.00    +0.000 C 
ATOM      9  C   UNL     1      -5.153  12.868  23.506  0.00  0.00    +0.000 C 
ATOM     10  O   UNL     1      -6.306  12.988  22.660  0.00  0.00    +0.000 OA
ATOM     11  C   UNL     1      -5.982  12.599  21.315  0.00  0.00    +0.000 C 
ATOM     12  C   UNL     1      -4.856  13.467  20.736  0.00  0.00    +0.000 C 
ATOM     13  N   UNL     1      -2.325  12.119  20.149  0.00  0.00    +0.000 NA
ATOM     14  N   UNL     1      -1.026  11.657  20.100  0.00  0.00    +0.000 N 
ATOM     15  C   UNL     1      -0.563  10.821  19.094  0.00  0.00    +0.000 A 
ATOM     16  O   UNL     1      -1.190  10.476  18.093  0.00  0.00    +0.000 OA
ENDROOT
BRANCH   1  18
ATOM     17  N   UNL     1       1.820   8.120  19.052  0.00  0.00    +0.000 N 
ATOM     18  C   UNL     1       1.552   9.343  18.473  0.00  0.00    +0.000 C 
ATOM     19  O   UNL     1       1.853   9.649  17.320  0.00  0.00    +0.000 OA
ATOM     20  H   UNL     1       1.402   7.923  19.964  0.00  0.00    +0.000 HD
BRANCH  17  25
ATOM     21  C   UNL     1       2.740   4.728  17.845  0.00  0.00    +0.000 A 
ATOM     22  C   UNL     1       3.966   4.976  17.210  0.00  0.00    +0.000 A 
ATOM     23  C   UNL     1       4.499   6.258  17.212  0.00  0.00    +0.000 A 
ATOM     24  C   UNL     1       3.801   7.296  17.827  0.00  0.00    +0.000 A 
ATOM     25  C   UNL     1       2.559   7.079  18.438  0.00  0.00    +0.000 A 
ATOM     26  C   UNL     1       2.042   5.780  18.464  0.00  0.00    +0.000 A 
BRANCH  21  27
ATOM     27  C   UNL     1       2.198   3.348  17.956  0.00  0.00    +0.000 C 
ATOM     28  O   UNL     1       2.362   2.483  17.113  0.00  0.00    +0.000 OA
BRANCH  27  29
ATOM     29  O   UNL     1       1.397   3.268  19.047  0.00  0.00    +0.000 OA
BRANCH  29  31
ATOM     30  C   UNL     1       1.363   2.873  21.399  0.00  0.00    +0.000 C 
ATOM     31  C   UNL     1       1.800   2.328  20.048  0.00  0.00    +0.000 C 
ENDBRANCH  29  31
ENDBRANCH  27  29
ENDBRANCH  21  27
ENDBRANCH  17  25
ENDBRANCH   1  18
TORSDOF 5
ENDMDL
