MODEL 1
REMARK VINA RESULT:      -6.5      0.000      0.000
REMARK  Name = 
REMARK  5 active torsions:
REMARK  status: ('A' for Active; 'I' for Inactive)
REMARK    1  A    between atoms: C_1  and  C_2
REMARK    2  A    between atoms: C_4  and  C_5
REMARK    3  A    between atoms: N_6  and  N_7
REMARK    4  A    between atoms: C_8  and  C_9
REMARK    5  A    between atoms: C_16  and  C_17
REMARK                            x       y       z     vdW  Elec       q    Type
REMARK                         _______ _______ _______ _____ _____    ______ ____
ROOT
ATOM      1  C   UNL     1       2.394   4.532  21.152  0.00  0.00    +0.000 C 
ATOM      2  C   UNL     1       2.892   4.596  19.730  0.00  0.00    +0.000 A 
ATOM      3  C   UNL     1       4.032   5.450  19.479  0.00  0.00    +0.000 A 
ATOM      4  C   UNL     1       4.557   5.575  18.250  0.00  0.00    +0.000 A 
ATOM      5  C   UNL     1       5.738   6.477  18.001  0.00  0.00    +0.000 C 
ATOM      6  N   UNL     1       3.999   4.887  17.176  0.00  0.00    +0.000 N 
ATOM      7  C   UNL     1       2.917   3.993  17.331  0.00  0.00    +0.000 A 
ATOM      8  O   UNL     1       2.442   3.297  16.434  0.00  0.00    +0.000 OA
ATOM      9  C   UNL     1       2.339   3.900  18.716  0.00  0.00    +0.000 A 
ENDROOT
BRANCH   6  10
ATOM     10  N   UNL     1       4.691   5.024  15.982  0.00  0.00    +0.000 NA
ATOM     11  C   UNL     1       5.556   4.127  15.630  0.00  0.00    +0.000 C 
BRANCH  11  12
ATOM     12  C   UNL     1       6.294   4.279  14.404  0.00  0.00    +0.000 A 
ATOM     13  C   UNL     1       6.172   3.689  13.160  0.00  0.00    +0.000 A 
ATOM     14  C   UNL     1       7.204   4.225  12.351  0.00  0.00    +0.000 A 
ATOM     15  C   UNL     1       7.891   5.109  13.148  0.00  0.00    +0.000 A 
ATOM     16  O   UNL     1       7.348   5.149  14.392  0.00  0.00    +0.000 OA
ENDBRANCH  11  12
ENDBRANCH   6  10
BRANCH   9  17
ATOM     17  C   UNL     1       1.212   3.050  18.912  0.00  0.00    +0.000 C 
ATOM     18  N   UNL     1       0.335   2.322  19.127  0.00  0.00    +0.000 NA
ENDBRANCH   9  17
TORSDOF 3
ENDMDL
MODEL 2
REMARK VINA RESULT:      -6.3      3.297      4.137
REMARK  Name = 
REMARK  5 active torsions:
REMARK  status: ('A' for Active; 'I' for Inactive)
REMARK    1  A    between atoms: C_1  and  C_2
REMARK    2  A    between atoms: C_4  and  C_5
REMARK    3  A    between atoms: N_6  and  N_7
REMARK    4  A    between atoms: C_8  and  C_9
REMARK    5  A    between atoms: C_16  and  C_17
REMARK                            x       y       z     vdW  Elec       q    Type
REMARK                         _______ _______ _______ _____ _____    ______ ____
ROOT
ATOM      1  C   UNL     1       0.612   8.628  21.737  0.00  0.00    +0.000 C 
ATOM      2  C   UNL     1       1.386   8.038  20.585  0.00  0.00    +0.000 A 
ATOM      3  C   UNL     1       1.866   6.683  20.751  0.00  0.00    +0.000 A 
ATOM      4  C   UNL     1       2.561   6.062  19.785  0.00  0.00    +0.000 A 
ATOM      5  C   UNL     1       3.065   4.655  19.977  0.00  0.00    +0.000 C 
ATOM      6  N   UNL     1       2.849   6.723  18.594  0.00  0.00    +0.000 N 
ATOM      7  C   UNL     1       2.382   8.027  18.321  0.00  0.00    +0.000 A 
ATOM      8  O   UNL     1       2.535   8.622  17.254  0.00  0.00    +0.000 OA
ATOM      9  C   UNL     1       1.631   8.700  19.436  0.00  0.00    +0.000 A 
ENDROOT
BRANCH   6  10
ATOM     10  N   UNL     1       3.487   5.941  17.642  0.00  0.00    +0.000 NA
ATOM     11  C   UNL     1       4.696   6.227  17.277  0.00  0.00    +0.000 C 
BRANCH  11  12
ATOM     12  C   UNL     1       5.352   5.433  16.272  0.00  0.00    +0.000 A 
ATOM     13  C   UNL     1       5.081   4.185  15.742  0.00  0.00    +0.000 A 
ATOM     14  C   UNL     1       6.097   3.916  14.792  0.00  0.00    +0.000 A 
ATOM     15  C   UNL     1       6.924   5.014  14.798  0.00  0.00    +0.000 A 
ATOM     16  O   UNL     1       6.482   5.937  15.690  0.00  0.00    +0.000 OA
ENDBRANCH  11  12
ENDBRANCH   6  10
BRANCH   9  17
ATOM     17  C   UNL     1       1.184  10.036  19.227  0.00  0.00    +0.000 C 
ATOM     18  N   UNL     1       0.763  11.096  19.013  0.00  0.00    +0.000 NA
ENDBRANCH   9  17
TORSDOF 3
ENDMDL
MODEL 3
REMARK VINA RESULT:      -6.2      1.061      1.216
REMARK  Name = 
REMARK  5 active torsions:
REMARK  status: ('A' for Active; 'I' for Inactive)
REMARK    1  A    between atoms: C_1  and  C_2
REMARK    2  A    between atoms: C_4  and  C_5
REMARK    3  A    between atoms: N_6  and  N_7
REMARK    4  A    between atoms: C_8  and  C_9
REMARK    5  A    between atoms: C_16  and  C_17
REMARK                            x       y       z     vdW  Elec       q    Type
REMARK                         _______ _______ _______ _____ _____    ______ ____
ROOT
ATOM      1  C   UNL     1       2.707   3.025  21.200  0.00  0.00    +0.000 C 
ATOM      2  C   UNL     1       3.200   3.430  19.834  0.00  0.00    +0.000 A 
ATOM      3  C   UNL     1       4.490   4.082  19.775  0.00  0.00    +0.000 A 
ATOM      4  C   UNL     1       5.023   4.479  18.609  0.00  0.00    +0.000 A 
ATOM      5  C   UNL     1       6.363   5.168  18.565  0.00  0.00    +0.000 C 
ATOM      6  N   UNL     1       4.330   4.280  17.418  0.00  0.00    +0.000 N 
ATOM      7  C   UNL     1       3.088   3.610  17.369  0.00  0.00    +0.000 A 
ATOM      8  O   UNL     1       2.476   3.333  16.338  0.00  0.00    +0.000 OA
ATOM      9  C   UNL     1       2.511   3.205  18.696  0.00  0.00    +0.000 A 
ENDROOT
BRANCH   6  10
ATOM     10  N   UNL     1       5.029   4.646  16.277  0.00  0.00    +0.000 NA
ATOM     11  C   UNL     1       5.551   3.734  15.520  0.00  0.00    +0.000 C 
BRANCH  11  12
ATOM     12  C   UNL     1       6.298   4.110  14.349  0.00  0.00    +0.000 A 
ATOM     13  C   UNL     1       7.270   5.067  14.127  0.00  0.00    +0.000 A 
ATOM     14  C   UNL     1       7.621   4.983  12.757  0.00  0.00    +0.000 A 
ATOM     15  C   UNL     1       6.844   3.980  12.227  0.00  0.00    +0.000 A 
ATOM     16  O   UNL     1       6.040   3.446  13.182  0.00  0.00    +0.000 OA
ENDBRANCH  11  12
ENDBRANCH   6  10
BRANCH   9  17
ATOM     17  C   UNL     1       1.235   2.571  18.703  0.00  0.00    +0.000 C 
ATOM     18  N   UNL     1       0.185   2.082  18.636  0.00  0.00    +0.000 NA
ENDBRANCH   9  17
TORSDOF 3
ENDMDL
MODEL 4
REMARK VINA RESULT:      -6.1      4.526      7.616
REMARK  Name = 
REMARK  5 active torsions:
REMARK  status: ('A' for Active; 'I' for Inactive)
REMARK    1  A    between atoms: C_1  and  C_2
REMARK    2  A    between atoms: C_4  and  C_5
REMARK    3  A    between atoms: N_6  and  N_7
REMARK    4  A    between atoms: C_8  and  C_9
REMARK    5  A    between atoms: C_16  and  C_17
REMARK                            x       y       z     vdW  Elec       q    Type
REMARK                         _______ _______ _______ _____ _____    ______ ____
ROOT
ATOM      1  C   UNL     1       4.847   4.535  17.234  0.00  0.00    +0.000 C 
ATOM      2  C   UNL     1       3.913   5.328  18.113  0.00  0.00    +0.000 A 
ATOM      3  C   UNL     1       3.567   6.658  17.660  0.00  0.00    +0.000 A 
ATOM      4  C   UNL     1       2.740   7.446  18.365  0.00  0.00    +0.000 A 
ATOM      5  C   UNL     1       2.398   8.833  17.886  0.00  0.00    +0.000 C 
ATOM      6  N   UNL     1       2.202   6.998  19.568  0.00  0.00    +0.000 N 
ATOM      7  C   UNL     1       2.442   5.699  20.067  0.00  0.00    +0.000 A 
ATOM      8  O   UNL     1       1.926   5.224  21.078  0.00  0.00    +0.000 OA
ATOM      9  C   UNL     1       3.395   4.857  19.265  0.00  0.00    +0.000 A 
ENDROOT
BRANCH   6  10
ATOM     10  N   UNL     1       1.289   7.866  20.149  0.00  0.00    +0.000 NA
ATOM     11  C   UNL     1       1.592   8.484  21.246  0.00  0.00    +0.000 C 
BRANCH  11  12
ATOM     12  C   UNL     1       0.638   9.366  21.863  0.00  0.00    +0.000 A 
ATOM     13  C   UNL     1      -0.121   9.264  23.014  0.00  0.00    +0.000 A 
ATOM     14  C   UNL     1      -0.899  10.445  23.096  0.00  0.00    +0.000 A 
ATOM     15  C   UNL     1      -0.567  11.196  21.994  0.00  0.00    +0.000 A 
ATOM     16  O   UNL     1       0.362  10.552  21.241  0.00  0.00    +0.000 OA
ENDBRANCH  11  12
ENDBRANCH   6  10
BRANCH   9  17
ATOM     17  C   UNL     1       3.709   3.556  19.755  0.00  0.00    +0.000 C 
ATOM     18  N   UNL     1       4.036   2.524  20.172  0.00  0.00    +0.000 NA
ENDBRANCH   9  17
TORSDOF 3
ENDMDL
MODEL 5
REMARK VINA RESULT:      -6.0      1.834      2.466
REMARK  Name = 
REMARK  5 active torsions:
REMARK  status: ('A' for Active; 'I' for Inactive)
REMARK    1  A    between atoms: C_1  and  C_2
REMARK    2  A    between atoms: C_4  and  C_5
REMARK    3  A    between atoms: N_6  and  N_7
REMARK    4  A    between atoms: C_8  and  C_9
REMARK    5  A    between atoms: C_16  and  C_17
REMARK                            x       y       z     vdW  Elec       q    Type
REMARK                         _______ _______ _______ _____ _____    ______ ____
ROOT
ATOM      1  C   UNL     1       1.783   3.754  21.498  0.00  0.00    +0.000 C 
ATOM      2  C   UNL     1       2.481   3.973  20.179  0.00  0.00    +0.000 A 
ATOM      3  C   UNL     1       2.986   2.796  19.506  0.00  0.00    +0.000 A 
ATOM      4  C   UNL     1       3.619   2.879  18.326  0.00  0.00    +0.000 A 
ATOM      5  C   UNL     1       4.148   1.645  17.643  0.00  0.00    +0.000 C 
ATOM      6  N   UNL     1       3.817   4.118  17.723  0.00  0.00    +0.000 N 
ATOM      7  C   UNL     1       3.318   5.317  18.279  0.00  0.00    +0.000 A 
ATOM      8  O   UNL     1       3.391   6.425  17.747  0.00  0.00    +0.000 OA
ATOM      9  C   UNL     1       2.640   5.187  19.614  0.00  0.00    +0.000 A 
ENDROOT
BRANCH   6  10
ATOM     10  N   UNL     1       4.395   4.060  16.464  0.00  0.00    +0.000 NA
ATOM     11  C   UNL     1       5.591   4.522  16.280  0.00  0.00    +0.000 C 
BRANCH  11  12
ATOM     12  C   UNL     1       6.184   4.485  14.970  0.00  0.00    +0.000 A 
ATOM     13  C   UNL     1       5.865   3.792  13.818  0.00  0.00    +0.000 A 
ATOM     14  C   UNL     1       6.831   4.149  12.845  0.00  0.00    +0.000 A 
ATOM     15  C   UNL     1       7.679   5.039  13.461  0.00  0.00    +0.000 A 
ATOM     16  O   UNL     1       7.297   5.249  14.747  0.00  0.00    +0.000 OA
ENDBRANCH  11  12
ENDBRANCH   6  10
BRANCH   9  17
ATOM     17  C   UNL     1       2.166   6.376  20.239  0.00  0.00    +0.000 C 
ATOM     18  N   UNL     1       1.708   7.320  20.735  0.00  0.00    +0.000 NA
ENDBRANCH   9  17
TORSDOF 3
ENDMDL
MODEL 6
REMARK VINA RESULT:      -5.9      1.014      1.014
REMARK  Name = 
REMARK  5 active torsions:
REMARK  status: ('A' for Active; 'I' for Inactive)
REMARK    1  A    between atoms: C_1  and  C_2
REMARK    2  A    between atoms: C_4  and  C_5
REMARK    3  A    between atoms: N_6  and  N_7
REMARK    4  A    between atoms: C_8  and  C_9
REMARK    5  A    between atoms: C_16  and  C_17
REMARK                            x       y       z     vdW  Elec       q    Type
REMARK                         _______ _______ _______ _____ _____    ______ ____
ROOT
ATOM      1  C   UNL     1       1.683   5.481  20.582  0.00  0.00    +0.000 C 
ATOM      2  C   UNL     1       2.585   5.175  19.413  0.00  0.00    +0.000 A 
ATOM      3  C   UNL     1       3.264   6.299  18.803  0.00  0.00    +0.000 A 
ATOM      4  C   UNL     1       4.092   6.136  17.760  0.00  0.00    +0.000 A 
ATOM      5  C   UNL     1       4.783   7.317  17.129  0.00  0.00    +0.000 C 
ATOM      6  N   UNL     1       4.308   4.868  17.228  0.00  0.00    +0.000 N 
ATOM      7  C   UNL     1       3.730   3.706  17.784  0.00  0.00    +0.000 A 
ATOM      8  O   UNL     1       3.955   2.556  17.407  0.00  0.00    +0.000 OA
ATOM      9  C   UNL     1       2.787   3.931  18.933  0.00  0.00    +0.000 A 
ENDROOT
BRANCH   6  10
ATOM     10  N   UNL     1       5.258   4.822  16.218  0.00  0.00    +0.000 NA
ATOM     11  C   UNL     1       4.912   4.466  15.022  0.00  0.00    +0.000 C 
BRANCH  11  12
ATOM     12  C   UNL     1       5.899   4.393  13.978  0.00  0.00    +0.000 A 
ATOM     13  C   UNL     1       6.017   3.595  12.856  0.00  0.00    +0.000 A 
ATOM     14  C   UNL     1       7.221   3.971  12.211  0.00  0.00    +0.000 A 
ATOM     15  C   UNL     1       7.764   4.976  12.976  0.00  0.00    +0.000 A 
ATOM     16  O   UNL     1       6.972   5.239  14.048  0.00  0.00    +0.000 OA
ENDBRANCH  11  12
ENDBRANCH   6  10
BRANCH   9  17
ATOM     17  C   UNL     1       2.139   2.793  19.495  0.00  0.00    +0.000 C 
ATOM     18  N   UNL     1       1.678   1.848  19.985  0.00  0.00    +0.000 NA
ENDBRANCH   9  17
TORSDOF 3
ENDMDL
MODEL 7
REMARK VINA RESULT:      -5.9      2.010      2.716
REMARK  Name = 
REMARK  5 active torsions:
REMARK  status: ('A' for Active; 'I' for Inactive)
REMARK    1  A    between atoms: C_1  and  C_2
REMARK    2  A    between atoms: C_4  and  C_5
REMARK    3  A    between atoms: N_6  and  N_7
REMARK    4  A    between atoms: C_8  and  C_9
REMARK    5  A    between atoms: C_16  and  C_17
REMARK                            x       y       z     vdW  Elec       q    Type
REMARK                         _______ _______ _______ _____ _____    ______ ____
ROOT
ATOM      1  C   UNL     1       1.391   3.278  21.670  0.00  0.00    +0.000 C 
ATOM      2  C   UNL     1       2.128   3.572  20.387  0.00  0.00    +0.000 A 
ATOM      3  C   UNL     1       2.668   2.435  19.673  0.00  0.00    +0.000 A 
ATOM      4  C   UNL     1       3.337   2.585  18.519  0.00  0.00    +0.000 A 
ATOM      5  C   UNL     1       3.904   1.393  17.793  0.00  0.00    +0.000 C 
ATOM      6  N   UNL     1       3.539   3.855  17.986  0.00  0.00    +0.000 N 
ATOM      7  C   UNL     1       3.008   5.019  18.584  0.00  0.00    +0.000 A 
ATOM      8  O   UNL     1       3.084   6.153  18.111  0.00  0.00    +0.000 OA
ATOM      9  C   UNL     1       2.289   4.814  19.889  0.00  0.00    +0.000 A 
ENDROOT
BRANCH   6  10
ATOM     10  N   UNL     1       4.158   3.867  16.745  0.00  0.00    +0.000 NA
ATOM     11  C   UNL     1       5.360   4.332  16.627  0.00  0.00    +0.000 C 
BRANCH  11  12
ATOM     12  C   UNL     1       5.996   4.368  15.337  0.00  0.00    +0.000 A 
ATOM     13  C   UNL     1       7.124   5.014  14.868  0.00  0.00    +0.000 A 
ATOM     14  C   UNL     1       7.242   4.686  13.495  0.00  0.00    +0.000 A 
ATOM     15  C   UNL     1       6.181   3.859  13.210  0.00  0.00    +0.000 A 
ATOM     16  O   UNL     1       5.421   3.660  14.318  0.00  0.00    +0.000 OA
ENDBRANCH  11  12
ENDBRANCH   6  10
BRANCH   9  17
ATOM     17  C   UNL     1       1.781   5.965  20.557  0.00  0.00    +0.000 C 
ATOM     18  N   UNL     1       1.315   6.910  21.044  0.00  0.00    +0.000 NA
ENDBRANCH   9  17
TORSDOF 3
ENDMDL
MODEL 8
REMARK VINA RESULT:      -5.7      4.125      6.285
REMARK  Name = 
REMARK  5 active torsions:
REMARK  status: ('A' for Active; 'I' for Inactive)
REMARK    1  A    between atoms: C_1  and  C_2
REMARK    2  A    between atoms: C_4  and  C_5
REMARK    3  A    between atoms: N_6  and  N_7
REMARK    4  A    between atoms: C_8  and  C_9
REMARK    5  A    between atoms: C_16  and  C_17
REMARK                            x       y       z     vdW  Elec       q    Type
REMARK                         _______ _______ _______ _____ _____    ______ ____
ROOT
ATOM      1  C   UNL     1       4.471   2.215  19.819  0.00  0.00    +0.000 C 
ATOM      2  C   UNL     1       3.795   3.558  19.704  0.00  0.00    +0.000 A 
ATOM      3  C   UNL     1       4.353   4.487  18.745  0.00  0.00    +0.000 A 
ATOM      4  C   UNL     1       3.825   5.707  18.561  0.00  0.00    +0.000 A 
ATOM      5  C   UNL     1       4.425   6.668  17.568  0.00  0.00    +0.000 C 
ATOM      6  N   UNL     1       2.722   6.113  19.308  0.00  0.00    +0.000 N 
ATOM      7  C   UNL     1       2.079   5.260  20.231  0.00  0.00    +0.000 A 
ATOM      8  O   UNL     1       1.053   5.538  20.851  0.00  0.00    +0.000 OA
ATOM      9  C   UNL     1       2.715   3.913  20.430  0.00  0.00    +0.000 A 
ENDROOT
BRANCH   6  10
ATOM     10  N   UNL     1       2.214   7.355  18.955  0.00  0.00    +0.000 NA
ATOM     11  C   UNL     1       1.800   8.168  19.873  0.00  0.00    +0.000 C 
BRANCH  11  12
ATOM     12  C   UNL     1       1.249   9.446  19.509  0.00  0.00    +0.000 A 
ATOM     13  C   UNL     1       1.458  10.281  18.428  0.00  0.00    +0.000 A 
ATOM     14  C   UNL     1       0.642  11.421  18.628  0.00  0.00    +0.000 A 
ATOM     15  C   UNL     1      -0.016  11.213  19.816  0.00  0.00    +0.000 A 
ATOM     16  O   UNL     1       0.344  10.021  20.358  0.00  0.00    +0.000 OA
ENDBRANCH  11  12
ENDBRANCH   6  10
BRANCH   9  17
ATOM     17  C   UNL     1       2.132   3.036  21.389  0.00  0.00    +0.000 C 
ATOM     18  N   UNL     1       1.639   2.383  22.213  0.00  0.00    +0.000 NA
ENDBRANCH   9  17
TORSDOF 3
ENDMDL
MODEL 9
REMARK VINA RESULT:      -5.7      3.689      6.221
REMARK  Name = 
REMARK  5 active torsions:
REMARK  status: ('A' for Active; 'I' for Inactive)
REMARK    1  A    between atoms: C_1  and  C_2
REMARK    2  A    between atoms: C_4  and  C_5
REMARK    3  A    between atoms: N_6  and  N_7
REMARK    4  A    between atoms: C_8  and  C_9
REMARK    5  A    between atoms: C_16  and  C_17
REMARK                            x       y       z     vdW  Elec       q    Type
REMARK                         _______ _______ _______ _____ _____    ______ ____
ROOT
ATOM      1  C   UNL     1       3.843   1.693  17.925  0.00  0.00    +0.000 C 
ATOM      2  C   UNL     1       3.515   3.153  18.106  0.00  0.00    +0.000 A 
ATOM      3  C   UNL     1       2.538   3.479  19.122  0.00  0.00    +0.000 A 
ATOM      4  C   UNL     1       2.177   4.748  19.368  0.00  0.00    +0.000 A 
ATOM      5  C   UNL     1       1.150   5.071  20.421  0.00  0.00    +0.000 C 
ATOM      6  N   UNL     1       2.734   5.790  18.630  0.00  0.00    +0.000 N 
ATOM      7  C   UNL     1       3.730   5.576  17.652  0.00  0.00    +0.000 A 
ATOM      8  O   UNL     1       4.315   6.465  17.034  0.00  0.00    +0.000 OA
ATOM      9  C   UNL     1       4.088   4.140  17.386  0.00  0.00    +0.000 A 
ENDROOT
BRANCH   6  10
ATOM     10  N   UNL     1       2.353   7.057  19.046  0.00  0.00    +0.000 NA
ATOM     11  C   UNL     1       2.080   7.970  18.168  0.00  0.00    +0.000 C 
BRANCH  11  12
ATOM     12  C   UNL     1       1.708   9.292  18.595  0.00  0.00    +0.000 A 
ATOM     13  C   UNL     1       0.857   9.751  19.583  0.00  0.00    +0.000 A 
ATOM     14  C   UNL     1       0.880  11.166  19.517  0.00  0.00    +0.000 A 
ATOM     15  C   UNL     1       1.743  11.484  18.496  0.00  0.00    +0.000 A 
ATOM     16  O   UNL     1       2.249  10.358  17.931  0.00  0.00    +0.000 OA
ENDBRANCH  11  12
ENDBRANCH   6  10
BRANCH   9  17
ATOM     17  C   UNL     1       5.050   3.870  16.372  0.00  0.00    +0.000 C 
ATOM     18  N   UNL     1       5.871   3.715  15.566  0.00  0.00    +0.000 NA
ENDBRANCH   9  17
TORSDOF 3
ENDMDL
