MODEL 1
REMARK VINA RESULT:      -7.3      0.000      0.000
REMARK  Name = 
REMARK  9 active torsions:
REMARK  status: ('A' for Active; 'I' for Inactive)
REMARK    1  A    between atoms: C_1  and  C_2
REMARK    2  A    between atoms: C_2  and  C_3
REMARK    3  A    between atoms: C_3  and  N_4
REMARK    4  A    between atoms: C_6  and  C_7
REMARK    5  A    between atoms: C_7  and  O_9
REMARK    6  A    between atoms: O_9  and  C_10
REMARK    7  A    between atoms: N_26  and  C_27
REMARK    8  A    between atoms: C_27  and  C_28
REMARK    9  A    between atoms: C_27  and  C_29
REMARK                            x       y       z     vdW  Elec       q    Type
REMARK                         _______ _______ _______ _____ _____    ______ ____
ROOT
ATOM      1  N   UNL     1       0.830  11.960  19.447  0.00  0.00    +0.000 NA
ATOM      2  C   UNL     1       1.924  11.215  18.731  0.00  0.00    +0.000 C 
ATOM      3  C   UNL     1       1.573   9.812  18.221  0.00  0.00    +0.000 C 
ATOM      4  C   UNL     1       0.195   9.769  17.622  0.00  0.00    +0.000 C 
ATOM      5  C   UNL     1      -0.844  10.063  18.692  0.00  0.00    +0.000 C 
ATOM      6  C   UNL     1      -2.130  10.432  17.973  0.00  0.00    +0.000 A 
ATOM      7  C   UNL     1      -2.592   9.884  16.738  0.00  0.00    +0.000 A 
ATOM      8  C   UNL     1      -3.837  10.288  16.198  0.00  0.00    +0.000 A 
ATOM      9  C   UNL     1      -4.647  11.208  16.893  0.00  0.00    +0.000 A 
ATOM     10  C   UNL     1      -4.167  11.700  18.118  0.00  0.00    +0.000 A 
ATOM     11  C   UNL     1      -2.951  11.313  18.595  0.00  0.00    +0.000 A 
ATOM     12  C   UNL     1      -2.731  11.916  19.792  0.00  0.00    +0.000 A 
ATOM     13  C   UNL     1      -3.875  12.666  20.038  0.00  0.00    +0.000 A 
ATOM     14  N   UNL     1      -4.744  12.549  19.004  0.00  0.00    +0.000 N 
ATOM     15  C   UNL     1      -1.499  11.722  20.635  0.00  0.00    +0.000 C 
ATOM     16  C   UNL     1      -0.307  11.040  19.868  0.00  0.00    +0.000 C 
ENDROOT
BRANCH  14  17
ATOM     17  C   UNL     1      -6.001  13.262  18.866  0.00  0.00    +0.000 C 
ATOM     18  C   UNL     1      -7.195  12.342  19.171  0.00  0.00    +0.000 C 
ATOM     19  C   UNL     1      -5.954  14.446  19.824  0.00  0.00    +0.000 C 
ENDBRANCH  14  17
BRANCH   3  20
ATOM     20  C   UNL     1       1.670   8.757  19.279  0.00  0.00    +0.000 C 
ATOM     21  O   UNL     1       1.591   9.155  20.433  0.00  0.00    +0.000 OA
BRANCH  20  22
ATOM     22  O   UNL     1       1.781   7.414  18.991  0.00  0.00    +0.000 OA
BRANCH  22  23
ATOM     23  C   UNL     1       2.695   6.433  19.420  0.00  0.00    +0.000 C 
ATOM     24  C   UNL     1       2.300   5.534  20.624  0.00  0.00    +0.000 C 
ATOM     25  C   UNL     1       1.109   4.634  20.314  0.00  0.00    +0.000 C 
ATOM     26  C   UNL     1       1.302   3.873  18.964  0.00  0.00    +0.000 C 
ATOM     27  C   UNL     1       1.930   4.673  17.783  0.00  0.00    +0.000 C 
ATOM     28  C   UNL     1       3.116   5.523  18.253  0.00  0.00    +0.000 C 
ENDBRANCH  22  23
ENDBRANCH  20  22
ENDBRANCH   3  20
BRANCH   1  29
ATOM     29  C   UNL     1       1.533  12.715  20.558  0.00  0.00    +0.000 C 
BRANCH  29  31
ATOM     30  C   UNL     1       1.481  14.927  19.152  0.00  0.00    +0.000 C 
ATOM     31  C   UNL     1       2.313  13.977  20.034  0.00  0.00    +0.000 C 
ENDBRANCH  29  31
ENDBRANCH   1  29
TORSDOF 6
ENDMDL
MODEL 2
REMARK VINA RESULT:      -7.2      2.308      6.304
REMARK  Name = 
REMARK  9 active torsions:
REMARK  status: ('A' for Active; 'I' for Inactive)
REMARK    1  A    between atoms: C_1  and  C_2
REMARK    2  A    between atoms: C_2  and  C_3
REMARK    3  A    between atoms: C_3  and  N_4
REMARK    4  A    between atoms: C_6  and  C_7
REMARK    5  A    between atoms: C_7  and  O_9
REMARK    6  A    between atoms: O_9  and  C_10
REMARK    7  A    between atoms: N_26  and  C_27
REMARK    8  A    between atoms: C_27  and  C_28
REMARK    9  A    between atoms: C_27  and  C_29
REMARK                            x       y       z     vdW  Elec       q    Type
REMARK                         _______ _______ _______ _____ _____    ______ ____
ROOT
ATOM      1  N   UNL     1      -0.082  10.517  19.039  0.00  0.00    +0.000 NA
ATOM      2  C   UNL     1       1.099  10.766  19.937  0.00  0.00    +0.000 C 
ATOM      3  C   UNL     1       1.171  12.147  20.601  0.00  0.00    +0.000 C 
ATOM      4  C   UNL     1      -0.178  12.600  21.084  0.00  0.00    +0.000 C 
ATOM      5  C   UNL     1      -1.114  12.788  19.902  0.00  0.00    +0.000 C 
ATOM      6  C   UNL     1      -2.529  12.813  20.455  0.00  0.00    +0.000 A 
ATOM      7  C   UNL     1      -2.933  13.362  21.710  0.00  0.00    +0.000 A 
ATOM      8  C   UNL     1      -4.298  13.358  22.085  0.00  0.00    +0.000 A 
ATOM      9  C   UNL     1      -5.274  12.845  21.207  0.00  0.00    +0.000 A 
ATOM     10  C   UNL     1      -4.836  12.342  19.971  0.00  0.00    +0.000 A 
ATOM     11  C   UNL     1      -3.511  12.333  19.653  0.00  0.00    +0.000 A 
ATOM     12  C   UNL     1      -3.357  11.813  18.408  0.00  0.00    +0.000 A 
ATOM     13  C   UNL     1      -4.644  11.530  17.969  0.00  0.00    +0.000 A 
ATOM     14  N   UNL     1      -5.546  11.834  18.934  0.00  0.00    +0.000 N 
ATOM     15  C   UNL     1      -2.035  11.656  17.704  0.00  0.00    +0.000 C 
ATOM     16  C   UNL     1      -0.789  11.808  18.652  0.00  0.00    +0.000 C 
ENDROOT
BRANCH  14  17
ATOM     17  C   UNL     1      -6.975  11.587  18.869  0.00  0.00    +0.000 C 
ATOM     18  C   UNL     1      -7.469  10.857  20.129  0.00  0.00    +0.000 C 
ATOM     19  C   UNL     1      -7.659  12.939  18.706  0.00  0.00    +0.000 C 
ENDBRANCH  14  17
BRANCH   3  20
ATOM     20  C   UNL     1       1.742  13.204  19.707  0.00  0.00    +0.000 C 
ATOM     21  O   UNL     1       2.484  12.803  18.820  0.00  0.00    +0.000 OA
BRANCH  20  22
ATOM     22  O   UNL     1       1.419  14.538  19.821  0.00  0.00    +0.000 OA
BRANCH  22  23
ATOM     23  C   UNL     1       1.186  15.534  18.855  0.00  0.00    +0.000 C 
ATOM     24  C   UNL     1      -0.282  15.955  18.570  0.00  0.00    +0.000 C 
ATOM     25  C   UNL     1      -0.941  16.626  19.770  0.00  0.00    +0.000 C 
ATOM     26  C   UNL     1      -0.039  17.755  20.362  0.00  0.00    +0.000 C 
ATOM     27  C   UNL     1       1.491  17.472  20.442  0.00  0.00    +0.000 C 
ATOM     28  C   UNL     1       2.002  16.802  19.162  0.00  0.00    +0.000 C 
ENDBRANCH  22  23
ENDBRANCH  20  22
ENDBRANCH   3  20
BRANCH   1  29
ATOM     29  C   UNL     1       0.465   9.680  17.898  0.00  0.00    +0.000 C 
BRANCH  29  31
ATOM     30  C   UNL     1       2.514   8.046  17.824  0.00  0.00    +0.000 C 
ATOM     31  C   UNL     1       2.026   9.501  17.972  0.00  0.00    +0.000 C 
ENDBRANCH  29  31
ENDBRANCH   1  29
TORSDOF 6
ENDMDL
MODEL 3
REMARK VINA RESULT:      -7.1      1.114      1.225
REMARK  Name = 
REMARK  9 active torsions:
REMARK  status: ('A' for Active; 'I' for Inactive)
REMARK    1  A    between atoms: C_1  and  C_2
REMARK    2  A    between atoms: C_2  and  C_3
REMARK    3  A    between atoms: C_3  and  N_4
REMARK    4  A    between atoms: C_6  and  C_7
REMARK    5  A    between atoms: C_7  and  O_9
REMARK    6  A    between atoms: O_9  and  C_10
REMARK    7  A    between atoms: N_26  and  C_27
REMARK    8  A    between atoms: C_27  and  C_28
REMARK    9  A    between atoms: C_27  and  C_29
REMARK                            x       y       z     vdW  Elec       q    Type
REMARK                         _______ _______ _______ _____ _____    ______ ____
ROOT
ATOM      1  N   UNL     1      -0.025  12.330  19.830  0.00  0.00    +0.000 NA
ATOM      2  C   UNL     1       1.307  11.731  19.469  0.00  0.00    +0.000 C 
ATOM      3  C   UNL     1       1.290  10.279  18.975  0.00  0.00    +0.000 C 
ATOM      4  C   UNL     1       0.139  10.025  18.043  0.00  0.00    +0.000 C 
ATOM      5  C   UNL     1      -1.176  10.196  18.786  0.00  0.00    +0.000 C 
ATOM      6  C   UNL     1      -2.262  10.361  17.737  0.00  0.00    +0.000 A 
ATOM      7  C   UNL     1      -2.305   9.721  16.461  0.00  0.00    +0.000 A 
ATOM      8  C   UNL     1      -3.404   9.930  15.593  0.00  0.00    +0.000 A 
ATOM      9  C   UNL     1      -4.481  10.743  15.996  0.00  0.00    +0.000 A 
ATOM     10  C   UNL     1      -4.412  11.330  17.270  0.00  0.00    +0.000 A 
ATOM     11  C   UNL     1      -3.327  11.132  18.070  0.00  0.00    +0.000 A 
ATOM     12  C   UNL     1      -3.513  11.790  19.243  0.00  0.00    +0.000 A 
ATOM     13  C   UNL     1      -4.768  12.376  19.137  0.00  0.00    +0.000 A 
ATOM     14  N   UNL     1      -5.308  12.111  17.923  0.00  0.00    +0.000 N 
ATOM     15  C   UNL     1      -2.533  11.794  20.387  0.00  0.00    +0.000 C 
ATOM     16  C   UNL     1      -1.102  11.269  19.999  0.00  0.00    +0.000 C 
ENDROOT
BRANCH  14  17
ATOM     17  C   UNL     1      -6.566  12.634  17.420  0.00  0.00    +0.000 C 
ATOM     18  C   UNL     1      -7.579  12.832  18.560  0.00  0.00    +0.000 C 
ATOM     19  C   UNL     1      -6.257  13.950  16.717  0.00  0.00    +0.000 C 
ENDBRANCH  14  17
BRANCH   3  20
ATOM     20  C   UNL     1       1.240   9.276  20.084  0.00  0.00    +0.000 C 
ATOM     21  O   UNL     1       1.062   9.735  21.205  0.00  0.00    +0.000 OA
BRANCH  20  22
ATOM     22  O   UNL     1       1.326   7.917  19.873  0.00  0.00    +0.000 OA
BRANCH  22  23
ATOM     23  C   UNL     1       2.359   6.992  20.110  0.00  0.00    +0.000 C 
ATOM     24  C   UNL     1       2.000   5.650  20.806  0.00  0.00    +0.000 C 
ATOM     25  C   UNL     1       1.087   4.776  19.953  0.00  0.00    +0.000 C 
ATOM     26  C   UNL     1       1.628   4.634  18.495  0.00  0.00    +0.000 C 
ATOM     27  C   UNL     1       2.230   5.911  17.835  0.00  0.00    +0.000 C 
ATOM     28  C   UNL     1       3.126   6.676  18.815  0.00  0.00    +0.000 C 
ENDBRANCH  22  23
ENDBRANCH  20  22
ENDBRANCH   3  20
BRANCH   1  29
ATOM     29  C   UNL     1       0.255  13.205  21.036  0.00  0.00    +0.000 C 
BRANCH  29  31
ATOM     30  C   UNL     1      -0.345  15.067  19.289  0.00  0.00    +0.000 C 
ATOM     31  C   UNL     1       0.175  14.741  20.703  0.00  0.00    +0.000 C 
ENDBRANCH  29  31
ENDBRANCH   1  29
TORSDOF 6
ENDMDL
MODEL 4
REMARK VINA RESULT:      -7.1      3.977      8.156
REMARK  Name = 
REMARK  9 active torsions:
REMARK  status: ('A' for Active; 'I' for Inactive)
REMARK    1  A    between atoms: C_1  and  C_2
REMARK    2  A    between atoms: C_2  and  C_3
REMARK    3  A    between atoms: C_3  and  N_4
REMARK    4  A    between atoms: C_6  and  C_7
REMARK    5  A    between atoms: C_7  and  O_9
REMARK    6  A    between atoms: O_9  and  C_10
REMARK    7  A    between atoms: N_26  and  C_27
REMARK    8  A    between atoms: C_27  and  C_28
REMARK    9  A    between atoms: C_27  and  C_29
REMARK                            x       y       z     vdW  Elec       q    Type
REMARK                         _______ _______ _______ _____ _____    ______ ____
ROOT
ATOM      1  N   UNL     1      -2.978  14.904  22.460  0.00  0.00    +0.000 NA
ATOM      2  C   UNL     1      -3.689  14.894  23.786  0.00  0.00    +0.000 C 
ATOM      3  C   UNL     1      -4.188  13.531  24.281  0.00  0.00    +0.000 C 
ATOM      4  C   UNL     1      -3.180  12.446  24.025  0.00  0.00    +0.000 C 
ATOM      5  C   UNL     1      -2.984  12.265  22.528  0.00  0.00    +0.000 C 
ATOM      6  C   UNL     1      -1.685  11.502  22.339  0.00  0.00    +0.000 A 
ATOM      7  C   UNL     1      -1.174  10.482  23.199  0.00  0.00    +0.000 A 
ATOM      8  C   UNL     1       0.035   9.817  22.879  0.00  0.00    +0.000 A 
ATOM      9  C   UNL     1       0.725  10.132  21.692  0.00  0.00    +0.000 A 
ATOM     10  C   UNL     1       0.173  11.120  20.861  0.00  0.00    +0.000 A 
ATOM     11  C   UNL     1      -0.977  11.761  21.212  0.00  0.00    +0.000 A 
ATOM     12  C   UNL     1      -1.303  12.652  20.240  0.00  0.00    +0.000 A 
ATOM     13  C   UNL     1      -0.320  12.508  19.269  0.00  0.00    +0.000 A 
ATOM     14  N   UNL     1       0.593  11.586  19.659  0.00  0.00    +0.000 N 
ATOM     15  C   UNL     1      -2.520  13.539  20.265  0.00  0.00    +0.000 C 
ATOM     16  C   UNL     1      -3.215  13.623  21.674  0.00  0.00    +0.000 C 
ENDROOT
BRANCH  14  17
ATOM     17  C   UNL     1       1.810  11.240  18.945  0.00  0.00    +0.000 C 
ATOM     18  C   UNL     1       1.597  10.003  18.057  0.00  0.00    +0.000 C 
ATOM     19  C   UNL     1       2.206  12.457  18.118  0.00  0.00    +0.000 C 
ENDBRANCH  14  17
BRANCH   3  20
ATOM     20  C   UNL     1      -5.496  13.125  23.678  0.00  0.00    +0.000 C 
ATOM     21  O   UNL     1      -6.052  12.174  24.211  0.00  0.00    +0.000 OA
BRANCH  20  22
ATOM     22  O   UNL     1      -6.082  13.801  22.631  0.00  0.00    +0.000 OA
BRANCH  22  23
ATOM     23  C   UNL     1      -7.211  13.515  21.841  0.00  0.00    +0.000 C 
ATOM     24  C   UNL     1      -7.584  14.505  20.703  0.00  0.00    +0.000 C 
ATOM     25  C   UNL     1      -6.529  14.555  19.604  0.00  0.00    +0.000 C 
ATOM     26  C   UNL     1      -6.134  13.123  19.123  0.00  0.00    +0.000 C 
ATOM     27  C   UNL     1      -5.986  12.023  20.217  0.00  0.00    +0.000 C 
ATOM     28  C   UNL     1      -7.122  12.100  21.243  0.00  0.00    +0.000 C 
ENDBRANCH  22  23
ENDBRANCH  20  22
ENDBRANCH   3  20
BRANCH   1  29
ATOM     29  C   UNL     1      -3.413  16.195  21.793  0.00  0.00    +0.000 C 
BRANCH  29  31
ATOM     30  C   UNL     1      -2.055  17.216  19.796  0.00  0.00    +0.000 C 
ATOM     31  C   UNL     1      -2.196  17.076  21.324  0.00  0.00    +0.000 C 
ENDBRANCH  29  31
ENDBRANCH   1  29
TORSDOF 6
ENDMDL
MODEL 5
REMARK VINA RESULT:      -7.1      3.267      7.625
REMARK  Name = 
REMARK  9 active torsions:
REMARK  status: ('A' for Active; 'I' for Inactive)
REMARK    1  A    between atoms: C_1  and  C_2
REMARK    2  A    between atoms: C_2  and  C_3
REMARK    3  A    between atoms: C_3  and  N_4
REMARK    4  A    between atoms: C_6  and  C_7
REMARK    5  A    between atoms: C_7  and  O_9
REMARK    6  A    between atoms: O_9  and  C_10
REMARK    7  A    between atoms: N_26  and  C_27
REMARK    8  A    between atoms: C_27  and  C_28
REMARK    9  A    between atoms: C_27  and  C_29
REMARK                            x       y       z     vdW  Elec       q    Type
REMARK                         _______ _______ _______ _____ _____    ______ ____
ROOT
ATOM      1  N   UNL     1       2.337  13.015  19.351  0.00  0.00    +0.000 NA
ATOM      2  C   UNL     1       1.775  13.976  20.363  0.00  0.00    +0.000 C 
ATOM      3  C   UNL     1       0.417  13.604  20.974  0.00  0.00    +0.000 C 
ATOM      4  C   UNL     1       0.334  12.137  21.287  0.00  0.00    +0.000 C 
ATOM      5  C   UNL     1       0.414  11.329  20.003  0.00  0.00    +0.000 C 
ATOM      6  C   UNL     1       0.760   9.903  20.395  0.00  0.00    +0.000 A 
ATOM      7  C   UNL     1       0.326   9.224  21.575  0.00  0.00    +0.000 A 
ATOM      8  C   UNL     1       0.689   7.875  21.797  0.00  0.00    +0.000 A 
ATOM      9  C   UNL     1       1.451   7.178  20.838  0.00  0.00    +0.000 A 
ATOM     10  C   UNL     1       1.832   7.873  19.679  0.00  0.00    +0.000 A 
ATOM     11  C   UNL     1       1.491   9.181  19.510  0.00  0.00    +0.000 A 
ATOM     12  C   UNL     1       1.963   9.612  18.311  0.00  0.00    +0.000 A 
ATOM     13  C   UNL     1       2.583   8.504  17.745  0.00  0.00    +0.000 A 
ATOM     14  N   UNL     1       2.520   7.448  18.591  0.00  0.00    +0.000 N 
ATOM     15  C   UNL     1       1.771  11.002  17.765  0.00  0.00    +0.000 C 
ATOM     16  C   UNL     1       1.284  12.044  18.837  0.00  0.00    +0.000 C 
ENDROOT
BRANCH  14  17
ATOM     17  C   UNL     1       3.139   6.152  18.379  0.00  0.00    +0.000 C 
ATOM     18  C   UNL     1       2.100   5.107  17.939  0.00  0.00    +0.000 C 
ATOM     19  C   UNL     1       4.221   6.338  17.323  0.00  0.00    +0.000 C 
ENDBRANCH  14  17
BRANCH   3  20
ATOM     20  C   UNL     1      -0.744  13.978  20.107  0.00  0.00    +0.000 C 
ATOM     21  O   UNL     1      -0.501  14.774  19.210  0.00  0.00    +0.000 OA
BRANCH  20  22
ATOM     22  O   UNL     1      -1.998  13.428  20.254  0.00  0.00    +0.000 OA
BRANCH  22  23
ATOM     23  C   UNL     1      -3.191  13.938  20.799  0.00  0.00    +0.000 C 
ATOM     24  C   UNL     1      -4.123  12.965  21.573  0.00  0.00    +0.000 C 
ATOM     25  C   UNL     1      -3.482  12.437  22.852  0.00  0.00    +0.000 C 
ATOM     26  C   UNL     1      -2.883  13.594  23.713  0.00  0.00    +0.000 C 
ATOM     27  C   UNL     1      -2.142  14.734  22.952  0.00  0.00    +0.000 C 
ATOM     28  C   UNL     1      -2.912  15.157  21.695  0.00  0.00    +0.000 C 
ENDBRANCH  22  23
ENDBRANCH  20  22
ENDBRANCH   3  20
BRANCH   1  29
ATOM     29  C   UNL     1       3.009  13.892  18.312  0.00  0.00    +0.000 C 
BRANCH  29  31
ATOM     30  C   UNL     1       3.180  16.388  17.527  0.00  0.00    +0.000 C 
ATOM     31  C   UNL     1       3.005  15.415  18.709  0.00  0.00    +0.000 C 
ENDBRANCH  29  31
ENDBRANCH   1  29
TORSDOF 6
ENDMDL
MODEL 6
REMARK VINA RESULT:      -7.0      2.649      6.847
REMARK  Name = 
REMARK  9 active torsions:
REMARK  status: ('A' for Active; 'I' for Inactive)
REMARK    1  A    between atoms: C_1  and  C_2
REMARK    2  A    between atoms: C_2  and  C_3
REMARK    3  A    between atoms: C_3  and  N_4
REMARK    4  A    between atoms: C_6  and  C_7
REMARK    5  A    between atoms: C_7  and  O_9
REMARK    6  A    between atoms: O_9  and  C_10
REMARK    7  A    between atoms: N_26  and  C_27
REMARK    8  A    between atoms: C_27  and  C_28
REMARK    9  A    between atoms: C_27  and  C_29
REMARK                            x       y       z     vdW  Elec       q    Type
REMARK                         _______ _______ _______ _____ _____    ______ ____
ROOT
ATOM      1  N   UNL     1      -0.211  11.161  19.470  0.00  0.00    +0.000 NA
ATOM      2  C   UNL     1       1.147  11.639  19.906  0.00  0.00    +0.000 C 
ATOM      3  C   UNL     1       1.284  13.142  20.182  0.00  0.00    +0.000 C 
ATOM      4  C   UNL     1       0.088  13.681  20.916  0.00  0.00    +0.000 C 
ATOM      5  C   UNL     1      -1.152  13.559  20.046  0.00  0.00    +0.000 C 
ATOM      6  C   UNL     1      -2.354  13.699  20.963  0.00  0.00    +0.000 A 
ATOM      7  C   UNL     1      -2.440  14.533  22.120  0.00  0.00    +0.000 A 
ATOM      8  C   UNL     1      -3.642  14.602  22.863  0.00  0.00    +0.000 A 
ATOM      9  C   UNL     1      -4.776  13.875  22.449  0.00  0.00    +0.000 A 
ATOM     10  C   UNL     1      -4.657  13.090  21.290  0.00  0.00    +0.000 A 
ATOM     11  C   UNL     1      -3.477  13.023  20.613  0.00  0.00    +0.000 A 
ATOM     12  C   UNL     1      -3.630  12.215  19.532  0.00  0.00    +0.000 A 
ATOM     13  C   UNL     1      -4.960  11.815  19.562  0.00  0.00    +0.000 A 
ATOM     14  N   UNL     1      -5.581  12.334  20.649  0.00  0.00    +0.000 N 
ATOM     15  C   UNL     1      -2.546  11.909  18.533  0.00  0.00    +0.000 C 
ATOM     16  C   UNL     1      -1.104  12.307  19.018  0.00  0.00    +0.000 C 
ENDROOT
BRANCH  14  17
ATOM     17  C   UNL     1      -6.946  12.057  21.060  0.00  0.00    +0.000 C 
ATOM     18  C   UNL     1      -7.899  13.176  20.605  0.00  0.00    +0.000 C 
ATOM     19  C   UNL     1      -7.336  10.715  20.451  0.00  0.00    +0.000 C 
ENDBRANCH  14  17
BRANCH   3  20
ATOM     20  C   UNL     1       1.494  13.955  18.943  0.00  0.00    +0.000 C 
ATOM     21  O   UNL     1       2.159  13.421  18.065  0.00  0.00    +0.000 OA
BRANCH  20  22
ATOM     22  O   UNL     1       0.933  15.199  18.757  0.00  0.00    +0.000 OA
BRANCH  22  23
ATOM     23  C   UNL     1       1.472  16.496  18.846  0.00  0.00    +0.000 C 
ATOM     24  C   UNL     1       1.205  17.486  17.679  0.00  0.00    +0.000 C 
ATOM     25  C   UNL     1      -0.270  17.848  17.545  0.00  0.00    +0.000 C 
ATOM     26  C   UNL     1      -0.882  18.274  18.917  0.00  0.00    +0.000 C 
ATOM     27  C   UNL     1      -0.449  17.455  20.171  0.00  0.00    +0.000 C 
ATOM     28  C   UNL     1       1.058  17.177  20.162  0.00  0.00    +0.000 C 
ENDBRANCH  22  23
ENDBRANCH  20  22
ENDBRANCH   3  20
BRANCH   1  29
ATOM     29  C   UNL     1       0.066  10.077  18.446  0.00  0.00    +0.000 C 
BRANCH  29  31
ATOM     30  C   UNL     1       2.027   8.448  17.833  0.00  0.00    +0.000 C 
ATOM     31  C   UNL     1       1.603   9.893  18.160  0.00  0.00    +0.000 C 
ENDBRANCH  29  31
ENDBRANCH   1  29
TORSDOF 6
ENDMDL
MODEL 7
REMARK VINA RESULT:      -7.0      9.685     12.700
REMARK  Name = 
REMARK  9 active torsions:
REMARK  status: ('A' for Active; 'I' for Inactive)
REMARK    1  A    between atoms: C_1  and  C_2
REMARK    2  A    between atoms: C_2  and  C_3
REMARK    3  A    between atoms: C_3  and  N_4
REMARK    4  A    between atoms: C_6  and  C_7
REMARK    5  A    between atoms: C_7  and  O_9
REMARK    6  A    between atoms: O_9  and  C_10
REMARK    7  A    between atoms: N_26  and  C_27
REMARK    8  A    between atoms: C_27  and  C_28
REMARK    9  A    between atoms: C_27  and  C_29
REMARK                            x       y       z     vdW  Elec       q    Type
REMARK                         _______ _______ _______ _____ _____    ______ ____
ROOT
ATOM      1  N   UNL     1       9.958  12.084  20.920  0.00  0.00    +0.000 NA
ATOM      2  C   UNL     1      11.027  12.333  19.891  0.00  0.00    +0.000 C 
ATOM      3  C   UNL     1      11.238  13.791  19.466  0.00  0.00    +0.000 C 
ATOM      4  C   UNL     1      11.175  14.725  20.642  0.00  0.00    +0.000 C 
ATOM      5  C   UNL     1       9.783  14.697  21.251  0.00  0.00    +0.000 C 
ATOM      6  C   UNL     1       9.894  15.291  22.644  0.00  0.00    +0.000 A 
ATOM      7  C   UNL     1      10.766  16.351  23.041  0.00  0.00    +0.000 A 
ATOM      8  C   UNL     1      10.737  16.840  24.369  0.00  0.00    +0.000 A 
ATOM      9  C   UNL     1       9.823  16.310  25.301  0.00  0.00    +0.000 A 
ATOM     10  C   UNL     1       8.964  15.290  24.861  0.00  0.00    +0.000 A 
ATOM     11  C   UNL     1       9.037  14.821  23.584  0.00  0.00    +0.000 A 
ATOM     12  C   UNL     1       8.098  13.855  23.410  0.00  0.00    +0.000 A 
ATOM     13  C   UNL     1       7.430  13.774  24.626  0.00  0.00    +0.000 A 
ATOM     14  N   UNL     1       7.974  14.637  25.519  0.00  0.00    +0.000 N 
ATOM     15  C   UNL     1       7.863  13.111  22.122  0.00  0.00    +0.000 C 
ATOM     16  C   UNL     1       9.024  13.275  21.074  0.00  0.00    +0.000 C 
ENDROOT
BRANCH  14  17
ATOM     17  C   UNL     1       7.599  14.763  26.916  0.00  0.00    +0.000 C 
ATOM     18  C   UNL     1       6.100  15.076  27.061  0.00  0.00    +0.000 C 
ATOM     19  C   UNL     1       7.960  13.449  27.598  0.00  0.00    +0.000 C 
ENDBRANCH  14  17
BRANCH   3  20
ATOM     20  C   UNL     1      10.261  14.254  18.432  0.00  0.00    +0.000 C 
ATOM     21  O   UNL     1       9.906  13.408  17.622  0.00  0.00    +0.000 OA
BRANCH  20  22
ATOM     22  O   UNL     1       9.735  15.527  18.412  0.00  0.00    +0.000 OA
BRANCH  22  23
ATOM     23  C   UNL     1       8.591  16.063  17.792  0.00  0.00    +0.000 C 
ATOM     24  C   UNL     1       7.271  15.247  17.851  0.00  0.00    +0.000 C 
ATOM     25  C   UNL     1       6.731  15.111  19.271  0.00  0.00    +0.000 C 
ATOM     26  C   UNL     1       6.682  16.491  19.999  0.00  0.00    +0.000 C 
ATOM     27  C   UNL     1       7.884  17.457  19.772  0.00  0.00    +0.000 C 
ATOM     28  C   UNL     1       8.304  17.487  18.298  0.00  0.00    +0.000 C 
ENDBRANCH  22  23
ENDBRANCH  20  22
ENDBRANCH   3  20
BRANCH   1  29
ATOM     29  C   UNL     1       9.316  10.773  20.508  0.00  0.00    +0.000 C 
BRANCH  29  31
ATOM     30  C   UNL     1       8.517   9.624  18.290  0.00  0.00    +0.000 C 
ATOM     31  C   UNL     1       9.645  10.378  19.020  0.00  0.00    +0.000 C 
ENDBRANCH  29  31
ENDBRANCH   1  29
TORSDOF 6
ENDMDL
MODEL 8
REMARK VINA RESULT:      -6.9      3.495      7.659
REMARK  Name = 
REMARK  9 active torsions:
REMARK  status: ('A' for Active; 'I' for Inactive)
REMARK    1  A    between atoms: C_1  and  C_2
REMARK    2  A    between atoms: C_2  and  C_3
REMARK    3  A    between atoms: C_3  and  N_4
REMARK    4  A    between atoms: C_6  and  C_7
REMARK    5  A    between atoms: C_7  and  O_9
REMARK    6  A    between atoms: O_9  and  C_10
REMARK    7  A    between atoms: N_26  and  C_27
REMARK    8  A    between atoms: C_27  and  C_28
REMARK    9  A    between atoms: C_27  and  C_29
REMARK                            x       y       z     vdW  Elec       q    Type
REMARK                         _______ _______ _______ _____ _____    ______ ____
ROOT
ATOM      1  N   UNL     1      -1.255  11.280  21.901  0.00  0.00    +0.000 NA
ATOM      2  C   UNL     1      -1.568  12.674  21.426  0.00  0.00    +0.000 C 
ATOM      3  C   UNL     1      -0.427  13.429  20.731  0.00  0.00    +0.000 C 
ATOM      4  C   UNL     1       0.343  12.534  19.802  0.00  0.00    +0.000 C 
ATOM      5  C   UNL     1       1.034  11.436  20.594  0.00  0.00    +0.000 C 
ATOM      6  C   UNL     1       1.415  10.348  19.607  0.00  0.00    +0.000 A 
ATOM      7  C   UNL     1       1.830  10.544  18.254  0.00  0.00    +0.000 A 
ATOM      8  C   UNL     1       2.202   9.438  17.453  0.00  0.00    +0.000 A 
ATOM      9  C   UNL     1       2.199   8.137  17.993  0.00  0.00    +0.000 A 
ATOM     10  C   UNL     1       1.812   7.992  19.336  0.00  0.00    +0.000 A 
ATOM     11  C   UNL     1       1.432   9.074  20.071  0.00  0.00    +0.000 A 
ATOM     12  C   UNL     1       1.123   8.669  21.330  0.00  0.00    +0.000 A 
ATOM     13  C   UNL     1       1.356   7.299  21.340  0.00  0.00    +0.000 A 
ATOM     14  N   UNL     1       1.757   6.883  20.114  0.00  0.00    +0.000 N 
ATOM     15  C   UNL     1       0.675   9.585  22.438  0.00  0.00    +0.000 C 
ATOM     16  C   UNL     1       0.242  11.014  21.945  0.00  0.00    +0.000 C 
ENDROOT
BRANCH  14  17
ATOM     17  C   UNL     1       2.001   5.506  19.722  0.00  0.00    +0.000 C 
ATOM     18  C   UNL     1       3.506   5.187  19.730  0.00  0.00    +0.000 C 
ATOM     19  C   UNL     1       1.240   4.619  20.699  0.00  0.00    +0.000 C 
ENDBRANCH  14  17
BRANCH   3  20
ATOM     20  C   UNL     1       0.529  14.067  21.689  0.00  0.00    +0.000 C 
ATOM     21  O   UNL     1       0.036  14.496  22.724  0.00  0.00    +0.000 OA
BRANCH  20  22
ATOM     22  O   UNL     1       1.888  14.123  21.467  0.00  0.00    +0.000 OA
BRANCH  22  23
ATOM     23  C   UNL     1       2.749  15.196  21.173  0.00  0.00    +0.000 C 
ATOM     24  C   UNL     1       4.044  14.902  20.367  0.00  0.00    +0.000 C 
ATOM     25  C   UNL     1       3.754  14.431  18.946  0.00  0.00    +0.000 C 
ATOM     26  C   UNL     1       2.735  15.373  18.228  0.00  0.00    +0.000 C 
ATOM     27  C   UNL     1       1.537  15.898  19.075  0.00  0.00    +0.000 C 
ATOM     28  C   UNL     1       1.991  16.336  20.472  0.00  0.00    +0.000 C 
ENDBRANCH  22  23
ENDBRANCH  20  22
ENDBRANCH   3  20
BRANCH   1  29
ATOM     29  C   UNL     1      -2.004  11.137  23.212  0.00  0.00    +0.000 C 
BRANCH  29  31
ATOM     30  C   UNL     1      -4.072  12.276  24.354  0.00  0.00    +0.000 C 
ATOM     31  C   UNL     1      -2.713  12.471  23.654  0.00  0.00    +0.000 C 
ENDBRANCH  29  31
ENDBRANCH   1  29
TORSDOF 6
ENDMDL
MODEL 9
REMARK VINA RESULT:      -6.9      0.643      1.041
REMARK  Name = 
REMARK  9 active torsions:
REMARK  status: ('A' for Active; 'I' for Inactive)
REMARK    1  A    between atoms: C_1  and  C_2
REMARK    2  A    between atoms: C_2  and  C_3
REMARK    3  A    between atoms: C_3  and  N_4
REMARK    4  A    between atoms: C_6  and  C_7
REMARK    5  A    between atoms: C_7  and  O_9
REMARK    6  A    between atoms: O_9  and  C_10
REMARK    7  A    between atoms: N_26  and  C_27
REMARK    8  A    between atoms: C_27  and  C_28
REMARK    9  A    between atoms: C_27  and  C_29
REMARK                            x       y       z     vdW  Elec       q    Type
REMARK                         _______ _______ _______ _____ _____    ______ ____
ROOT
ATOM      1  N   UNL     1       0.906  11.931  19.364  0.00  0.00    +0.000 NA
ATOM      2  C   UNL     1       2.003  11.187  18.653  0.00  0.00    +0.000 C 
ATOM      3  C   UNL     1       1.659   9.777  18.155  0.00  0.00    +0.000 C 
ATOM      4  C   UNL     1       0.281   9.722  17.558  0.00  0.00    +0.000 C 
ATOM      5  C   UNL     1      -0.758  10.018  18.627  0.00  0.00    +0.000 C 
ATOM      6  C   UNL     1      -2.047  10.374  17.907  0.00  0.00    +0.000 A 
ATOM      7  C   UNL     1      -2.508   9.813  16.677  0.00  0.00    +0.000 A 
ATOM      8  C   UNL     1      -3.755  10.206  16.136  0.00  0.00    +0.000 A 
ATOM      9  C   UNL     1      -4.570  11.127  16.824  0.00  0.00    +0.000 A 
ATOM     10  C   UNL     1      -4.091  11.632  18.044  0.00  0.00    +0.000 A 
ATOM     11  C   UNL     1      -2.873  11.256  18.523  0.00  0.00    +0.000 A 
ATOM     12  C   UNL     1      -2.655  11.870  19.715  0.00  0.00    +0.000 A 
ATOM     13  C   UNL     1      -3.803  12.615  19.956  0.00  0.00    +0.000 A 
ATOM     14  N   UNL     1      -4.671  12.485  18.924  0.00  0.00    +0.000 N 
ATOM     15  C   UNL     1      -1.420  11.689  20.557  0.00  0.00    +0.000 C 
ATOM     16  C   UNL     1      -0.225  11.008  19.795  0.00  0.00    +0.000 C 
ENDROOT
BRANCH  14  17
ATOM     17  C   UNL     1      -5.933  13.189  18.782  0.00  0.00    +0.000 C 
ATOM     18  C   UNL     1      -7.122  12.261  19.080  0.00  0.00    +0.000 C 
ATOM     19  C   UNL     1      -5.898  14.372  19.743  0.00  0.00    +0.000 C 
ENDBRANCH  14  17
BRANCH   3  20
ATOM     20  C   UNL     1       1.765   8.732  19.221  0.00  0.00    +0.000 C 
ATOM     21  O   UNL     1       1.833   9.151  20.369  0.00  0.00    +0.000 OA
BRANCH  20  22
ATOM     22  O   UNL     1       1.727   7.381  18.954  0.00  0.00    +0.000 OA
BRANCH  22  23
ATOM     23  C   UNL     1       2.428   6.585  18.029  0.00  0.00    +0.000 C 
ATOM     24  C   UNL     1       3.948   6.357  18.259  0.00  0.00    +0.000 C 
ATOM     25  C   UNL     1       4.234   5.559  19.526  0.00  0.00    +0.000 C 
ATOM     26  C   UNL     1       3.358   4.268  19.601  0.00  0.00    +0.000 C 
ATOM     27  C   UNL     1       1.874   4.391  19.144  0.00  0.00    +0.000 C 
ATOM     28  C   UNL     1       1.753   5.214  17.856  0.00  0.00    +0.000 C 
ENDBRANCH  22  23
ENDBRANCH  20  22
ENDBRANCH   3  20
BRANCH   1  29
ATOM     29  C   UNL     1       1.607  12.699  20.468  0.00  0.00    +0.000 C 
BRANCH  29  31
ATOM     30  C   UNL     1       0.440  14.695  19.231  0.00  0.00    +0.000 C 
ATOM     31  C   UNL     1       1.417  14.256  20.339  0.00  0.00    +0.000 C 
ENDBRANCH  29  31
ENDBRANCH   1  29
TORSDOF 6
ENDMDL
