MODEL 1
REMARK VINA RESULT:      -7.1      0.000      0.000
REMARK  Name = 
REMARK  12 active torsions:
REMARK  status: ('A' for Active; 'I' for Inactive)
REMARK    1  A    between atoms: C_1  and  C_2
REMARK    2  A    between atoms: C_2  and  C_3
REMARK    3  A    between atoms: C_2  and  N_4
REMARK    4  A    between atoms: N_4  and  C_25
REMARK    5  A    between atoms: C_5  and  C_7
REMARK    6  A    between atoms: C_7  and  S_8
REMARK    7  A    between atoms: S_8  and  C_9
REMARK    8  A    between atoms: C_12  and  C_13
REMARK    9  A    between atoms: C_13  and  C_14
REMARK   10  A    between atoms: N_23  and  C_24
REMARK   11  A    between atoms: C_25  and  C_26
REMARK   12  A    between atoms: C_25  and  C_27
REMARK                            x       y       z     vdW  Elec       q    Type
REMARK                         _______ _______ _______ _____ _____    ______ ____
ROOT
ATOM      1  C   UNL     1       2.227   7.287  19.117  0.00  0.00    +0.000 A 
ATOM      2  N   UNL     1       2.501   7.584  17.857  0.00  0.00    +0.000 NA
ATOM      3  N   UNL     1       2.098   8.871  17.615  0.00  0.00    +0.000 NA
ATOM      4  C   UNL     1       1.592   9.361  18.729  0.00  0.00    +0.000 A 
ATOM      5  N   UNL     1       1.591   8.365  19.689  0.00  0.00    +0.000 N 
ATOM      6  C   UNL     1       0.991   8.497  20.986  0.00  0.00    +0.000 C 
ENDROOT
BRANCH   1   7
ATOM      7  S   UNL     1       2.695   5.752  19.808  0.00  0.00    +0.000 S 
BRANCH   7   8
ATOM      8  C   UNL     1       4.432   5.531  19.435  0.00  0.00    +0.000 C 
BRANCH   8  10
ATOM      9  N   UNL     1       5.972   5.645  17.455  0.00  0.00    +0.000 N 
ATOM     10  C   UNL     1       4.783   5.103  18.012  0.00  0.00    +0.000 C 
ATOM     11  O   UNL     1       3.997   4.413  17.364  0.00  0.00    +0.000 OA
BRANCH   9  13
ATOM     12  C   UNL     1       6.450   3.921  15.603  0.00  0.00    +0.000 C 
ATOM     13  C   UNL     1       6.302   5.390  16.023  0.00  0.00    +0.000 C 
ATOM     14  C   UNL     1       5.319   6.096  15.083  0.00  0.00    +0.000 C 
ENDBRANCH   9  13
BRANCH   9  15
ATOM     15  C   UNL     1       6.935   6.453  18.261  0.00  0.00    +0.000 C 
ATOM     16  C   UNL     1       7.988   5.542  18.899  0.00  0.00    +0.000 C 
ATOM     17  C   UNL     1       7.619   7.622  17.544  0.00  0.00    +0.000 C 
ENDBRANCH   9  15
ENDBRANCH   8  10
ENDBRANCH   7   8
ENDBRANCH   1   7
BRANCH   4  18
ATOM     18  C   UNL     1       1.148  10.776  18.932  0.00  0.00    +0.000 C 
BRANCH  18  19
ATOM     19  C   UNL     1      -0.352  10.930  18.790  0.00  0.00    +0.000 A 
ATOM     20  C   UNL     1      -1.027  10.217  17.769  0.00  0.00    +0.000 A 
ATOM     21  C   UNL     1      -2.399  10.370  17.559  0.00  0.00    +0.000 A 
ATOM     22  C   UNL     1      -3.076  11.242  18.381  0.00  0.00    +0.000 A 
ATOM     23  C   UNL     1      -2.440  11.927  19.390  0.00  0.00    +0.000 A 
ATOM     24  C   UNL     1      -1.085  11.790  19.627  0.00  0.00    +0.000 A 
ATOM     25  O   UNL     1      -3.290  12.735  20.080  0.00  0.00    +0.000 OA
ATOM     26  C   UNL     1      -4.522  12.515  19.357  0.00  0.00    +0.000 C 
ATOM     27  O   UNL     1      -4.401  11.537  18.305  0.00  0.00    +0.000 OA
ENDBRANCH  18  19
ENDBRANCH   4  18
TORSDOF 7
ENDMDL
MODEL 2
REMARK VINA RESULT:      -6.7      2.457      9.481
REMARK  Name = 
REMARK  12 active torsions:
REMARK  status: ('A' for Active; 'I' for Inactive)
REMARK    1  A    between atoms: C_1  and  C_2
REMARK    2  A    between atoms: C_2  and  C_3
REMARK    3  A    between atoms: C_2  and  N_4
REMARK    4  A    between atoms: N_4  and  C_25
REMARK    5  A    between atoms: C_5  and  C_7
REMARK    6  A    between atoms: C_7  and  S_8
REMARK    7  A    between atoms: S_8  and  C_9
REMARK    8  A    between atoms: C_12  and  C_13
REMARK    9  A    between atoms: C_13  and  C_14
REMARK   10  A    between atoms: N_23  and  C_24
REMARK   11  A    between atoms: C_25  and  C_26
REMARK   12  A    between atoms: C_25  and  C_27
REMARK                            x       y       z     vdW  Elec       q    Type
REMARK                         _______ _______ _______ _____ _____    ______ ____
ROOT
ATOM      1  C   UNL     1       1.937   7.345  20.060  0.00  0.00    +0.000 A 
ATOM      2  N   UNL     1       2.341   7.920  18.939  0.00  0.00    +0.000 NA
ATOM      3  N   UNL     1       2.961   6.975  18.164  0.00  0.00    +0.000 NA
ATOM      4  C   UNL     1       2.924   5.825  18.806  0.00  0.00    +0.000 A 
ATOM      5  N   UNL     1       2.344   6.030  20.044  0.00  0.00    +0.000 N 
ATOM      6  C   UNL     1       2.257   5.028  21.069  0.00  0.00    +0.000 C 
ENDROOT
BRANCH   1   7
ATOM      7  S   UNL     1       1.016   8.230  21.251  0.00  0.00    +0.000 S 
BRANCH   7   8
ATOM      8  C   UNL     1       0.307   9.640  20.405  0.00  0.00    +0.000 C 
BRANCH   8  10
ATOM      9  N   UNL     1      -0.483  12.017  20.568  0.00  0.00    +0.000 N 
ATOM     10  C   UNL     1       0.001  10.872  21.253  0.00  0.00    +0.000 C 
ATOM     11  O   UNL     1       0.277  10.880  22.452  0.00  0.00    +0.000 OA
BRANCH   9  13
ATOM     12  C   UNL     1      -1.564  13.257  22.549  0.00  0.00    +0.000 C 
ATOM     13  C   UNL     1      -0.665  13.301  21.306  0.00  0.00    +0.000 C 
ATOM     14  C   UNL     1       0.681  13.938  21.669  0.00  0.00    +0.000 C 
ENDBRANCH   9  13
BRANCH   9  15
ATOM     15  C   UNL     1      -0.847  11.987  19.120  0.00  0.00    +0.000 C 
ATOM     16  C   UNL     1      -2.339  11.683  18.955  0.00  0.00    +0.000 C 
ATOM     17  C   UNL     1      -0.469  13.219  18.290  0.00  0.00    +0.000 C 
ENDBRANCH   9  15
ENDBRANCH   8  10
ENDBRANCH   7   8
ENDBRANCH   1   7
BRANCH   4  18
ATOM     18  C   UNL     1       3.380   4.509  18.257  0.00  0.00    +0.000 C 
BRANCH  18  19
ATOM     19  C   UNL     1       4.599   4.653  17.369  0.00  0.00    +0.000 A 
ATOM     20  C   UNL     1       5.782   5.219  17.904  0.00  0.00    +0.000 A 
ATOM     21  C   UNL     1       6.912   5.428  17.110  0.00  0.00    +0.000 A 
ATOM     22  C   UNL     1       6.836   5.065  15.785  0.00  0.00    +0.000 A 
ATOM     23  C   UNL     1       5.702   4.496  15.254  0.00  0.00    +0.000 A 
ATOM     24  C   UNL     1       4.571   4.269  16.016  0.00  0.00    +0.000 A 
ATOM     25  O   UNL     1       5.837   4.216  13.929  0.00  0.00    +0.000 OA
ATOM     26  C   UNL     1       7.169   4.719  13.679  0.00  0.00    +0.000 C 
ATOM     27  O   UNL     1       7.822   5.220  14.862  0.00  0.00    +0.000 OA
ENDBRANCH  18  19
ENDBRANCH   4  18
TORSDOF 7
ENDMDL
MODEL 3
REMARK VINA RESULT:      -6.7      1.447      2.234
REMARK  Name = 
REMARK  12 active torsions:
REMARK  status: ('A' for Active; 'I' for Inactive)
REMARK    1  A    between atoms: C_1  and  C_2
REMARK    2  A    between atoms: C_2  and  C_3
REMARK    3  A    between atoms: C_2  and  N_4
REMARK    4  A    between atoms: N_4  and  C_25
REMARK    5  A    between atoms: C_5  and  C_7
REMARK    6  A    between atoms: C_7  and  S_8
REMARK    7  A    between atoms: S_8  and  C_9
REMARK    8  A    between atoms: C_12  and  C_13
REMARK    9  A    between atoms: C_13  and  C_14
REMARK   10  A    between atoms: N_23  and  C_24
REMARK   11  A    between atoms: C_25  and  C_26
REMARK   12  A    between atoms: C_25  and  C_27
REMARK                            x       y       z     vdW  Elec       q    Type
REMARK                         _______ _______ _______ _____ _____    ______ ____
ROOT
ATOM      1  C   UNL     1       1.870   8.398  18.983  0.00  0.00    +0.000 A 
ATOM      2  N   UNL     1       2.148   8.869  17.779  0.00  0.00    +0.000 NA
ATOM      3  N   UNL     1       1.457  10.038  17.597  0.00  0.00    +0.000 NA
ATOM      4  C   UNL     1       0.769  10.285  18.694  0.00  0.00    +0.000 A 
ATOM      5  N   UNL     1       0.948   9.233  19.573  0.00  0.00    +0.000 N 
ATOM      6  C   UNL     1       0.246   9.095  20.817  0.00  0.00    +0.000 C 
ENDROOT
BRANCH   1   7
ATOM      7  S   UNL     1       2.653   6.962  19.598  0.00  0.00    +0.000 S 
BRANCH   7   8
ATOM      8  C   UNL     1       2.798   5.829  18.220  0.00  0.00    +0.000 C 
BRANCH   8  10
ATOM      9  N   UNL     1       4.791   4.702  17.190  0.00  0.00    +0.000 N 
ATOM     10  C   UNL     1       4.076   5.912  17.389  0.00  0.00    +0.000 C 
ATOM     11  O   UNL     1       4.501   7.006  17.019  0.00  0.00    +0.000 OA
BRANCH   9  13
ATOM     12  C   UNL     1       7.352   4.559  17.417  0.00  0.00    +0.000 C 
ATOM     13  C   UNL     1       6.121   4.729  16.516  0.00  0.00    +0.000 C 
ATOM     14  C   UNL     1       6.188   3.723  15.361  0.00  0.00    +0.000 C 
ENDBRANCH   9  13
BRANCH   9  15
ATOM     15  C   UNL     1       4.249   3.376  17.613  0.00  0.00    +0.000 C 
ATOM     16  C   UNL     1       4.401   3.198  19.126  0.00  0.00    +0.000 C 
ATOM     17  C   UNL     1       2.812   3.053  17.189  0.00  0.00    +0.000 C 
ENDBRANCH   9  15
ENDBRANCH   8  10
ENDBRANCH   7   8
ENDBRANCH   1   7
BRANCH   4  18
ATOM     18  C   UNL     1      -0.024  11.527  18.960  0.00  0.00    +0.000 C 
BRANCH  18  19
ATOM     19  C   UNL     1      -1.496  11.339  18.659  0.00  0.00    +0.000 A 
ATOM     20  C   UNL     1      -1.887  10.388  17.686  0.00  0.00    +0.000 A 
ATOM     21  C   UNL     1      -3.227  10.220  17.330  0.00  0.00    +0.000 A 
ATOM     22  C   UNL     1      -4.158  11.014  17.959  0.00  0.00    +0.000 A 
ATOM     23  C   UNL     1      -3.798  11.928  18.922  0.00  0.00    +0.000 A 
ATOM     24  C   UNL     1      -2.481  12.111  19.301  0.00  0.00    +0.000 A 
ATOM     25  O   UNL     1      -4.869  12.608  19.413  0.00  0.00    +0.000 OA
ATOM     26  C   UNL     1      -5.936  12.050  18.614  0.00  0.00    +0.000 C 
ATOM     27  O   UNL     1      -5.497  11.008  17.721  0.00  0.00    +0.000 OA
ENDBRANCH  18  19
ENDBRANCH   4  18
TORSDOF 7
ENDMDL
MODEL 4
REMARK VINA RESULT:      -6.6      2.777      4.207
REMARK  Name = 
REMARK  12 active torsions:
REMARK  status: ('A' for Active; 'I' for Inactive)
REMARK    1  A    between atoms: C_1  and  C_2
REMARK    2  A    between atoms: C_2  and  C_3
REMARK    3  A    between atoms: C_2  and  N_4
REMARK    4  A    between atoms: N_4  and  C_25
REMARK    5  A    between atoms: C_5  and  C_7
REMARK    6  A    between atoms: C_7  and  S_8
REMARK    7  A    between atoms: S_8  and  C_9
REMARK    8  A    between atoms: C_12  and  C_13
REMARK    9  A    between atoms: C_13  and  C_14
REMARK   10  A    between atoms: N_23  and  C_24
REMARK   11  A    between atoms: C_25  and  C_26
REMARK   12  A    between atoms: C_25  and  C_27
REMARK                            x       y       z     vdW  Elec       q    Type
REMARK                         _______ _______ _______ _____ _____    ______ ____
ROOT
ATOM      1  C   UNL     1       0.854  10.300  18.445  0.00  0.00    +0.000 A 
ATOM      2  N   UNL     1      -0.332   9.769  18.196  0.00  0.00    +0.000 NA
ATOM      3  N   UNL     1      -1.298  10.643  18.618  0.00  0.00    +0.000 NA
ATOM      4  C   UNL     1      -0.703  11.710  19.112  0.00  0.00    +0.000 A 
ATOM      5  N   UNL     1       0.664  11.505  19.085  0.00  0.00    +0.000 N 
ATOM      6  C   UNL     1       1.625  12.399  19.665  0.00  0.00    +0.000 C 
ENDROOT
BRANCH   1   7
ATOM      7  S   UNL     1       2.327   9.503  17.949  0.00  0.00    +0.000 S 
BRANCH   7   8
ATOM      8  C   UNL     1       2.097   7.757  18.272  0.00  0.00    +0.000 C 
BRANCH   8  10
ATOM      9  N   UNL     1       3.260   5.552  18.569  0.00  0.00    +0.000 N 
ATOM     10  C   UNL     1       3.276   6.837  17.965  0.00  0.00    +0.000 C 
ATOM     11  O   UNL     1       4.233   7.257  17.316  0.00  0.00    +0.000 OA
BRANCH   9  13
ATOM     12  C   UNL     1       4.819   4.221  17.011  0.00  0.00    +0.000 C 
ATOM     13  C   UNL     1       4.445   4.655  18.434  0.00  0.00    +0.000 C 
ATOM     14  C   UNL     1       5.677   5.240  19.132  0.00  0.00    +0.000 C 
ENDBRANCH   9  13
BRANCH   9  15
ATOM     15  C   UNL     1       2.079   5.040  19.326  0.00  0.00    +0.000 C 
ATOM     16  C   UNL     1       1.422   3.885  18.566  0.00  0.00    +0.000 C 
ATOM     17  C   UNL     1       2.320   4.637  20.785  0.00  0.00    +0.000 C 
ENDBRANCH   9  15
ENDBRANCH   8  10
ENDBRANCH   7   8
ENDBRANCH   1   7
BRANCH   4  18
ATOM     18  C   UNL     1      -1.394  12.957  19.569  0.00  0.00    +0.000 C 
BRANCH  18  19
ATOM     19  C   UNL     1      -2.098  12.765  20.897  0.00  0.00    +0.000 A 
ATOM     20  C   UNL     1      -1.466  12.007  21.912  0.00  0.00    +0.000 A 
ATOM     21  C   UNL     1      -2.099  11.751  23.130  0.00  0.00    +0.000 A 
ATOM     22  C   UNL     1      -3.363  12.263  23.311  0.00  0.00    +0.000 A 
ATOM     23  C   UNL     1      -3.984  13.019  22.344  0.00  0.00    +0.000 A 
ATOM     24  C   UNL     1      -3.379  13.296  21.131  0.00  0.00    +0.000 A 
ATOM     25  O   UNL     1      -5.226  13.424  22.724  0.00  0.00    +0.000 OA
ATOM     26  C   UNL     1      -5.332  12.794  24.020  0.00  0.00    +0.000 C 
ATOM     27  O   UNL     1      -4.137  12.092  24.415  0.00  0.00    +0.000 OA
ENDBRANCH  18  19
ENDBRANCH   4  18
TORSDOF 7
ENDMDL
MODEL 5
REMARK VINA RESULT:      -6.6      2.689      3.980
REMARK  Name = 
REMARK  12 active torsions:
REMARK  status: ('A' for Active; 'I' for Inactive)
REMARK    1  A    between atoms: C_1  and  C_2
REMARK    2  A    between atoms: C_2  and  C_3
REMARK    3  A    between atoms: C_2  and  N_4
REMARK    4  A    between atoms: N_4  and  C_25
REMARK    5  A    between atoms: C_5  and  C_7
REMARK    6  A    between atoms: C_7  and  S_8
REMARK    7  A    between atoms: S_8  and  C_9
REMARK    8  A    between atoms: C_12  and  C_13
REMARK    9  A    between atoms: C_13  and  C_14
REMARK   10  A    between atoms: N_23  and  C_24
REMARK   11  A    between atoms: C_25  and  C_26
REMARK   12  A    between atoms: C_25  and  C_27
REMARK                            x       y       z     vdW  Elec       q    Type
REMARK                         _______ _______ _______ _____ _____    ______ ____
ROOT
ATOM      1  C   UNL     1       1.201   9.845  19.426  0.00  0.00    +0.000 A 
ATOM      2  N   UNL     1       0.694   9.246  20.491  0.00  0.00    +0.000 NA
ATOM      3  N   UNL     1       0.205  10.204  21.340  0.00  0.00    +0.000 NA
ATOM      4  C   UNL     1       0.401  11.384  20.787  0.00  0.00    +0.000 A 
ATOM      5  N   UNL     1       1.093  11.206  19.603  0.00  0.00    +0.000 N 
ATOM      6  C   UNL     1       1.599  12.281  18.796  0.00  0.00    +0.000 C 
ENDROOT
BRANCH   1   7
ATOM      7  S   UNL     1       1.831   8.925  18.082  0.00  0.00    +0.000 S 
BRANCH   7   8
ATOM      8  C   UNL     1       2.341   7.340  18.741  0.00  0.00    +0.000 C 
BRANCH   8  10
ATOM      9  N   UNL     1       3.541   5.212  18.164  0.00  0.00    +0.000 N 
ATOM     10  C   UNL     1       3.474   6.622  18.013  0.00  0.00    +0.000 C 
ATOM     11  O   UNL     1       4.338   7.271  17.424  0.00  0.00    +0.000 OA
BRANCH   9  13
ATOM     12  C   UNL     1       5.011   4.683  16.118  0.00  0.00    +0.000 C 
ATOM     13  C   UNL     1       4.702   4.460  17.604  0.00  0.00    +0.000 C 
ATOM     14  C   UNL     1       5.971   4.686  18.432  0.00  0.00    +0.000 C 
ENDBRANCH   9  13
BRANCH   9  15
ATOM     15  C   UNL     1       2.469   4.431  18.851  0.00  0.00    +0.000 C 
ATOM     16  C   UNL     1       1.977   3.298  17.946  0.00  0.00    +0.000 C 
ATOM     17  C   UNL     1       2.802   3.883  20.243  0.00  0.00    +0.000 C 
ENDBRANCH   9  15
ENDBRANCH   8  10
ENDBRANCH   7   8
ENDBRANCH   1   7
BRANCH   4  18
ATOM     18  C   UNL     1      -0.096  12.689  21.326  0.00  0.00    +0.000 C 
BRANCH  18  19
ATOM     19  C   UNL     1      -1.563  12.629  21.701  0.00  0.00    +0.000 A 
ATOM     20  C   UNL     1      -2.542  12.740  20.684  0.00  0.00    +0.000 A 
ATOM     21  C   UNL     1      -3.906  12.751  20.985  0.00  0.00    +0.000 A 
ATOM     22  C   UNL     1      -4.267  12.650  22.308  0.00  0.00    +0.000 A 
ATOM     23  C   UNL     1      -3.330  12.522  23.307  0.00  0.00    +0.000 A 
ATOM     24  C   UNL     1      -1.974  12.500  23.040  0.00  0.00    +0.000 A 
ATOM     25  O   UNL     1      -3.899  12.441  24.541  0.00  0.00    +0.000 OA
ATOM     26  C   UNL     1      -5.298  12.581  24.205  0.00  0.00    +0.000 C 
ATOM     27  O   UNL     1      -5.539  12.672  22.787  0.00  0.00    +0.000 OA
ENDBRANCH  18  19
ENDBRANCH   4  18
TORSDOF 7
ENDMDL
MODEL 6
REMARK VINA RESULT:      -6.6      2.892      4.426
REMARK  Name = 
REMARK  12 active torsions:
REMARK  status: ('A' for Active; 'I' for Inactive)
REMARK    1  A    between atoms: C_1  and  C_2
REMARK    2  A    between atoms: C_2  and  C_3
REMARK    3  A    between atoms: C_2  and  N_4
REMARK    4  A    between atoms: N_4  and  C_25
REMARK    5  A    between atoms: C_5  and  C_7
REMARK    6  A    between atoms: C_7  and  S_8
REMARK    7  A    between atoms: S_8  and  C_9
REMARK    8  A    between atoms: C_12  and  C_13
REMARK    9  A    between atoms: C_13  and  C_14
REMARK   10  A    between atoms: N_23  and  C_24
REMARK   11  A    between atoms: C_25  and  C_26
REMARK   12  A    between atoms: C_25  and  C_27
REMARK                            x       y       z     vdW  Elec       q    Type
REMARK                         _______ _______ _______ _____ _____    ______ ____
ROOT
ATOM      1  C   UNL     1       0.736   9.575  20.845  0.00  0.00    +0.000 A 
ATOM      2  N   UNL     1       0.073   8.920  21.784  0.00  0.00    +0.000 NA
ATOM      3  N   UNL     1      -0.545   9.833  22.598  0.00  0.00    +0.000 NA
ATOM      4  C   UNL     1      -0.270  11.040  22.148  0.00  0.00    +0.000 A 
ATOM      5  N   UNL     1       0.598  10.925  21.078  0.00  0.00    +0.000 N 
ATOM      6  C   UNL     1       1.218  12.040  20.419  0.00  0.00    +0.000 C 
ENDROOT
BRANCH   1   7
ATOM      7  S   UNL     1       1.569   8.727  19.565  0.00  0.00    +0.000 S 
BRANCH   7   8
ATOM      8  C   UNL     1       1.935   7.089  20.191  0.00  0.00    +0.000 C 
BRANCH   8  10
ATOM      9  N   UNL     1       2.629   4.770  19.527  0.00  0.00    +0.000 N 
ATOM     10  C   UNL     1       2.733   6.164  19.276  0.00  0.00    +0.000 C 
ATOM     11  O   UNL     1       3.507   6.635  18.444  0.00  0.00    +0.000 OA
BRANCH   9  13
ATOM     12  C   UNL     1       3.307   3.782  17.248  0.00  0.00    +0.000 C 
ATOM     13  C   UNL     1       3.490   3.815  18.771  0.00  0.00    +0.000 C 
ATOM     14  C   UNL     1       4.974   4.007  19.105  0.00  0.00    +0.000 C 
ENDBRANCH   9  13
BRANCH   9  15
ATOM     15  C   UNL     1       1.661   4.206  20.515  0.00  0.00    +0.000 C 
ATOM     16  C   UNL     1       0.659   3.288  19.810  0.00  0.00    +0.000 C 
ATOM     17  C   UNL     1       2.259   3.494  21.733  0.00  0.00    +0.000 C 
ENDBRANCH   9  15
ENDBRANCH   8  10
ENDBRANCH   7   8
ENDBRANCH   1   7
BRANCH   4  18
ATOM     18  C   UNL     1      -0.849  12.316  22.676  0.00  0.00    +0.000 C 
BRANCH  18  19
ATOM     19  C   UNL     1      -2.291  12.507  22.251  0.00  0.00    +0.000 A 
ATOM     20  C   UNL     1      -3.285  12.692  23.242  0.00  0.00    +0.000 A 
ATOM     21  C   UNL     1      -4.635  12.812  22.905  0.00  0.00    +0.000 A 
ATOM     22  C   UNL     1      -4.967  12.743  21.572  0.00  0.00    +0.000 A 
ATOM     23  C   UNL     1      -4.012  12.583  20.595  0.00  0.00    +0.000 A 
ATOM     24  C   UNL     1      -2.668  12.470  20.897  0.00  0.00    +0.000 A 
ATOM     25  O   UNL     1      -4.553  12.537  19.347  0.00  0.00    +0.000 OA
ATOM     26  C   UNL     1      -5.961  12.638  19.658  0.00  0.00    +0.000 C 
ATOM     27  O   UNL     1      -6.226  12.811  21.063  0.00  0.00    +0.000 OA
ENDBRANCH  18  19
ENDBRANCH   4  18
TORSDOF 7
ENDMDL
MODEL 7
REMARK VINA RESULT:      -6.6      2.583      3.672
REMARK  Name = 
REMARK  12 active torsions:
REMARK  status: ('A' for Active; 'I' for Inactive)
REMARK    1  A    between atoms: C_1  and  C_2
REMARK    2  A    between atoms: C_2  and  C_3
REMARK    3  A    between atoms: C_2  and  N_4
REMARK    4  A    between atoms: N_4  and  C_25
REMARK    5  A    between atoms: C_5  and  C_7
REMARK    6  A    between atoms: C_7  and  S_8
REMARK    7  A    between atoms: S_8  and  C_9
REMARK    8  A    between atoms: C_12  and  C_13
REMARK    9  A    between atoms: C_13  and  C_14
REMARK   10  A    between atoms: N_23  and  C_24
REMARK   11  A    between atoms: C_25  and  C_26
REMARK   12  A    between atoms: C_25  and  C_27
REMARK                            x       y       z     vdW  Elec       q    Type
REMARK                         _______ _______ _______ _____ _____    ______ ____
ROOT
ATOM      1  C   UNL     1       2.016   8.382  19.129  0.00  0.00    +0.000 A 
ATOM      2  N   UNL     1       1.433   7.980  20.247  0.00  0.00    +0.000 NA
ATOM      3  N   UNL     1       0.623   8.987  20.702  0.00  0.00    +0.000 NA
ATOM      4  C   UNL     1       0.701   9.994  19.856  0.00  0.00    +0.000 A 
ATOM      5  N   UNL     1       1.628   9.679  18.880  0.00  0.00    +0.000 N 
ATOM      6  C   UNL     1       2.072  10.592  17.865  0.00  0.00    +0.000 C 
ENDROOT
BRANCH   1   7
ATOM      7  S   UNL     1       3.050   7.313  18.212  0.00  0.00    +0.000 S 
BRANCH   7   8
ATOM      8  C   UNL     1       2.214   5.731  18.139  0.00  0.00    +0.000 C 
BRANCH   8  10
ATOM      9  N   UNL     1       2.630   3.428  19.045  0.00  0.00    +0.000 N 
ATOM     10  C   UNL     1       3.090   4.484  18.216  0.00  0.00    +0.000 C 
ATOM     11  O   UNL     1       4.191   4.468  17.666  0.00  0.00    +0.000 OA
BRANCH   9  13
ATOM     12  C   UNL     1       3.831   1.373  18.063  0.00  0.00    +0.000 C 
ATOM     13  C   UNL     1       3.500   2.240  19.286  0.00  0.00    +0.000 C 
ATOM     14  C   UNL     1       4.796   2.627  20.006  0.00  0.00    +0.000 C 
ENDBRANCH   9  13
BRANCH   9  15
ATOM     15  C   UNL     1       1.278   3.442  19.681  0.00  0.00    +0.000 C 
ATOM     16  C   UNL     1       0.328   2.506  18.928  0.00  0.00    +0.000 C 
ATOM     17  C   UNL     1       1.222   3.148  21.184  0.00  0.00    +0.000 C 
ENDBRANCH   9  15
ENDBRANCH   8  10
ENDBRANCH   7   8
ENDBRANCH   1   7
BRANCH   4  18
ATOM     18  C   UNL     1      -0.122  11.244  19.915  0.00  0.00    +0.000 C 
BRANCH  18  19
ATOM     19  C   UNL     1      -1.425  11.105  19.153  0.00  0.00    +0.000 A 
ATOM     20  C   UNL     1      -1.505  10.183  18.082  0.00  0.00    +0.000 A 
ATOM     21  C   UNL     1      -2.664  10.061  17.312  0.00  0.00    +0.000 A 
ATOM     22  C   UNL     1      -3.729  10.871  17.631  0.00  0.00    +0.000 A 
ATOM     23  C   UNL     1      -3.675  11.758  18.681  0.00  0.00    +0.000 A 
ATOM     24  C   UNL     1      -2.545  11.895  19.466  0.00  0.00    +0.000 A 
ATOM     25  O   UNL     1      -4.831  12.462  18.822  0.00  0.00    +0.000 OA
ATOM     26  C   UNL     1      -5.598  11.949  17.710  0.00  0.00    +0.000 C 
ATOM     27  O   UNL     1      -4.920  10.910  16.977  0.00  0.00    +0.000 OA
ENDBRANCH  18  19
ENDBRANCH   4  18
TORSDOF 7
ENDMDL
MODEL 8
REMARK VINA RESULT:      -6.6      2.561      3.606
REMARK  Name = 
REMARK  12 active torsions:
REMARK  status: ('A' for Active; 'I' for Inactive)
REMARK    1  A    between atoms: C_1  and  C_2
REMARK    2  A    between atoms: C_2  and  C_3
REMARK    3  A    between atoms: C_2  and  N_4
REMARK    4  A    between atoms: N_4  and  C_25
REMARK    5  A    between atoms: C_5  and  C_7
REMARK    6  A    between atoms: C_7  and  S_8
REMARK    7  A    between atoms: S_8  and  C_9
REMARK    8  A    between atoms: C_12  and  C_13
REMARK    9  A    between atoms: C_13  and  C_14
REMARK   10  A    between atoms: N_23  and  C_24
REMARK   11  A    between atoms: C_25  and  C_26
REMARK   12  A    between atoms: C_25  and  C_27
REMARK                            x       y       z     vdW  Elec       q    Type
REMARK                         _______ _______ _______ _____ _____    ______ ____
ROOT
ATOM      1  C   UNL     1       1.072   9.682  19.306  0.00  0.00    +0.000 A 
ATOM      2  N   UNL     1       0.895   9.002  20.427  0.00  0.00    +0.000 NA
ATOM      3  N   UNL     1       0.599   9.887  21.431  0.00  0.00    +0.000 NA
ATOM      4  C   UNL     1       0.582  11.101  20.919  0.00  0.00    +0.000 A 
ATOM      5  N   UNL     1       0.946  11.023  19.587  0.00  0.00    +0.000 N 
ATOM      6  C   UNL     1       1.165  12.164  18.744  0.00  0.00    +0.000 C 
ENDROOT
BRANCH   1   7
ATOM      7  S   UNL     1       1.371   8.866  17.790  0.00  0.00    +0.000 S 
BRANCH   7   8
ATOM      8  C   UNL     1       3.011   8.156  17.906  0.00  0.00    +0.000 C 
BRANCH   8  10
ATOM      9  N   UNL     1       4.138   5.921  17.718  0.00  0.00    +0.000 N 
ATOM     10  C   UNL     1       3.099   6.687  18.310  0.00  0.00    +0.000 C 
ATOM     11  O   UNL     1       2.230   6.190  19.026  0.00  0.00    +0.000 OA
BRANCH   9  13
ATOM     12  C   UNL     1       4.311   3.987  19.409  0.00  0.00    +0.000 C 
ATOM     13  C   UNL     1       4.198   4.448  17.950  0.00  0.00    +0.000 C 
ATOM     14  C   UNL     1       3.032   3.723  17.271  0.00  0.00    +0.000 C 
ENDBRANCH   9  13
BRANCH   9  15
ATOM     15  C   UNL     1       5.207   6.540  16.878  0.00  0.00    +0.000 C 
ATOM     16  C   UNL     1       6.564   6.427  17.579  0.00  0.00    +0.000 C 
ATOM     17  C   UNL     1       5.320   6.041  15.433  0.00  0.00    +0.000 C 
ENDBRANCH   9  15
ENDBRANCH   8  10
ENDBRANCH   7   8
ENDBRANCH   1   7
BRANCH   4  18
ATOM     18  C   UNL     1       0.179  12.345  21.648  0.00  0.00    +0.000 C 
BRANCH  18  19
ATOM     19  C   UNL     1      -1.316  12.406  21.889  0.00  0.00    +0.000 A 
ATOM     20  C   UNL     1      -2.184  12.633  20.794  0.00  0.00    +0.000 A 
ATOM     21  C   UNL     1      -3.564  12.757  20.974  0.00  0.00    +0.000 A 
ATOM     22  C   UNL     1      -4.052  12.650  22.255  0.00  0.00    +0.000 A 
ATOM     23  C   UNL     1      -3.225  12.410  23.327  0.00  0.00    +0.000 A 
ATOM     24  C   UNL     1      -1.856  12.275  23.180  0.00  0.00    +0.000 A 
ATOM     25  O   UNL     1      -3.908  12.343  24.502  0.00  0.00    +0.000 OA
ATOM     26  C   UNL     1      -5.253  12.618  24.049  0.00  0.00    +0.000 C 
ATOM     27  O   UNL     1      -5.356  12.772  22.620  0.00  0.00    +0.000 OA
ENDBRANCH  18  19
ENDBRANCH   4  18
TORSDOF 7
ENDMDL
MODEL 9
REMARK VINA RESULT:      -6.6      1.096      2.149
REMARK  Name = 
REMARK  12 active torsions:
REMARK  status: ('A' for Active; 'I' for Inactive)
REMARK    1  A    between atoms: C_1  and  C_2
REMARK    2  A    between atoms: C_2  and  C_3
REMARK    3  A    between atoms: C_2  and  N_4
REMARK    4  A    between atoms: N_4  and  C_25
REMARK    5  A    between atoms: C_5  and  C_7
REMARK    6  A    between atoms: C_7  and  S_8
REMARK    7  A    between atoms: S_8  and  C_9
REMARK    8  A    between atoms: C_12  and  C_13
REMARK    9  A    between atoms: C_13  and  C_14
REMARK   10  A    between atoms: N_23  and  C_24
REMARK   11  A    between atoms: C_25  and  C_26
REMARK   12  A    between atoms: C_25  and  C_27
REMARK                            x       y       z     vdW  Elec       q    Type
REMARK                         _______ _______ _______ _____ _____    ______ ____
ROOT
ATOM      1  C   UNL     1       2.105   7.689  19.015  0.00  0.00    +0.000 A 
ATOM      2  N   UNL     1       2.306   7.967  17.738  0.00  0.00    +0.000 NA
ATOM      3  N   UNL     1       1.938   9.268  17.512  0.00  0.00    +0.000 NA
ATOM      4  C   UNL     1       1.527   9.784  18.652  0.00  0.00    +0.000 A 
ATOM      5  N   UNL     1       1.552   8.795  19.618  0.00  0.00    +0.000 N 
ATOM      6  C   UNL     1       1.045   8.959  20.952  0.00  0.00    +0.000 C 
ENDROOT
BRANCH   1   7
ATOM      7  S   UNL     1       2.557   6.141  19.687  0.00  0.00    +0.000 S 
BRANCH   7   8
ATOM      8  C   UNL     1       3.557   5.319  18.450  0.00  0.00    +0.000 C 
BRANCH   8  10
ATOM      9  N   UNL     1       5.981   5.887  18.137  0.00  0.00    +0.000 N 
ATOM     10  C   UNL     1       5.023   5.075  18.798  0.00  0.00    +0.000 C 
ATOM     11  O   UNL     1       5.336   4.139  19.532  0.00  0.00    +0.000 OA
BRANCH   9  13
ATOM     12  C   UNL     1       7.957   5.572  19.757  0.00  0.00    +0.000 C 
ATOM     13  C   UNL     1       7.437   5.610  18.314  0.00  0.00    +0.000 C 
ATOM     14  C   UNL     1       7.861   4.333  17.581  0.00  0.00    +0.000 C 
ENDBRANCH   9  13
BRANCH   9  15
ATOM     15  C   UNL     1       5.591   7.043  17.274  0.00  0.00    +0.000 C 
ATOM     16  C   UNL     1       6.699   8.100  17.270  0.00  0.00    +0.000 C 
ATOM     17  C   UNL     1       5.172   6.717  15.837  0.00  0.00    +0.000 C 
ENDBRANCH   9  15
ENDBRANCH   8  10
ENDBRANCH   7   8
ENDBRANCH   1   7
BRANCH   4  18
ATOM     18  C   UNL     1       1.154  11.218  18.872  0.00  0.00    +0.000 C 
BRANCH  18  19
ATOM     19  C   UNL     1      -0.346  11.426  18.851  0.00  0.00    +0.000 A 
ATOM     20  C   UNL     1      -0.932  12.332  19.768  0.00  0.00    +0.000 A 
ATOM     21  C   UNL     1      -2.315  12.514  19.828  0.00  0.00    +0.000 A 
ATOM     22  C   UNL     1      -3.093  11.780  18.963  0.00  0.00    +0.000 A 
ATOM     23  C   UNL     1      -2.540  10.911  18.052  0.00  0.00    +0.000 A 
ATOM     24  C   UNL     1      -1.173  10.715  17.963  0.00  0.00    +0.000 A 
ATOM     25  O   UNL     1      -3.483  10.285  17.296  0.00  0.00    +0.000 OA
ATOM     26  C   UNL     1      -4.694  10.826  17.871  0.00  0.00    +0.000 C 
ATOM     27  O   UNL     1      -4.451  11.806  18.900  0.00  0.00    +0.000 OA
ENDBRANCH  18  19
ENDBRANCH   4  18
TORSDOF 7
ENDMDL
