MODEL 1
REMARK VINA RESULT:      -7.6      0.000      0.000
REMARK  Name = 
REMARK  9 active torsions:
REMARK  status: ('A' for Active; 'I' for Inactive)
REMARK    1  A    between atoms: C_1  and  C_2
REMARK    2  A    between atoms: C_2  and  N_3
REMARK    3  A    between atoms: N_3  and  C_4
REMARK    4  A    between atoms: N_3  and  C_9
REMARK    5  A    between atoms: C_4  and  C_5
REMARK    6  A    between atoms: C_5  and  C_6
REMARK    7  A    between atoms: C_6  and  O_8
REMARK    8  A    between atoms: C_9  and  C_10
REMARK    9  A    between atoms: C_13  and  C_14
REMARK                            x       y       z     vdW  Elec       q    Type
REMARK                         _______ _______ _______ _____ _____    ______ ____
ROOT
ATOM      1  C   UNL     1       4.156   5.637  17.500  0.00  0.00    +0.000 A 
ATOM      2  N   UNL     1       3.983   4.400  17.830  0.00  0.00    +0.000 NA
ATOM      3  C   UNL     1       3.077   4.098  18.857  0.00  0.00    +0.000 A 
ATOM      4  C   UNL     1       2.779   2.751  19.124  0.00  0.00    +0.000 A 
ATOM      5  C   UNL     1       3.438   1.629  18.367  0.00  0.00    +0.000 C 
ATOM      6  C   UNL     1       1.808   2.439  20.089  0.00  0.00    +0.000 A 
ATOM      7  C   UNL     1       1.146   3.449  20.789  0.00  0.00    +0.000 A 
ATOM      8  C   UNL     1       1.450   4.786  20.537  0.00  0.00    +0.000 A 
ATOM      9  C   UNL     1       2.405   5.100  19.568  0.00  0.00    +0.000 A 
ATOM     10  C   UNL     1       2.699   6.507  19.211  0.00  0.00    +0.000 A 
ATOM     11  O   UNL     1       2.211   7.450  19.815  0.00  0.00    +0.000 OA
ATOM     12  N   UNL     1       3.543   6.679  18.140  0.00  0.00    +0.000 N 
ATOM     13  H   UNL     1       3.775   7.627  17.882  0.00  0.00    +0.000 HD
ENDROOT
BRANCH   1  14
ATOM     14  C   UNL     1       5.028   5.963  16.298  0.00  0.00    +0.000 C 
BRANCH  14  15
ATOM     15  N   UNL     1       6.442   5.538  16.468  0.00  0.00    +0.000 NA
BRANCH  15  17
ATOM     16  C   UNL     1       5.799   4.364  14.295  0.00  0.00    +0.000 C 
ATOM     17  C   UNL     1       6.902   4.913  15.197  0.00  0.00    +0.000 C 
ENDBRANCH  15  17
BRANCH  15  18
ATOM     18  C   UNL     1       7.276   6.733  16.789  0.00  0.00    +0.000 C 
BRANCH  18  19
ATOM     19  C   UNL     1       7.749   6.798  18.251  0.00  0.00    +0.000 C 
BRANCH  19  20
ATOM     20  C   UNL     1       7.508   5.487  18.961  0.00  0.00    +0.000 C 
ATOM     21  O   UNL     1       6.783   5.330  19.927  0.00  0.00    +0.000 OA
BRANCH  20  22
ATOM     22  O   UNL     1       8.182   4.459  18.389  0.00  0.00    +0.000 OA
ATOM     23  H   UNL     1       8.617   4.683  17.545  0.00  0.00    +0.000 HD
ENDBRANCH  20  22
ENDBRANCH  19  20
ENDBRANCH  18  19
ENDBRANCH  15  18
ENDBRANCH  14  15
ENDBRANCH   1  14
TORSDOF 7
ENDMDL
MODEL 2
REMARK VINA RESULT:      -7.4      0.850      1.114
REMARK  Name = 
REMARK  9 active torsions:
REMARK  status: ('A' for Active; 'I' for Inactive)
REMARK    1  A    between atoms: C_1  and  C_2
REMARK    2  A    between atoms: C_2  and  N_3
REMARK    3  A    between atoms: N_3  and  C_4
REMARK    4  A    between atoms: N_3  and  C_9
REMARK    5  A    between atoms: C_4  and  C_5
REMARK    6  A    between atoms: C_5  and  C_6
REMARK    7  A    between atoms: C_6  and  O_8
REMARK    8  A    between atoms: C_9  and  C_10
REMARK    9  A    between atoms: C_13  and  C_14
REMARK                            x       y       z     vdW  Elec       q    Type
REMARK                         _______ _______ _______ _____ _____    ______ ____
ROOT
ATOM      1  C   UNL     1       3.636   6.128  18.136  0.00  0.00    +0.000 A 
ATOM      2  N   UNL     1       3.633   4.836  18.132  0.00  0.00    +0.000 NA
ATOM      3  C   UNL     1       2.787   4.161  19.023  0.00  0.00    +0.000 A 
ATOM      4  C   UNL     1       2.675   2.764  18.927  0.00  0.00    +0.000 A 
ATOM      5  C   UNL     1       3.470   1.973  17.924  0.00  0.00    +0.000 C 
ATOM      6  C   UNL     1       1.764   2.088  19.755  0.00  0.00    +0.000 A 
ATOM      7  C   UNL     1       0.980   2.787  20.675  0.00  0.00    +0.000 A 
ATOM      8  C   UNL     1       1.100   4.171  20.784  0.00  0.00    +0.000 A 
ATOM      9  C   UNL     1       1.994   4.848  19.951  0.00  0.00    +0.000 A 
ATOM     10  C   UNL     1       2.093   6.326  19.976  0.00  0.00    +0.000 A 
ATOM     11  O   UNL     1       1.489   7.007  20.790  0.00  0.00    +0.000 OA
ATOM     12  N   UNL     1       2.895   6.878  19.007  0.00  0.00    +0.000 N 
ATOM     13  H   UNL     1       2.995   7.883  19.008  0.00  0.00    +0.000 HD
ENDROOT
BRANCH   1  14
ATOM     14  C   UNL     1       4.444   6.866  17.080  0.00  0.00    +0.000 C 
BRANCH  14  15
ATOM     15  N   UNL     1       5.671   6.137  16.667  0.00  0.00    +0.000 NA
BRANCH  15  17
ATOM     16  C   UNL     1       6.047   4.515  14.732  0.00  0.00    +0.000 C 
ATOM     17  C   UNL     1       5.607   5.901  15.198  0.00  0.00    +0.000 C 
ENDBRANCH  15  17
BRANCH  15  18
ATOM     18  C   UNL     1       6.867   6.962  17.007  0.00  0.00    +0.000 C 
BRANCH  18  19
ATOM     19  C   UNL     1       7.698   6.415  18.180  0.00  0.00    +0.000 C 
BRANCH  19  20
ATOM     20  C   UNL     1       7.595   4.911  18.267  0.00  0.00    +0.000 C 
ATOM     21  O   UNL     1       8.345   4.119  17.723  0.00  0.00    +0.000 OA
BRANCH  20  22
ATOM     22  O   UNL     1       6.566   4.509  19.052  0.00  0.00    +0.000 OA
ATOM     23  H   UNL     1       6.792   3.793  19.676  0.00  0.00    +0.000 HD
ENDBRANCH  20  22
ENDBRANCH  19  20
ENDBRANCH  18  19
ENDBRANCH  15  18
ENDBRANCH  14  15
ENDBRANCH   1  14
TORSDOF 7
ENDMDL
MODEL 3
REMARK VINA RESULT:      -7.4      2.156      3.647
REMARK  Name = 
REMARK  9 active torsions:
REMARK  status: ('A' for Active; 'I' for Inactive)
REMARK    1  A    between atoms: C_1  and  C_2
REMARK    2  A    between atoms: C_2  and  N_3
REMARK    3  A    between atoms: N_3  and  C_4
REMARK    4  A    between atoms: N_3  and  C_9
REMARK    5  A    between atoms: C_4  and  C_5
REMARK    6  A    between atoms: C_5  and  C_6
REMARK    7  A    between atoms: C_6  and  O_8
REMARK    8  A    between atoms: C_9  and  C_10
REMARK    9  A    between atoms: C_13  and  C_14
REMARK                            x       y       z     vdW  Elec       q    Type
REMARK                         _______ _______ _______ _____ _____    ______ ____
ROOT
ATOM      1  C   UNL     1       5.359   4.611  19.380  0.00  0.00    +0.000 A 
ATOM      2  N   UNL     1       4.284   5.288  19.611  0.00  0.00    +0.000 NA
ATOM      3  C   UNL     1       3.074   4.597  19.770  0.00  0.00    +0.000 A 
ATOM      4  C   UNL     1       1.931   5.313  20.161  0.00  0.00    +0.000 A 
ATOM      5  C   UNL     1       1.962   6.803  20.372  0.00  0.00    +0.000 C 
ATOM      6  C   UNL     1       0.736   4.619  20.409  0.00  0.00    +0.000 A 
ATOM      7  C   UNL     1       0.671   3.232  20.261  0.00  0.00    +0.000 A 
ATOM      8  C   UNL     1       1.800   2.521  19.858  0.00  0.00    +0.000 A 
ATOM      9  C   UNL     1       2.994   3.207  19.625  0.00  0.00    +0.000 A 
ATOM     10  C   UNL     1       4.237   2.482  19.276  0.00  0.00    +0.000 A 
ATOM     11  O   UNL     1       4.255   1.278  19.068  0.00  0.00    +0.000 OA
ATOM     12  N   UNL     1       5.373   3.253  19.223  0.00  0.00    +0.000 N 
ATOM     13  H   UNL     1       6.234   2.789  18.971  0.00  0.00    +0.000 HD
ENDROOT
BRANCH   1  14
ATOM     14  C   UNL     1       6.695   5.339  19.346  0.00  0.00    +0.000 C 
BRANCH  14  15
ATOM     15  N   UNL     1       6.977   5.981  18.036  0.00  0.00    +0.000 NA
BRANCH  15  17
ATOM     16  C   UNL     1       7.703   8.388  17.593  0.00  0.00    +0.000 C 
ATOM     17  C   UNL     1       8.005   7.040  18.243  0.00  0.00    +0.000 C 
ENDBRANCH  15  17
BRANCH  15  18
ATOM     18  C   UNL     1       7.483   4.948  17.084  0.00  0.00    +0.000 C 
BRANCH  18  19
ATOM     19  C   UNL     1       6.790   4.962  15.712  0.00  0.00    +0.000 C 
BRANCH  19  20
ATOM     20  C   UNL     1       5.459   5.673  15.780  0.00  0.00    +0.000 C 
ATOM     21  O   UNL     1       5.209   6.755  15.279  0.00  0.00    +0.000 OA
BRANCH  20  22
ATOM     22  O   UNL     1       4.527   4.958  16.458  0.00  0.00    +0.000 OA
ATOM     23  H   UNL     1       3.624   5.030  16.096  0.00  0.00    +0.000 HD
ENDBRANCH  20  22
ENDBRANCH  19  20
ENDBRANCH  18  19
ENDBRANCH  15  18
ENDBRANCH  14  15
ENDBRANCH   1  14
TORSDOF 7
ENDMDL
MODEL 4
REMARK VINA RESULT:      -7.3      1.490      2.682
REMARK  Name = 
REMARK  9 active torsions:
REMARK  status: ('A' for Active; 'I' for Inactive)
REMARK    1  A    between atoms: C_1  and  C_2
REMARK    2  A    between atoms: C_2  and  N_3
REMARK    3  A    between atoms: N_3  and  C_4
REMARK    4  A    between atoms: N_3  and  C_9
REMARK    5  A    between atoms: C_4  and  C_5
REMARK    6  A    between atoms: C_5  and  C_6
REMARK    7  A    between atoms: C_6  and  O_8
REMARK    8  A    between atoms: C_9  and  C_10
REMARK    9  A    between atoms: C_13  and  C_14
REMARK                            x       y       z     vdW  Elec       q    Type
REMARK                         _______ _______ _______ _____ _____    ______ ____
ROOT
ATOM      1  C   UNL     1       4.215   4.419  17.075  0.00  0.00    +0.000 A 
ATOM      2  N   UNL     1       3.504   5.168  17.851  0.00  0.00    +0.000 NA
ATOM      3  C   UNL     1       2.841   4.577  18.936  0.00  0.00    +0.000 A 
ATOM      4  C   UNL     1       2.185   5.404  19.862  0.00  0.00    +0.000 A 
ATOM      5  C   UNL     1       2.140   6.899  19.697  0.00  0.00    +0.000 C 
ATOM      6  C   UNL     1       1.593   4.830  20.999  0.00  0.00    +0.000 A 
ATOM      7  C   UNL     1       1.643   3.451  21.211  0.00  0.00    +0.000 A 
ATOM      8  C   UNL     1       2.280   2.625  20.286  0.00  0.00    +0.000 A 
ATOM      9  C   UNL     1       2.882   3.195  19.162  0.00  0.00    +0.000 A 
ATOM     10  C   UNL     1       3.640   2.366  18.197  0.00  0.00    +0.000 A 
ATOM     11  O   UNL     1       3.681   1.147  18.274  0.00  0.00    +0.000 OA
ATOM     12  N   UNL     1       4.310   3.062  17.220  0.00  0.00    +0.000 N 
ATOM     13  H   UNL     1       4.823   2.523  16.538  0.00  0.00    +0.000 HD
ENDROOT
BRANCH   1  14
ATOM     14  C   UNL     1       5.048   5.071  15.982  0.00  0.00    +0.000 C 
BRANCH  14  15
ATOM     15  N   UNL     1       6.476   4.661  16.012  0.00  0.00    +0.000 NA
BRANCH  15  17
ATOM     16  C   UNL     1       6.324   3.942  13.568  0.00  0.00    +0.000 C 
ATOM     17  C   UNL     1       7.028   4.778  14.634  0.00  0.00    +0.000 C 
ENDBRANCH  15  17
BRANCH  15  18
ATOM     18  C   UNL     1       7.222   5.555  16.946  0.00  0.00    +0.000 C 
BRANCH  18  19
ATOM     19  C   UNL     1       7.814   4.835  18.169  0.00  0.00    +0.000 C 
BRANCH  19  20
ATOM     20  C   UNL     1       7.227   5.369  19.454  0.00  0.00    +0.000 C 
ATOM     21  O   UNL     1       6.056   5.655  19.630  0.00  0.00    +0.000 OA
BRANCH  20  22
ATOM     22  O   UNL     1       8.155   5.485  20.436  0.00  0.00    +0.000 OA
ATOM     23  H   UNL     1       9.058   5.232  20.168  0.00  0.00    +0.000 HD
ENDBRANCH  20  22
ENDBRANCH  19  20
ENDBRANCH  18  19
ENDBRANCH  15  18
ENDBRANCH  14  15
ENDBRANCH   1  14
TORSDOF 7
ENDMDL
MODEL 5
REMARK VINA RESULT:      -7.2      2.352      3.805
REMARK  Name = 
REMARK  9 active torsions:
REMARK  status: ('A' for Active; 'I' for Inactive)
REMARK    1  A    between atoms: C_1  and  C_2
REMARK    2  A    between atoms: C_2  and  N_3
REMARK    3  A    between atoms: N_3  and  C_4
REMARK    4  A    between atoms: N_3  and  C_9
REMARK    5  A    between atoms: C_4  and  C_5
REMARK    6  A    between atoms: C_5  and  C_6
REMARK    7  A    between atoms: C_6  and  O_8
REMARK    8  A    between atoms: C_9  and  C_10
REMARK    9  A    between atoms: C_13  and  C_14
REMARK                            x       y       z     vdW  Elec       q    Type
REMARK                         _______ _______ _______ _____ _____    ______ ____
ROOT
ATOM      1  C   UNL     1       5.388   4.616  19.275  0.00  0.00    +0.000 A 
ATOM      2  N   UNL     1       4.330   5.321  19.505  0.00  0.00    +0.000 NA
ATOM      3  C   UNL     1       3.112   4.659  19.718  0.00  0.00    +0.000 A 
ATOM      4  C   UNL     1       1.991   5.409  20.107  0.00  0.00    +0.000 A 
ATOM      5  C   UNL     1       2.053   6.905  20.260  0.00  0.00    +0.000 C 
ATOM      6  C   UNL     1       0.790   4.747  20.408  0.00  0.00    +0.000 A 
ATOM      7  C   UNL     1       0.698   3.357  20.315  0.00  0.00    +0.000 A 
ATOM      8  C   UNL     1       1.805   2.610  19.913  0.00  0.00    +0.000 A 
ATOM      9  C   UNL     1       3.004   3.266  19.627  0.00  0.00    +0.000 A 
ATOM     10  C   UNL     1       4.227   2.505  19.278  0.00  0.00    +0.000 A 
ATOM     11  O   UNL     1       4.218   1.294  19.115  0.00  0.00    +0.000 OA
ATOM     12  N   UNL     1       5.374   3.253  19.169  0.00  0.00    +0.000 N 
ATOM     13  H   UNL     1       6.221   2.765  18.916  0.00  0.00    +0.000 HD
ENDROOT
BRANCH   1  14
ATOM     14  C   UNL     1       6.734   5.317  19.183  0.00  0.00    +0.000 C 
BRANCH  14  15
ATOM     15  N   UNL     1       6.882   6.140  17.954  0.00  0.00    +0.000 NA
BRANCH  15  17
ATOM     16  C   UNL     1       7.712   8.530  17.617  0.00  0.00    +0.000 C 
ATOM     17  C   UNL     1       7.967   7.135  18.183  0.00  0.00    +0.000 C 
ENDBRANCH  15  17
BRANCH  15  18
ATOM     18  C   UNL     1       7.230   5.249  16.809  0.00  0.00    +0.000 C 
BRANCH  18  19
ATOM     19  C   UNL     1       6.144   5.165  15.723  0.00  0.00    +0.000 C 
BRANCH  19  20
ATOM     20  C   UNL     1       6.736   4.781  14.388  0.00  0.00    +0.000 C 
ATOM     21  O   UNL     1       6.282   3.943  13.629  0.00  0.00    +0.000 OA
BRANCH  20  22
ATOM     22  O   UNL     1       7.849   5.496  14.092  0.00  0.00    +0.000 OA
ATOM     23  H   UNL     1       8.566   4.975  13.685  0.00  0.00    +0.000 HD
ENDBRANCH  20  22
ENDBRANCH  19  20
ENDBRANCH  18  19
ENDBRANCH  15  18
ENDBRANCH  14  15
ENDBRANCH   1  14
TORSDOF 7
ENDMDL
MODEL 6
REMARK VINA RESULT:      -7.0      2.344      3.712
REMARK  Name = 
REMARK  9 active torsions:
REMARK  status: ('A' for Active; 'I' for Inactive)
REMARK    1  A    between atoms: C_1  and  C_2
REMARK    2  A    between atoms: C_2  and  N_3
REMARK    3  A    between atoms: N_3  and  C_4
REMARK    4  A    between atoms: N_3  and  C_9
REMARK    5  A    between atoms: C_4  and  C_5
REMARK    6  A    between atoms: C_5  and  C_6
REMARK    7  A    between atoms: C_6  and  O_8
REMARK    8  A    between atoms: C_9  and  C_10
REMARK    9  A    between atoms: C_13  and  C_14
REMARK                            x       y       z     vdW  Elec       q    Type
REMARK                         _______ _______ _______ _____ _____    ______ ____
ROOT
ATOM      1  C   UNL     1       5.117   3.770  18.329  0.00  0.00    +0.000 A 
ATOM      2  N   UNL     1       3.872   4.050  18.127  0.00  0.00    +0.000 NA
ATOM      3  C   UNL     1       2.924   3.615  19.065  0.00  0.00    +0.000 A 
ATOM      4  C   UNL     1       1.591   4.036  18.926  0.00  0.00    +0.000 A 
ATOM      5  C   UNL     1       1.149   4.904  17.779  0.00  0.00    +0.000 C 
ATOM      6  C   UNL     1       0.652   3.680  19.907  0.00  0.00    +0.000 A 
ATOM      7  C   UNL     1       1.026   2.907  21.008  0.00  0.00    +0.000 A 
ATOM      8  C   UNL     1       2.344   2.474  21.140  0.00  0.00    +0.000 A 
ATOM      9  C   UNL     1       3.284   2.839  20.173  0.00  0.00    +0.000 A 
ATOM     10  C   UNL     1       4.712   2.471  20.317  0.00  0.00    +0.000 A 
ATOM     11  O   UNL     1       5.112   1.747  21.216  0.00  0.00    +0.000 OA
ATOM     12  N   UNL     1       5.558   3.018  19.383  0.00  0.00    +0.000 N 
ATOM     13  H   UNL     1       6.535   2.773  19.445  0.00  0.00    +0.000 HD
ENDROOT
BRANCH   1  14
ATOM     14  C   UNL     1       6.164   4.356  17.394  0.00  0.00    +0.000 C 
BRANCH  14  15
ATOM     15  N   UNL     1       5.935   5.792  17.087  0.00  0.00    +0.000 NA
BRANCH  15  17
ATOM     16  C   UNL     1       7.820   6.313  18.726  0.00  0.00    +0.000 C 
ATOM     17  C   UNL     1       7.198   6.537  17.350  0.00  0.00    +0.000 C 
ENDBRANCH  15  17
BRANCH  15  18
ATOM     18  C   UNL     1       5.544   5.927  15.653  0.00  0.00    +0.000 C 
BRANCH  18  19
ATOM     19  C   UNL     1       5.542   4.603  14.871  0.00  0.00    +0.000 C 
BRANCH  19  20
ATOM     20  C   UNL     1       6.670   4.559  13.868  0.00  0.00    +0.000 C 
ATOM     21  O   UNL     1       6.673   3.912  12.836  0.00  0.00    +0.000 OA
BRANCH  20  22
ATOM     22  O   UNL     1       7.709   5.354  14.225  0.00  0.00    +0.000 OA
ATOM     23  H   UNL     1       8.282   4.979  14.920  0.00  0.00    +0.000 HD
ENDBRANCH  20  22
ENDBRANCH  19  20
ENDBRANCH  18  19
ENDBRANCH  15  18
ENDBRANCH  14  15
ENDBRANCH   1  14
TORSDOF 7
ENDMDL
MODEL 7
REMARK VINA RESULT:      -7.0      1.381      2.475
REMARK  Name = 
REMARK  9 active torsions:
REMARK  status: ('A' for Active; 'I' for Inactive)
REMARK    1  A    between atoms: C_1  and  C_2
REMARK    2  A    between atoms: C_2  and  N_3
REMARK    3  A    between atoms: N_3  and  C_4
REMARK    4  A    between atoms: N_3  and  C_9
REMARK    5  A    between atoms: C_4  and  C_5
REMARK    6  A    between atoms: C_5  and  C_6
REMARK    7  A    between atoms: C_6  and  O_8
REMARK    8  A    between atoms: C_9  and  C_10
REMARK    9  A    between atoms: C_13  and  C_14
REMARK                            x       y       z     vdW  Elec       q    Type
REMARK                         _______ _______ _______ _____ _____    ______ ____
ROOT
ATOM      1  C   UNL     1       3.996   5.064  17.334  0.00  0.00    +0.000 A 
ATOM      2  N   UNL     1       3.225   5.541  18.254  0.00  0.00    +0.000 NA
ATOM      3  C   UNL     1       2.578   4.648  19.121  0.00  0.00    +0.000 A 
ATOM      4  C   UNL     1       1.854   5.163  20.208  0.00  0.00    +0.000 A 
ATOM      5  C   UNL     1       1.720   6.644  20.441  0.00  0.00    +0.000 C 
ATOM      6  C   UNL     1       1.276   4.277  21.132  0.00  0.00    +0.000 A 
ATOM      7  C   UNL     1       1.405   2.896  20.974  0.00  0.00    +0.000 A 
ATOM      8  C   UNL     1       2.111   2.381  19.887  0.00  0.00    +0.000 A 
ATOM      9  C   UNL     1       2.699   3.260  18.976  0.00  0.00    +0.000 A 
ATOM     10  C   UNL     1       3.526   2.759  17.854  0.00  0.00    +0.000 A 
ATOM     11  O   UNL     1       3.641   1.567  17.609  0.00  0.00    +0.000 OA
ATOM     12  N   UNL     1       4.172   3.725  17.120  0.00  0.00    +0.000 N 
ATOM     13  H   UNL     1       4.731   3.414  16.339  0.00  0.00    +0.000 HD
ENDROOT
BRANCH   1  14
ATOM     14  C   UNL     1       4.810   6.026  16.483  0.00  0.00    +0.000 C 
BRANCH  14  15
ATOM     15  N   UNL     1       6.248   5.663  16.402  0.00  0.00    +0.000 NA
BRANCH  15  17
ATOM     16  C   UNL     1       6.269   3.928  14.531  0.00  0.00    +0.000 C 
ATOM     17  C   UNL     1       6.577   5.353  14.983  0.00  0.00    +0.000 C 
ENDBRANCH  15  17
BRANCH  15  18
ATOM     18  C   UNL     1       7.070   6.812  16.884  0.00  0.00    +0.000 C 
BRANCH  18  19
ATOM     19  C   UNL     1       7.675   6.611  18.284  0.00  0.00    +0.000 C 
BRANCH  19  20
ATOM     20  C   UNL     1       7.341   5.245  18.831  0.00  0.00    +0.000 C 
ATOM     21  O   UNL     1       6.598   5.023  19.771  0.00  0.00    +0.000 OA
BRANCH  20  22
ATOM     22  O   UNL     1       7.951   4.249  18.142  0.00  0.00    +0.000 OA
ATOM     23  H   UNL     1       7.644   3.353  18.374  0.00  0.00    +0.000 HD
ENDBRANCH  20  22
ENDBRANCH  19  20
ENDBRANCH  18  19
ENDBRANCH  15  18
ENDBRANCH  14  15
ENDBRANCH   1  14
TORSDOF 7
ENDMDL
MODEL 8
REMARK VINA RESULT:      -6.8      1.244      1.367
REMARK  Name = 
REMARK  9 active torsions:
REMARK  status: ('A' for Active; 'I' for Inactive)
REMARK    1  A    between atoms: C_1  and  C_2
REMARK    2  A    between atoms: C_2  and  N_3
REMARK    3  A    between atoms: N_3  and  C_4
REMARK    4  A    between atoms: N_3  and  C_9
REMARK    5  A    between atoms: C_4  and  C_5
REMARK    6  A    between atoms: C_5  and  C_6
REMARK    7  A    between atoms: C_6  and  O_8
REMARK    8  A    between atoms: C_9  and  C_10
REMARK    9  A    between atoms: C_13  and  C_14
REMARK                            x       y       z     vdW  Elec       q    Type
REMARK                         _______ _______ _______ _____ _____    ______ ____
ROOT
ATOM      1  C   UNL     1       3.998   5.770  17.741  0.00  0.00    +0.000 A 
ATOM      2  N   UNL     1       3.852   4.501  17.931  0.00  0.00    +0.000 NA
ATOM      3  C   UNL     1       2.938   4.066  18.901  0.00  0.00    +0.000 A 
ATOM      4  C   UNL     1       2.671   2.691  19.013  0.00  0.00    +0.000 A 
ATOM      5  C   UNL     1       3.370   1.675  18.151  0.00  0.00    +0.000 C 
ATOM      6  C   UNL     1       1.692   2.252  19.920  0.00  0.00    +0.000 A 
ATOM      7  C   UNL     1       0.993   3.163  20.714  0.00  0.00    +0.000 A 
ATOM      8  C   UNL     1       1.267   4.527  20.616  0.00  0.00    +0.000 A 
ATOM      9  C   UNL     1       2.229   4.967  19.705  0.00  0.00    +0.000 A 
ATOM     10  C   UNL     1       2.493   6.412  19.509  0.00  0.00    +0.000 A 
ATOM     11  O   UNL     1       1.970   7.271  20.204  0.00  0.00    +0.000 OA
ATOM     12  N   UNL     1       3.349   6.720  18.480  0.00  0.00    +0.000 N 
ATOM     13  H   UNL     1       3.560   7.697  18.332  0.00  0.00    +0.000 HD
ENDROOT
BRANCH   1  14
ATOM     14  C   UNL     1       4.881   6.247  16.598  0.00  0.00    +0.000 C 
BRANCH  14  15
ATOM     15  N   UNL     1       5.812   5.200  16.103  0.00  0.00    +0.000 NA
BRANCH  15  17
ATOM     16  C   UNL     1       6.081   3.842  13.959  0.00  0.00    +0.000 C 
ATOM     17  C   UNL     1       5.747   5.179  14.615  0.00  0.00    +0.000 C 
ENDBRANCH  15  17
BRANCH  15  18
ATOM     18  C   UNL     1       7.197   5.524  16.556  0.00  0.00    +0.000 C 
BRANCH  18  19
ATOM     19  C   UNL     1       7.280   6.063  17.994  0.00  0.00    +0.000 C 
BRANCH  19  20
ATOM     20  C   UNL     1       7.880   7.448  18.024  0.00  0.00    +0.000 C 
ATOM     21  O   UNL     1       7.641   8.339  17.226  0.00  0.00    +0.000 OA
BRANCH  20  22
ATOM     22  O   UNL     1       8.723   7.623  19.071  0.00  0.00    +0.000 OA
ATOM     23  H   UNL     1       9.553   7.114  19.008  0.00  0.00    +0.000 HD
ENDBRANCH  20  22
ENDBRANCH  19  20
ENDBRANCH  18  19
ENDBRANCH  15  18
ENDBRANCH  14  15
ENDBRANCH   1  14
TORSDOF 7
ENDMDL
MODEL 9
REMARK VINA RESULT:      -6.8      1.918      2.919
REMARK  Name = 
REMARK  9 active torsions:
REMARK  status: ('A' for Active; 'I' for Inactive)
REMARK    1  A    between atoms: C_1  and  C_2
REMARK    2  A    between atoms: C_2  and  N_3
REMARK    3  A    between atoms: N_3  and  C_4
REMARK    4  A    between atoms: N_3  and  C_9
REMARK    5  A    between atoms: C_4  and  C_5
REMARK    6  A    between atoms: C_5  and  C_6
REMARK    7  A    between atoms: C_6  and  O_8
REMARK    8  A    between atoms: C_9  and  C_10
REMARK    9  A    between atoms: C_13  and  C_14
REMARK                            x       y       z     vdW  Elec       q    Type
REMARK                         _______ _______ _______ _____ _____    ______ ____
ROOT
ATOM      1  C   UNL     1       5.093   4.976  19.371  0.00  0.00    +0.000 A 
ATOM      2  N   UNL     1       4.724   3.755  19.167  0.00  0.00    +0.000 NA
ATOM      3  C   UNL     1       3.356   3.449  19.208  0.00  0.00    +0.000 A 
ATOM      4  C   UNL     1       2.939   2.157  18.848  0.00  0.00    +0.000 A 
ATOM      5  C   UNL     1       3.923   1.086  18.461  0.00  0.00    +0.000 C 
ATOM      6  C   UNL     1       1.567   1.865  18.801  0.00  0.00    +0.000 A 
ATOM      7  C   UNL     1       0.617   2.839  19.117  0.00  0.00    +0.000 A 
ATOM      8  C   UNL     1       1.029   4.118  19.490  0.00  0.00    +0.000 A 
ATOM      9  C   UNL     1       2.393   4.415  19.523  0.00  0.00    +0.000 A 
ATOM     10  C   UNL     1       2.870   5.782  19.834  0.00  0.00    +0.000 A 
ATOM     11  O   UNL     1       2.112   6.676  20.180  0.00  0.00    +0.000 OA
ATOM     12  N   UNL     1       4.222   5.982  19.686  0.00  0.00    +0.000 N 
ATOM     13  H   UNL     1       4.579   6.900  19.906  0.00  0.00    +0.000 HD
ENDROOT
BRANCH   1  14
ATOM     14  C   UNL     1       6.558   5.343  19.190  0.00  0.00    +0.000 C 
BRANCH  14  15
ATOM     15  N   UNL     1       6.812   6.142  17.963  0.00  0.00    +0.000 NA
BRANCH  15  17
ATOM     16  C   UNL     1       7.772   8.478  17.597  0.00  0.00    +0.000 C 
ATOM     17  C   UNL     1       7.913   7.104  18.248  0.00  0.00    +0.000 C 
ENDBRANCH  15  17
BRANCH  15  18
ATOM     18  C   UNL     1       7.204   5.222  16.854  0.00  0.00    +0.000 C 
BRANCH  18  19
ATOM     19  C   UNL     1       6.075   4.928  15.851  0.00  0.00    +0.000 C 
BRANCH  19  20
ATOM     20  C   UNL     1       6.629   4.635  14.478  0.00  0.00    +0.000 C 
ATOM     21  O   UNL     1       6.177   3.820  13.693  0.00  0.00    +0.000 OA
BRANCH  20  22
ATOM     22  O   UNL     1       7.703   5.406  14.179  0.00  0.00    +0.000 OA
ATOM     23  H   UNL     1       8.536   4.911  14.067  0.00  0.00    +0.000 HD
ENDBRANCH  20  22
ENDBRANCH  19  20
ENDBRANCH  18  19
ENDBRANCH  15  18
ENDBRANCH  14  15
ENDBRANCH   1  14
TORSDOF 7
ENDMDL
