MODEL 1
REMARK VINA RESULT:      -6.8      0.000      0.000
REMARK  Name = 
REMARK  10 active torsions:
REMARK  status: ('A' for Active; 'I' for Inactive)
REMARK    1  A    between atoms: C_1  and  C_2
REMARK    2  A    between atoms: C_3  and  C_4
REMARK    3  A    between atoms: C_5  and  C_6
REMARK    4  A    between atoms: C_7  and  S_8
REMARK    5  A    between atoms: S_8  and  N_11
REMARK    6  A    between atoms: N_11  and  C_12
REMARK    7  A    between atoms: C_12  and  C_13
REMARK    8  A    between atoms: C_13  and  C_14
REMARK    9  A    between atoms: C_20  and  C_21
REMARK   10  A    between atoms: C_22  and  C_23
REMARK                            x       y       z     vdW  Elec       q    Type
REMARK                         _______ _______ _______ _____ _____    ______ ____
ROOT
ATOM      1  S   UNL     1       1.212   9.596  18.305  0.00  0.00    +0.000 S 
ATOM      2  O   UNL     1       0.346   9.106  17.255  0.00  0.00    +0.000 OA
ATOM      3  O   UNL     1       2.223  10.574  17.983  0.00  0.00    +0.000 OA
ENDROOT
BRANCH   1  10
ATOM      4  C   UNL     1      -1.734  11.858  23.260  0.00  0.00    +0.000 C 
ATOM      5  C   UNL     1      -1.082  11.289  22.014  0.00  0.00    +0.000 A 
ATOM      6  C   UNL     1      -1.290  11.840  20.729  0.00  0.00    +0.000 A 
ATOM      7  C   UNL     1      -2.242  12.999  20.509  0.00  0.00    +0.000 C 
ATOM      8  C   UNL     1      -0.596  11.297  19.603  0.00  0.00    +0.000 A 
ATOM      9  C   UNL     1      -0.782  11.959  18.247  0.00  0.00    +0.000 C 
ATOM     10  C   UNL     1       0.280  10.168  19.768  0.00  0.00    +0.000 A 
ATOM     11  C   UNL     1       0.418   9.555  21.045  0.00  0.00    +0.000 A 
ATOM     12  C   UNL     1       1.224   8.309  21.333  0.00  0.00    +0.000 C 
ATOM     13  C   UNL     1      -0.247  10.145  22.166  0.00  0.00    +0.000 A 
ATOM     14  C   UNL     1      -0.103   9.559  23.566  0.00  0.00    +0.000 C 
ENDBRANCH   1  10
BRANCH   1  15
ATOM     15  N   UNL     1       2.023   8.235  18.880  0.00  0.00    +0.000 NA
ATOM     16  H   UNL     1       1.530   7.764  19.634  0.00  0.00    +0.000 HD
BRANCH  15  17
ATOM     17  C   UNL     1       2.905   7.440  18.020  0.00  0.00    +0.000 C 
BRANCH  17  18
ATOM     18  C   UNL     1       3.597   6.283  18.738  0.00  0.00    +0.000 C 
BRANCH  18  19
ATOM     19  C   UNL     1       2.626   5.182  19.068  0.00  0.00    +0.000 A 
ATOM     20  C   UNL     1       2.053   4.413  18.048  0.00  0.00    +0.000 A 
ATOM     21  C   UNL     1       1.148   3.424  18.394  0.00  0.00    +0.000 A 
ATOM     22  N   UNL     1       0.778   3.158  19.662  0.00  0.00    +0.000 NA
ATOM     23  C   UNL     1       1.342   3.911  20.631  0.00  0.00    +0.000 A 
ATOM     24  C   UNL     1       2.258   4.922  20.389  0.00  0.00    +0.000 A 
ENDBRANCH  18  19
ENDBRANCH  17  18
ENDBRANCH  15  17
ENDBRANCH   1  15
TORSDOF 5
ENDMDL
MODEL 2
REMARK VINA RESULT:      -6.5      4.585      8.305
REMARK  Name = 
REMARK  10 active torsions:
REMARK  status: ('A' for Active; 'I' for Inactive)
REMARK    1  A    between atoms: C_1  and  C_2
REMARK    2  A    between atoms: C_3  and  C_4
REMARK    3  A    between atoms: C_5  and  C_6
REMARK    4  A    between atoms: C_7  and  S_8
REMARK    5  A    between atoms: S_8  and  N_11
REMARK    6  A    between atoms: N_11  and  C_12
REMARK    7  A    between atoms: C_12  and  C_13
REMARK    8  A    between atoms: C_13  and  C_14
REMARK    9  A    between atoms: C_20  and  C_21
REMARK   10  A    between atoms: C_22  and  C_23
REMARK                            x       y       z     vdW  Elec       q    Type
REMARK                         _______ _______ _______ _____ _____    ______ ____
ROOT
ATOM      1  S   UNL     1       4.830   6.694  16.911  0.00  0.00    +0.000 S 
ATOM      2  O   UNL     1       5.091   6.287  15.549  0.00  0.00    +0.000 OA
ATOM      3  O   UNL     1       4.215   7.976  17.156  0.00  0.00    +0.000 OA
ENDROOT
BRANCH   1  10
ATOM      4  C   UNL     1       1.595   2.275  19.804  0.00  0.00    +0.000 C 
ATOM      5  C   UNL     1       2.453   3.327  19.127  0.00  0.00    +0.000 A 
ATOM      6  C   UNL     1       3.470   2.998  18.202  0.00  0.00    +0.000 A 
ATOM      7  C   UNL     1       3.815   1.556  17.884  0.00  0.00    +0.000 C 
ATOM      8  C   UNL     1       4.201   4.040  17.549  0.00  0.00    +0.000 A 
ATOM      9  C   UNL     1       5.235   3.655  16.504  0.00  0.00    +0.000 C 
ATOM     10  C   UNL     1       3.931   5.418  17.861  0.00  0.00    +0.000 A 
ATOM     11  C   UNL     1       2.972   5.747  18.859  0.00  0.00    +0.000 A 
ATOM     12  C   UNL     1       2.667   7.144  19.350  0.00  0.00    +0.000 C 
ATOM     13  C   UNL     1       2.218   4.692  19.463  0.00  0.00    +0.000 A 
ATOM     14  C   UNL     1       1.148   4.985  20.508  0.00  0.00    +0.000 C 
ENDBRANCH   1  10
BRANCH   1  15
ATOM     15  N   UNL     1       6.338   6.731  17.660  0.00  0.00    +0.000 NA
ATOM     16  H   UNL     1       6.679   5.809  17.921  0.00  0.00    +0.000 HD
BRANCH  15  17
ATOM     17  C   UNL     1       7.321   7.780  17.367  0.00  0.00    +0.000 C 
BRANCH  17  18
ATOM     18  C   UNL     1       8.278   8.075  18.521  0.00  0.00    +0.000 C 
BRANCH  18  19
ATOM     19  C   UNL     1       8.646   9.533  18.569  0.00  0.00    +0.000 A 
ATOM     20  C   UNL     1       9.443  10.028  19.608  0.00  0.00    +0.000 A 
ATOM     21  C   UNL     1       9.741  11.381  19.625  0.00  0.00    +0.000 A 
ATOM     22  N   UNL     1       9.303  12.257  18.700  0.00  0.00    +0.000 NA
ATOM     23  C   UNL     1       8.536  11.758  17.707  0.00  0.00    +0.000 A 
ATOM     24  C   UNL     1       8.183  10.423  17.599  0.00  0.00    +0.000 A 
ENDBRANCH  18  19
ENDBRANCH  17  18
ENDBRANCH  15  17
ENDBRANCH   1  15
TORSDOF 5
ENDMDL
MODEL 3
REMARK VINA RESULT:      -6.5      0.298      2.579
REMARK  Name = 
REMARK  10 active torsions:
REMARK  status: ('A' for Active; 'I' for Inactive)
REMARK    1  A    between atoms: C_1  and  C_2
REMARK    2  A    between atoms: C_3  and  C_4
REMARK    3  A    between atoms: C_5  and  C_6
REMARK    4  A    between atoms: C_7  and  S_8
REMARK    5  A    between atoms: S_8  and  N_11
REMARK    6  A    between atoms: N_11  and  C_12
REMARK    7  A    between atoms: C_12  and  C_13
REMARK    8  A    between atoms: C_13  and  C_14
REMARK    9  A    between atoms: C_20  and  C_21
REMARK   10  A    between atoms: C_22  and  C_23
REMARK                            x       y       z     vdW  Elec       q    Type
REMARK                         _______ _______ _______ _____ _____    ______ ____
ROOT
ATOM      1  S   UNL     1       1.221   9.814  18.412  0.00  0.00    +0.000 S 
ATOM      2  O   UNL     1       0.315   9.323  17.398  0.00  0.00    +0.000 OA
ATOM      3  O   UNL     1       2.269  10.730  18.035  0.00  0.00    +0.000 OA
ENDROOT
BRANCH   1  10
ATOM      4  C   UNL     1      -1.989  11.788  23.327  0.00  0.00    +0.000 C 
ATOM      5  C   UNL     1      -1.137  11.317  22.164  0.00  0.00    +0.000 A 
ATOM      6  C   UNL     1      -0.268  10.205  22.260  0.00  0.00    +0.000 A 
ATOM      7  C   UNL     1      -0.083   9.455  23.564  0.00  0.00    +0.000 C 
ATOM      8  C   UNL     1       0.460   9.772  21.108  0.00  0.00    +0.000 A 
ATOM      9  C   UNL     1       1.326   8.528  21.223  0.00  0.00    +0.000 C 
ATOM     10  C   UNL     1       0.343  10.487  19.866  0.00  0.00    +0.000 A 
ATOM     11  C   UNL     1      -0.459  11.661  19.793  0.00  0.00    +0.000 A 
ATOM     12  C   UNL     1      -0.588  12.558  18.583  0.00  0.00    +0.000 C 
ATOM     13  C   UNL     1      -1.217  12.048  20.943  0.00  0.00    +0.000 A 
ATOM     14  C   UNL     1      -2.126  13.270  20.914  0.00  0.00    +0.000 C 
ENDBRANCH   1  10
BRANCH   1  15
ATOM     15  N   UNL     1       1.980   8.442  19.030  0.00  0.00    +0.000 NA
ATOM     16  H   UNL     1       1.552   8.099  19.887  0.00  0.00    +0.000 HD
BRANCH  15  17
ATOM     17  C   UNL     1       2.665   7.480  18.160  0.00  0.00    +0.000 C 
BRANCH  17  18
ATOM     18  C   UNL     1       3.410   6.380  18.914  0.00  0.00    +0.000 C 
BRANCH  18  19
ATOM     19  C   UNL     1       2.502   5.224  19.236  0.00  0.00    +0.000 A 
ATOM     20  C   UNL     1       2.210   4.902  20.567  0.00  0.00    +0.000 A 
ATOM     21  C   UNL     1       1.387   3.818  20.820  0.00  0.00    +0.000 A 
ATOM     22  N   UNL     1       0.850   3.044  19.856  0.00  0.00    +0.000 NA
ATOM     23  C   UNL     1       1.144   3.372  18.580  0.00  0.00    +0.000 A 
ATOM     24  C   UNL     1       1.955   4.437  18.222  0.00  0.00    +0.000 A 
ENDBRANCH  18  19
ENDBRANCH  17  18
ENDBRANCH  15  17
ENDBRANCH   1  15
TORSDOF 5
ENDMDL
MODEL 4
REMARK VINA RESULT:      -6.4      0.903      1.003
REMARK  Name = 
REMARK  10 active torsions:
REMARK  status: ('A' for Active; 'I' for Inactive)
REMARK    1  A    between atoms: C_1  and  C_2
REMARK    2  A    between atoms: C_3  and  C_4
REMARK    3  A    between atoms: C_5  and  C_6
REMARK    4  A    between atoms: C_7  and  S_8
REMARK    5  A    between atoms: S_8  and  N_11
REMARK    6  A    between atoms: N_11  and  C_12
REMARK    7  A    between atoms: C_12  and  C_13
REMARK    8  A    between atoms: C_13  and  C_14
REMARK    9  A    between atoms: C_20  and  C_21
REMARK   10  A    between atoms: C_22  and  C_23
REMARK                            x       y       z     vdW  Elec       q    Type
REMARK                         _______ _______ _______ _____ _____    ______ ____
ROOT
ATOM      1  S   UNL     1       1.347   9.423  18.381  0.00  0.00    +0.000 S 
ATOM      2  O   UNL     1       0.518   8.885  17.326  0.00  0.00    +0.000 OA
ATOM      3  O   UNL     1       2.359  10.398  18.053  0.00  0.00    +0.000 OA
ENDROOT
BRANCH   1  10
ATOM      4  C   UNL     1      -1.766  11.842  23.157  0.00  0.00    +0.000 C 
ATOM      5  C   UNL     1      -1.072  11.233  21.954  0.00  0.00    +0.000 A 
ATOM      6  C   UNL     1      -1.243  11.736  20.643  0.00  0.00    +0.000 A 
ATOM      7  C   UNL     1      -2.194  12.879  20.352  0.00  0.00    +0.000 C 
ATOM      8  C   UNL     1      -0.511  11.157  19.560  0.00  0.00    +0.000 A 
ATOM      9  C   UNL     1      -0.658  11.768  18.176  0.00  0.00    +0.000 C 
ATOM     10  C   UNL     1       0.366  10.041  19.793  0.00  0.00    +0.000 A 
ATOM     11  C   UNL     1       0.468   9.475  21.095  0.00  0.00    +0.000 A 
ATOM     12  C   UNL     1       1.272   8.246  21.454  0.00  0.00    +0.000 C 
ATOM     13  C   UNL     1      -0.235  10.101  22.173  0.00  0.00    +0.000 A 
ATOM     14  C   UNL     1      -0.132   9.567  23.597  0.00  0.00    +0.000 C 
ENDBRANCH   1  10
BRANCH   1  15
ATOM     15  N   UNL     1       2.153   8.094  19.033  0.00  0.00    +0.000 NA
ATOM     16  H   UNL     1       1.759   7.780  19.917  0.00  0.00    +0.000 HD
BRANCH  15  17
ATOM     17  C   UNL     1       2.830   7.109  18.183  0.00  0.00    +0.000 C 
BRANCH  17  18
ATOM     18  C   UNL     1       2.044   5.814  17.983  0.00  0.00    +0.000 C 
BRANCH  18  19
ATOM     19  C   UNL     1       2.359   4.809  19.058  0.00  0.00    +0.000 A 
ATOM     20  C   UNL     1       3.394   3.883  18.879  0.00  0.00    +0.000 A 
ATOM     21  C   UNL     1       3.637   2.962  19.884  0.00  0.00    +0.000 A 
ATOM     22  N   UNL     1       2.930   2.898  21.029  0.00  0.00    +0.000 NA
ATOM     23  C   UNL     1       1.937   3.800  21.181  0.00  0.00    +0.000 A 
ATOM     24  C   UNL     1       1.616   4.762  20.237  0.00  0.00    +0.000 A 
ENDBRANCH  18  19
ENDBRANCH  17  18
ENDBRANCH  15  17
ENDBRANCH   1  15
TORSDOF 5
ENDMDL
MODEL 5
REMARK VINA RESULT:      -6.4      4.557      8.087
REMARK  Name = 
REMARK  10 active torsions:
REMARK  status: ('A' for Active; 'I' for Inactive)
REMARK    1  A    between atoms: C_1  and  C_2
REMARK    2  A    between atoms: C_3  and  C_4
REMARK    3  A    between atoms: C_5  and  C_6
REMARK    4  A    between atoms: C_7  and  S_8
REMARK    5  A    between atoms: S_8  and  N_11
REMARK    6  A    between atoms: N_11  and  C_12
REMARK    7  A    between atoms: C_12  and  C_13
REMARK    8  A    between atoms: C_13  and  C_14
REMARK    9  A    between atoms: C_20  and  C_21
REMARK   10  A    between atoms: C_22  and  C_23
REMARK                            x       y       z     vdW  Elec       q    Type
REMARK                         _______ _______ _______ _____ _____    ______ ____
ROOT
ATOM      1  S   UNL     1       4.810   6.880  16.952  0.00  0.00    +0.000 S 
ATOM      2  O   UNL     1       5.001   6.662  15.535  0.00  0.00    +0.000 OA
ATOM      3  O   UNL     1       4.247   8.130  17.401  0.00  0.00    +0.000 OA
ENDROOT
BRANCH   1  10
ATOM      4  C   UNL     1       1.955   2.311  20.005  0.00  0.00    +0.000 C 
ATOM      5  C   UNL     1       2.584   3.453  19.230  0.00  0.00    +0.000 A 
ATOM      6  C   UNL     1       2.257   4.807  19.473  0.00  0.00    +0.000 A 
ATOM      7  C   UNL     1       1.195   5.196  20.482  0.00  0.00    +0.000 C 
ATOM      8  C   UNL     1       2.933   5.841  18.753  0.00  0.00    +0.000 A 
ATOM      9  C   UNL     1       2.613   7.288  19.090  0.00  0.00    +0.000 C 
ATOM     10  C   UNL     1       3.914   5.506  17.756  0.00  0.00    +0.000 A 
ATOM     11  C   UNL     1       4.177   4.142  17.446  0.00  0.00    +0.000 A 
ATOM     12  C   UNL     1       5.106   3.657  16.356  0.00  0.00    +0.000 C 
ATOM     13  C   UNL     1       3.526   3.125  18.212  0.00  0.00    +0.000 A 
ATOM     14  C   UNL     1       3.799   1.648  17.956  0.00  0.00    +0.000 C 
ENDBRANCH   1  10
BRANCH   1  15
ATOM     15  N   UNL     1       6.350   6.775  17.627  0.00  0.00    +0.000 NA
ATOM     16  H   UNL     1       6.633   5.820  17.833  0.00  0.00    +0.000 HD
BRANCH  15  17
ATOM     17  C   UNL     1       7.393   7.762  17.331  0.00  0.00    +0.000 C 
BRANCH  17  18
ATOM     18  C   UNL     1       8.327   8.053  18.505  0.00  0.00    +0.000 C 
BRANCH  18  19
ATOM     19  C   UNL     1       8.663   9.517  18.590  0.00  0.00    +0.000 A 
ATOM     20  C   UNL     1       8.204  10.407  17.611  0.00  0.00    +0.000 A 
ATOM     21  C   UNL     1       8.553  11.742  17.716  0.00  0.00    +0.000 A 
ATOM     22  N   UNL     1       9.319  12.241  18.706  0.00  0.00    +0.000 NA
ATOM     23  C   UNL     1       9.751  11.366  19.639  0.00  0.00    +0.000 A 
ATOM     24  C   UNL     1       9.456  10.012  19.625  0.00  0.00    +0.000 A 
ENDBRANCH  18  19
ENDBRANCH  17  18
ENDBRANCH  15  17
ENDBRANCH   1  15
TORSDOF 5
ENDMDL
MODEL 6
REMARK VINA RESULT:      -6.4      1.964      2.857
REMARK  Name = 
REMARK  10 active torsions:
REMARK  status: ('A' for Active; 'I' for Inactive)
REMARK    1  A    between atoms: C_1  and  C_2
REMARK    2  A    between atoms: C_3  and  C_4
REMARK    3  A    between atoms: C_5  and  C_6
REMARK    4  A    between atoms: C_7  and  S_8
REMARK    5  A    between atoms: S_8  and  N_11
REMARK    6  A    between atoms: N_11  and  C_12
REMARK    7  A    between atoms: C_12  and  C_13
REMARK    8  A    between atoms: C_13  and  C_14
REMARK    9  A    between atoms: C_20  and  C_21
REMARK   10  A    between atoms: C_22  and  C_23
REMARK                            x       y       z     vdW  Elec       q    Type
REMARK                         _______ _______ _______ _____ _____    ______ ____
ROOT
ATOM      1  S   UNL     1       1.193   9.650  18.211  0.00  0.00    +0.000 S 
ATOM      2  O   UNL     1       0.312   9.143  17.182  0.00  0.00    +0.000 OA
ATOM      3  O   UNL     1       2.155  10.671  17.872  0.00  0.00    +0.000 OA
ENDROOT
BRANCH   1  10
ATOM      4  C   UNL     1      -1.663  11.722  23.301  0.00  0.00    +0.000 C 
ATOM      5  C   UNL     1      -1.034  11.199  22.023  0.00  0.00    +0.000 A 
ATOM      6  C   UNL     1      -1.279  11.787  20.760  0.00  0.00    +0.000 A 
ATOM      7  C   UNL     1      -2.249  12.940  20.599  0.00  0.00    +0.000 C 
ATOM      8  C   UNL     1      -0.604  11.287  19.602  0.00  0.00    +0.000 A 
ATOM      9  C   UNL     1      -0.830  11.988  18.273  0.00  0.00    +0.000 C 
ATOM     10  C   UNL     1       0.289  10.165  19.712  0.00  0.00    +0.000 A 
ATOM     11  C   UNL     1       0.464   9.515  20.966  0.00  0.00    +0.000 A 
ATOM     12  C   UNL     1       1.291   8.271  21.197  0.00  0.00    +0.000 C 
ATOM     13  C   UNL     1      -0.181  10.062  22.120  0.00  0.00    +0.000 A 
ATOM     14  C   UNL     1       0.003   9.435  23.497  0.00  0.00    +0.000 C 
ENDBRANCH   1  10
BRANCH   1  15
ATOM     15  N   UNL     1       2.073   8.313  18.738  0.00  0.00    +0.000 NA
ATOM     16  H   UNL     1       1.523   7.668  19.300  0.00  0.00    +0.000 HD
BRANCH  15  17
ATOM     17  C   UNL     1       3.203   7.781  17.970  0.00  0.00    +0.000 C 
BRANCH  17  18
ATOM     18  C   UNL     1       3.351   6.263  18.054  0.00  0.00    +0.000 C 
BRANCH  18  19
ATOM     19  C   UNL     1       4.724   5.821  17.625  0.00  0.00    +0.000 A 
ATOM     20  C   UNL     1       5.675   5.438  18.579  0.00  0.00    +0.000 A 
ATOM     21  C   UNL     1       6.933   5.058  18.143  0.00  0.00    +0.000 A 
ATOM     22  N   UNL     1       7.303   5.040  16.847  0.00  0.00    +0.000 NA
ATOM     23  C   UNL     1       6.372   5.413  15.944  0.00  0.00    +0.000 A 
ATOM     24  C   UNL     1       5.086   5.808  16.278  0.00  0.00    +0.000 A 
ENDBRANCH  18  19
ENDBRANCH  17  18
ENDBRANCH  15  17
ENDBRANCH   1  15
TORSDOF 5
ENDMDL
MODEL 7
REMARK VINA RESULT:      -6.3      4.970      8.523
REMARK  Name = 
REMARK  10 active torsions:
REMARK  status: ('A' for Active; 'I' for Inactive)
REMARK    1  A    between atoms: C_1  and  C_2
REMARK    2  A    between atoms: C_3  and  C_4
REMARK    3  A    between atoms: C_5  and  C_6
REMARK    4  A    between atoms: C_7  and  S_8
REMARK    5  A    between atoms: S_8  and  N_11
REMARK    6  A    between atoms: N_11  and  C_12
REMARK    7  A    between atoms: C_12  and  C_13
REMARK    8  A    between atoms: C_13  and  C_14
REMARK    9  A    between atoms: C_20  and  C_21
REMARK   10  A    between atoms: C_22  and  C_23
REMARK                            x       y       z     vdW  Elec       q    Type
REMARK                         _______ _______ _______ _____ _____    ______ ____
ROOT
ATOM      1  S   UNL     1       5.817   5.975  15.884  0.00  0.00    +0.000 S 
ATOM      2  O   UNL     1       6.394   4.971  15.018  0.00  0.00    +0.000 OA
ATOM      3  O   UNL     1       5.267   7.175  15.300  0.00  0.00    +0.000 OA
ENDROOT
BRANCH   1  10
ATOM      4  C   UNL     1       1.487   3.467  19.533  0.00  0.00    +0.000 C 
ATOM      5  C   UNL     1       2.602   4.046  18.683  0.00  0.00    +0.000 A 
ATOM      6  C   UNL     1       3.516   3.233  17.973  0.00  0.00    +0.000 A 
ATOM      7  C   UNL     1       3.479   1.722  18.078  0.00  0.00    +0.000 C 
ATOM      8  C   UNL     1       4.505   3.841  17.138  0.00  0.00    +0.000 A 
ATOM      9  C   UNL     1       5.424   2.940  16.329  0.00  0.00    +0.000 C 
ATOM     10  C   UNL     1       4.598   5.274  17.050  0.00  0.00    +0.000 A 
ATOM     11  C   UNL     1       3.739   6.092  17.836  0.00  0.00    +0.000 A 
ATOM     12  C   UNL     1       3.799   7.601  17.913  0.00  0.00    +0.000 C 
ATOM     13  C   UNL     1       2.725   5.464  18.626  0.00  0.00    +0.000 A 
ATOM     14  C   UNL     1       1.748   6.289  19.455  0.00  0.00    +0.000 C 
ENDBRANCH   1  10
BRANCH   1  15
ATOM     15  N   UNL     1       7.073   6.464  16.896  0.00  0.00    +0.000 NA
ATOM     16  H   UNL     1       7.865   5.825  16.888  0.00  0.00    +0.000 HD
BRANCH  15  17
ATOM     17  C   UNL     1       7.320   7.878  17.192  0.00  0.00    +0.000 C 
BRANCH  17  18
ATOM     18  C   UNL     1       8.286   8.110  18.353  0.00  0.00    +0.000 C 
BRANCH  18  19
ATOM     19  C   UNL     1       8.647   9.566  18.484  0.00  0.00    +0.000 A 
ATOM     20  C   UNL     1       9.442  10.005  19.549  0.00  0.00    +0.000 A 
ATOM     21  C   UNL     1       9.733  11.356  19.643  0.00  0.00    +0.000 A 
ATOM     22  N   UNL     1       9.289  12.281  18.770  0.00  0.00    +0.000 NA
ATOM     23  C   UNL     1       8.523  11.836  17.750  0.00  0.00    +0.000 A 
ATOM     24  C   UNL     1       8.178  10.506  17.566  0.00  0.00    +0.000 A 
ENDBRANCH  18  19
ENDBRANCH  17  18
ENDBRANCH  15  17
ENDBRANCH   1  15
TORSDOF 5
ENDMDL
MODEL 8
REMARK VINA RESULT:      -6.3      8.481      9.651
REMARK  Name = 
REMARK  10 active torsions:
REMARK  status: ('A' for Active; 'I' for Inactive)
REMARK    1  A    between atoms: C_1  and  C_2
REMARK    2  A    between atoms: C_3  and  C_4
REMARK    3  A    between atoms: C_5  and  C_6
REMARK    4  A    between atoms: C_7  and  S_8
REMARK    5  A    between atoms: S_8  and  N_11
REMARK    6  A    between atoms: N_11  and  C_12
REMARK    7  A    between atoms: C_12  and  C_13
REMARK    8  A    between atoms: C_13  and  C_14
REMARK    9  A    between atoms: C_20  and  C_21
REMARK   10  A    between atoms: C_22  and  C_23
REMARK                            x       y       z     vdW  Elec       q    Type
REMARK                         _______ _______ _______ _____ _____    ______ ____
ROOT
ATOM      1  S   UNL     1      10.390  11.636  19.367  0.00  0.00    +0.000 S 
ATOM      2  O   UNL     1      11.657  11.219  18.809  0.00  0.00    +0.000 OA
ATOM      3  O   UNL     1      10.086  11.314  20.740  0.00  0.00    +0.000 OA
ENDROOT
BRANCH   1  10
ATOM      4  C   UNL     1       8.894  17.554  18.320  0.00  0.00    +0.000 C 
ATOM      5  C   UNL     1       9.289  16.126  18.646  0.00  0.00    +0.000 A 
ATOM      6  C   UNL     1       8.768  15.430  19.761  0.00  0.00    +0.000 A 
ATOM      7  C   UNL     1       7.831  16.100  20.746  0.00  0.00    +0.000 C 
ATOM      8  C   UNL     1       9.132  14.064  19.977  0.00  0.00    +0.000 A 
ATOM      9  C   UNL     1       8.497  13.320  21.141  0.00  0.00    +0.000 C 
ATOM     10  C   UNL     1      10.055  13.410  19.088  0.00  0.00    +0.000 A 
ATOM     11  C   UNL     1      10.650  14.138  18.020  0.00  0.00    +0.000 A 
ATOM     12  C   UNL     1      11.705  13.602  17.079  0.00  0.00    +0.000 C 
ATOM     13  C   UNL     1      10.235  15.488  17.793  0.00  0.00    +0.000 A 
ATOM     14  C   UNL     1      10.806  16.305  16.639  0.00  0.00    +0.000 C 
ENDBRANCH   1  10
BRANCH   1  15
ATOM     15  N   UNL     1       9.219  10.877  18.423  0.00  0.00    +0.000 NA
ATOM     16  H   UNL     1       9.191  11.220  17.466  0.00  0.00    +0.000 HD
BRANCH  15  17
ATOM     17  C   UNL     1       8.794   9.497  18.682  0.00  0.00    +0.000 C 
BRANCH  17  18
ATOM     18  C   UNL     1       7.976   8.876  17.551  0.00  0.00    +0.000 C 
BRANCH  18  19
ATOM     19  C   UNL     1       7.593   7.455  17.867  0.00  0.00    +0.000 A 
ATOM     20  C   UNL     1       6.594   6.810  17.127  0.00  0.00    +0.000 A 
ATOM     21  C   UNL     1       6.258   5.510  17.464  0.00  0.00    +0.000 A 
ATOM     22  N   UNL     1       6.833   4.825  18.472  0.00  0.00    +0.000 NA
ATOM     23  C   UNL     1       7.793   5.466  19.173  0.00  0.00    +0.000 A 
ATOM     24  C   UNL     1       8.202   6.764  18.913  0.00  0.00    +0.000 A 
ENDBRANCH  18  19
ENDBRANCH  17  18
ENDBRANCH  15  17
ENDBRANCH   1  15
TORSDOF 5
ENDMDL
MODEL 9
REMARK VINA RESULT:      -6.2      2.307      4.015
REMARK  Name = 
REMARK  10 active torsions:
REMARK  status: ('A' for Active; 'I' for Inactive)
REMARK    1  A    between atoms: C_1  and  C_2
REMARK    2  A    between atoms: C_3  and  C_4
REMARK    3  A    between atoms: C_5  and  C_6
REMARK    4  A    between atoms: C_7  and  S_8
REMARK    5  A    between atoms: S_8  and  N_11
REMARK    6  A    between atoms: N_11  and  C_12
REMARK    7  A    between atoms: C_12  and  C_13
REMARK    8  A    between atoms: C_13  and  C_14
REMARK    9  A    between atoms: C_20  and  C_21
REMARK   10  A    between atoms: C_22  and  C_23
REMARK                            x       y       z     vdW  Elec       q    Type
REMARK                         _______ _______ _______ _____ _____    ______ ____
ROOT
ATOM      1  S   UNL     1       0.501  11.584  20.781  0.00  0.00    +0.000 S 
ATOM      2  O   UNL     1       1.632  11.425  19.894  0.00  0.00    +0.000 OA
ATOM      3  O   UNL     1       0.480  12.696  21.700  0.00  0.00    +0.000 OA
ENDROOT
BRANCH   1  10
ATOM      4  C   UNL     1      -4.750  11.577  17.498  0.00  0.00    +0.000 C 
ATOM      5  C   UNL     1      -3.471  11.501  18.309  0.00  0.00    +0.000 A 
ATOM      6  C   UNL     1      -2.347  10.753  17.888  0.00  0.00    +0.000 A 
ATOM      7  C   UNL     1      -2.382   9.918  16.623  0.00  0.00    +0.000 C 
ATOM      8  C   UNL     1      -1.148  10.774  18.666  0.00  0.00    +0.000 A 
ATOM      9  C   UNL     1       0.067  10.022  18.148  0.00  0.00    +0.000 C 
ATOM     10  C   UNL     1      -1.095  11.520  19.895  0.00  0.00    +0.000 A 
ATOM     11  C   UNL     1      -2.255  12.197  20.367  0.00  0.00    +0.000 A 
ATOM     12  C   UNL     1      -2.363  12.929  21.685  0.00  0.00    +0.000 C 
ATOM     13  C   UNL     1      -3.428  12.203  19.548  0.00  0.00    +0.000 A 
ATOM     14  C   UNL     1      -4.687  12.947  19.980  0.00  0.00    +0.000 C 
ENDBRANCH   1  10
BRANCH   1  15
ATOM     15  N   UNL     1       0.472  10.184  21.717  0.00  0.00    +0.000 NA
ATOM     16  H   UNL     1      -0.456   9.951  22.062  0.00  0.00    +0.000 HD
BRANCH  15  17
ATOM     17  C   UNL     1       1.431   9.094  21.507  0.00  0.00    +0.000 C 
BRANCH  17  18
ATOM     18  C   UNL     1       0.783   7.752  21.173  0.00  0.00    +0.000 C 
BRANCH  18  19
ATOM     19  C   UNL     1       1.700   6.890  20.348  0.00  0.00    +0.000 A 
ATOM     20  C   UNL     1       1.929   5.556  20.705  0.00  0.00    +0.000 A 
ATOM     21  C   UNL     1       2.797   4.804  19.930  0.00  0.00    +0.000 A 
ATOM     22  N   UNL     1       3.443   5.283  18.849  0.00  0.00    +0.000 NA
ATOM     23  C   UNL     1       3.207   6.572  18.522  0.00  0.00    +0.000 A 
ATOM     24  C   UNL     1       2.357   7.406  19.231  0.00  0.00    +0.000 A 
ENDBRANCH  18  19
ENDBRANCH  17  18
ENDBRANCH  15  17
ENDBRANCH   1  15
TORSDOF 5
ENDMDL
