MODEL 1
REMARK VINA RESULT:      -8.4      0.000      0.000
REMARK  Name = 
REMARK  4 active torsions:
REMARK  status: ('A' for Active; 'I' for Inactive)
REMARK    1  A    between atoms: C_2  and  C_3
REMARK    2  A    between atoms: C_3  and  S_4
REMARK    3  A    between atoms: S_4  and  C_5
REMARK    4  A    between atoms: N_18  and  C_19
REMARK                            x       y       z     vdW  Elec       q    Type
REMARK                         _______ _______ _______ _____ _____    ______ ____
ROOT
ATOM      1  S   UNL     1       6.763   5.850  18.882  0.00  0.00    +0.000 S 
ENDROOT
BRANCH   1   2
ATOM      2  C   UNL     1       5.187   5.151  18.498  0.00  0.00    +0.000 C 
ATOM      3  N   UNL     1       4.907   3.997  19.028  0.00  0.00    +0.000 NA
ATOM      4  C   UNL     1       3.601   3.503  18.873  0.00  0.00    +0.000 A 
ATOM      5  C   UNL     1       3.305   2.216  19.323  0.00  0.00    +0.000 A 
ATOM      6  C   UNL     1       2.013   1.695  19.211  0.00  0.00    +0.000 A 
ATOM      7  C   UNL     1       0.988   2.470  18.674  0.00  0.00    +0.000 A 
ATOM      8  C   UNL     1       1.264   3.760  18.233  0.00  0.00    +0.000 A 
ATOM      9  C   UNL     1       2.572   4.272  18.324  0.00  0.00    +0.000 A 
ATOM     10  C   UNL     1       2.893   5.621  17.757  0.00  0.00    +0.000 C 
ATOM     11  C   UNL     1       2.364   6.834  18.502  0.00  0.00    +0.000 C 
ATOM     12  C   UNL     1       3.331   7.815  17.919  0.00  0.00    +0.000 C 
ATOM     13  N   UNL     1       4.461   7.303  17.546  0.00  0.00    +0.000 NA
ATOM     14  N   UNL     1       4.326   5.927  17.727  0.00  0.00    +0.000 N 
ENDBRANCH   1   2
BRANCH   1  15
ATOM     15  C   UNL     1       7.292   6.463  17.266  0.00  0.00    +0.000 C 
BRANCH  15  17
ATOM     16  O   UNL     1       7.835   4.274  16.465  0.00  0.00    +0.000 OA
ATOM     17  C   UNL     1       7.273   5.344  16.240  0.00  0.00    +0.000 C 
ATOM     18  N   UNL     1       6.557   5.643  15.091  0.00  0.00    +0.000 N 
ATOM     19  H   UNL     1       6.327   6.620  14.930  0.00  0.00    +0.000 HD
BRANCH  18  20
ATOM     20  C   UNL     1       6.345   4.773  13.990  0.00  0.00    +0.000 A 
ATOM     21  C   UNL     1       5.225   3.937  13.891  0.00  0.00    +0.000 A 
ATOM     22  C   UNL     1       5.105   3.016  12.846  0.00  0.00    +0.000 A 
ATOM     23  C   UNL     1       6.092   2.955  11.878  0.00  0.00    +0.000 A 
ATOM     24  F   UNL     1       5.984   2.051  10.893  0.00  0.00    +0.000 F 
ATOM     25  C   UNL     1       7.179   3.813  11.905  0.00  0.00    +0.000 A 
ATOM     26  C   UNL     1       7.297   4.728  12.953  0.00  0.00    +0.000 A 
ATOM     27 CL   UNL     1       8.655   5.799  12.934  0.00  0.00    +0.000 Cl
ENDBRANCH  18  20
ENDBRANCH  15  17
ENDBRANCH   1  15
TORSDOF 4
ENDMDL
MODEL 2
REMARK VINA RESULT:      -8.2      5.251      7.251
REMARK  Name = 
REMARK  4 active torsions:
REMARK  status: ('A' for Active; 'I' for Inactive)
REMARK    1  A    between atoms: C_2  and  C_3
REMARK    2  A    between atoms: C_3  and  S_4
REMARK    3  A    between atoms: S_4  and  C_5
REMARK    4  A    between atoms: N_18  and  C_19
REMARK                            x       y       z     vdW  Elec       q    Type
REMARK                         _______ _______ _______ _____ _____    ______ ____
ROOT
ATOM      1  S   UNL     1       7.983   6.675  18.719  0.00  0.00    +0.000 S 
ENDROOT
BRANCH   1   2
ATOM      2  C   UNL     1       6.590   5.637  18.397  0.00  0.00    +0.000 C 
ATOM      3  N   UNL     1       5.494   5.899  19.047  0.00  0.00    +0.000 NA
ATOM      4  C   UNL     1       4.333   5.197  18.686  0.00  0.00    +0.000 A 
ATOM      5  C   UNL     1       3.174   5.365  19.445  0.00  0.00    +0.000 A 
ATOM      6  C   UNL     1       1.991   4.705  19.105  0.00  0.00    +0.000 A 
ATOM      7  C   UNL     1       1.940   3.889  17.977  0.00  0.00    +0.000 A 
ATOM      8  C   UNL     1       3.083   3.722  17.202  0.00  0.00    +0.000 A 
ATOM      9  C   UNL     1       4.281   4.367  17.563  0.00  0.00    +0.000 A 
ATOM     10  C   UNL     1       5.537   4.108  16.790  0.00  0.00    +0.000 C 
ATOM     11  C   UNL     1       5.633   4.702  15.394  0.00  0.00    +0.000 C 
ATOM     12  C   UNL     1       7.125   4.643  15.298  0.00  0.00    +0.000 C 
ATOM     13  N   UNL     1       7.742   4.695  16.435  0.00  0.00    +0.000 NA
ATOM     14  N   UNL     1       6.741   4.671  17.406  0.00  0.00    +0.000 N 
ENDBRANCH   1   2
BRANCH   1  15
ATOM     15  C   UNL     1       7.807   7.929  17.430  0.00  0.00    +0.000 C 
BRANCH  15  17
ATOM     16  O   UNL     1       7.473  10.296  17.571  0.00  0.00    +0.000 OA
ATOM     17  C   UNL     1       8.081   9.313  17.993  0.00  0.00    +0.000 C 
ATOM     18  N   UNL     1       9.024   9.334  19.009  0.00  0.00    +0.000 N 
ATOM     19  H   UNL     1       9.606   8.508  19.116  0.00  0.00    +0.000 HD
BRANCH  18  20
ATOM     20  C   UNL     1       9.444  10.479  19.734  0.00  0.00    +0.000 A 
ATOM     21  C   UNL     1       9.032  10.734  21.049  0.00  0.00    +0.000 A 
ATOM     22  C   UNL     1       9.379  11.926  21.693  0.00  0.00    +0.000 A 
ATOM     23  C   UNL     1      10.167  12.851  21.031  0.00  0.00    +0.000 A 
ATOM     24  F   UNL     1      10.474  14.004  21.645  0.00  0.00    +0.000 F 
ATOM     25  C   UNL     1      10.649  12.603  19.757  0.00  0.00    +0.000 A 
ATOM     26  C   UNL     1      10.297  11.414  19.116  0.00  0.00    +0.000 A 
ATOM     27 CL   UNL     1      10.942  11.131  17.536  0.00  0.00    +0.000 Cl
ENDBRANCH  18  20
ENDBRANCH  15  17
ENDBRANCH   1  15
TORSDOF 4
ENDMDL
MODEL 3
REMARK VINA RESULT:      -8.1      5.303      7.107
REMARK  Name = 
REMARK  4 active torsions:
REMARK  status: ('A' for Active; 'I' for Inactive)
REMARK    1  A    between atoms: C_2  and  C_3
REMARK    2  A    between atoms: C_3  and  S_4
REMARK    3  A    between atoms: S_4  and  C_5
REMARK    4  A    between atoms: N_18  and  C_19
REMARK                            x       y       z     vdW  Elec       q    Type
REMARK                         _______ _______ _______ _____ _____    ______ ____
ROOT
ATOM      1  S   UNL     1       8.078   6.479  18.678  0.00  0.00    +0.000 S 
ENDROOT
BRANCH   1   2
ATOM      2  C   UNL     1       6.616   5.555  18.313  0.00  0.00    +0.000 C 
ATOM      3  N   UNL     1       5.548   5.843  18.996  0.00  0.00    +0.000 NA
ATOM      4  C   UNL     1       4.339   5.242  18.609  0.00  0.00    +0.000 A 
ATOM      5  C   UNL     1       3.203   5.434  19.397  0.00  0.00    +0.000 A 
ATOM      6  C   UNL     1       1.975   4.875  19.034  0.00  0.00    +0.000 A 
ATOM      7  C   UNL     1       1.859   4.139  17.857  0.00  0.00    +0.000 A 
ATOM      8  C   UNL     1       2.978   3.950  17.055  0.00  0.00    +0.000 A 
ATOM      9  C   UNL     1       4.220   4.492  17.436  0.00  0.00    +0.000 A 
ATOM     10  C   UNL     1       5.447   4.204  16.628  0.00  0.00    +0.000 C 
ATOM     11  C   UNL     1       5.564   4.881  15.272  0.00  0.00    +0.000 C 
ATOM     12  C   UNL     1       7.048   4.734  15.148  0.00  0.00    +0.000 C 
ATOM     13  N   UNL     1       7.681   4.671  16.275  0.00  0.00    +0.000 NA
ATOM     14  N   UNL     1       6.693   4.648  17.259  0.00  0.00    +0.000 N 
ENDBRANCH   1   2
BRANCH   1  15
ATOM     15  C   UNL     1       7.758   8.026  17.802  0.00  0.00    +0.000 C 
BRANCH  15  17
ATOM     16  O   UNL     1       8.936   9.099  19.588  0.00  0.00    +0.000 OA
ATOM     17  C   UNL     1       8.549   9.164  18.423  0.00  0.00    +0.000 C 
ATOM     18  N   UNL     1       8.799  10.218  17.557  0.00  0.00    +0.000 N 
ATOM     19  H   UNL     1       8.250  10.254  16.703  0.00  0.00    +0.000 HD
BRANCH  18  20
ATOM     20  C   UNL     1       9.543  11.388  17.860  0.00  0.00    +0.000 A 
ATOM     21  C   UNL     1      10.879  11.347  18.278  0.00  0.00    +0.000 A 
ATOM     22  C   UNL     1      11.545  12.513  18.671  0.00  0.00    +0.000 A 
ATOM     23  C   UNL     1      10.882  13.726  18.613  0.00  0.00    +0.000 A 
ATOM     24  F   UNL     1      11.519  14.836  19.016  0.00  0.00    +0.000 F 
ATOM     25  C   UNL     1       9.584  13.813  18.140  0.00  0.00    +0.000 A 
ATOM     26  C   UNL     1       8.921  12.647  17.753  0.00  0.00    +0.000 A 
ATOM     27 CL   UNL     1       7.310  12.804  17.143  0.00  0.00    +0.000 Cl
ENDBRANCH  18  20
ENDBRANCH  15  17
ENDBRANCH   1  15
TORSDOF 4
ENDMDL
MODEL 4
REMARK VINA RESULT:      -8.1      5.199      8.510
REMARK  Name = 
REMARK  4 active torsions:
REMARK  status: ('A' for Active; 'I' for Inactive)
REMARK    1  A    between atoms: C_2  and  C_3
REMARK    2  A    between atoms: C_3  and  S_4
REMARK    3  A    between atoms: S_4  and  C_5
REMARK    4  A    between atoms: N_18  and  C_19
REMARK                            x       y       z     vdW  Elec       q    Type
REMARK                         _______ _______ _______ _____ _____    ______ ____
ROOT
ATOM      1  S   UNL     1       3.670   4.849  19.452  0.00  0.00    +0.000 S 
ENDROOT
BRANCH   1   2
ATOM      2  C   UNL     1       4.826   4.584  18.143  0.00  0.00    +0.000 C 
ATOM      3  N   UNL     1       4.342   4.463  16.942  0.00  0.00    +0.000 NA
ATOM      4  C   UNL     1       5.248   4.420  15.870  0.00  0.00    +0.000 A 
ATOM      5  C   UNL     1       4.768   4.168  14.584  0.00  0.00    +0.000 A 
ATOM      6  C   UNL     1       5.632   4.142  13.487  0.00  0.00    +0.000 A 
ATOM      7  C   UNL     1       6.990   4.401  13.656  0.00  0.00    +0.000 A 
ATOM      8  C   UNL     1       7.482   4.668  14.928  0.00  0.00    +0.000 A 
ATOM      9  C   UNL     1       6.614   4.667  16.036  0.00  0.00    +0.000 A 
ATOM     10  C   UNL     1       7.157   4.853  17.419  0.00  0.00    +0.000 C 
ATOM     11  C   UNL     1       7.643   6.242  17.797  0.00  0.00    +0.000 C 
ATOM     12  C   UNL     1       7.557   6.045  19.277  0.00  0.00    +0.000 C 
ATOM     13  N   UNL     1       6.678   5.172  19.656  0.00  0.00    +0.000 NA
ATOM     14  N   UNL     1       6.176   4.613  18.481  0.00  0.00    +0.000 N 
ENDBRANCH   1   2
BRANCH   1  15
ATOM     15  C   UNL     1       2.928   6.424  18.969  0.00  0.00    +0.000 C 
BRANCH  15  17
ATOM     16  O   UNL     1       1.516   6.153  20.883  0.00  0.00    +0.000 OA
ATOM     17  C   UNL     1       1.991   6.927  20.054  0.00  0.00    +0.000 C 
ATOM     18  N   UNL     1       1.771   8.295  20.020  0.00  0.00    +0.000 N 
ATOM     19  H   UNL     1       2.037   8.786  19.171  0.00  0.00    +0.000 HD
BRANCH  18  20
ATOM     20  C   UNL     1       0.973   9.034  20.932  0.00  0.00    +0.000 A 
ATOM     21  C   UNL     1       1.088   8.896  22.321  0.00  0.00    +0.000 A 
ATOM     22  C   UNL     1       0.211   9.560  23.185  0.00  0.00    +0.000 A 
ATOM     23  C   UNL     1      -0.763  10.390  22.658  0.00  0.00    +0.000 A 
ATOM     24  F   UNL     1      -1.617  11.003  23.490  0.00  0.00    +0.000 F 
ATOM     25  C   UNL     1      -0.863  10.604  21.293  0.00  0.00    +0.000 A 
ATOM     26  C   UNL     1       0.012   9.936  20.434  0.00  0.00    +0.000 A 
ATOM     27 CL   UNL     1      -0.129  10.251  18.740  0.00  0.00    +0.000 Cl
ENDBRANCH  18  20
ENDBRANCH  15  17
ENDBRANCH   1  15
TORSDOF 4
ENDMDL
MODEL 5
REMARK VINA RESULT:      -8.1      3.543      6.774
REMARK  Name = 
REMARK  4 active torsions:
REMARK  status: ('A' for Active; 'I' for Inactive)
REMARK    1  A    between atoms: C_2  and  C_3
REMARK    2  A    between atoms: C_3  and  S_4
REMARK    3  A    between atoms: S_4  and  C_5
REMARK    4  A    between atoms: N_18  and  C_19
REMARK                            x       y       z     vdW  Elec       q    Type
REMARK                         _______ _______ _______ _____ _____    ______ ____
ROOT
ATOM      1  S   UNL     1       4.625   3.704  19.547  0.00  0.00    +0.000 S 
ENDROOT
BRANCH   1   2
ATOM      2  C   UNL     1       5.574   3.939  18.076  0.00  0.00    +0.000 C 
ATOM      3  N   UNL     1       4.992   3.663  16.946  0.00  0.00    +0.000 NA
ATOM      4  C   UNL     1       5.666   4.000  15.761  0.00  0.00    +0.000 A 
ATOM      5  C   UNL     1       5.125   3.606  14.537  0.00  0.00    +0.000 A 
ATOM      6  C   UNL     1       5.750   3.942  13.333  0.00  0.00    +0.000 A 
ATOM      7  C   UNL     1       6.913   4.708  13.336  0.00  0.00    +0.000 A 
ATOM      8  C   UNL     1       7.458   5.120  14.547  0.00  0.00    +0.000 A 
ATOM      9  C   UNL     1       6.840   4.758  15.759  0.00  0.00    +0.000 A 
ATOM     10  C   UNL     1       7.480   5.113  17.065  0.00  0.00    +0.000 C 
ATOM     11  C   UNL     1       7.449   6.574  17.483  0.00  0.00    +0.000 C 
ATOM     12  C   UNL     1       7.677   6.328  18.941  0.00  0.00    +0.000 C 
ATOM     13  N   UNL     1       7.272   5.173  19.365  0.00  0.00    +0.000 NA
ATOM     14  N   UNL     1       6.845   4.487  18.228  0.00  0.00    +0.000 N 
ENDBRANCH   1   2
BRANCH   1  15
ATOM     15  C   UNL     1       2.970   3.437  18.873  0.00  0.00    +0.000 C 
BRANCH  15  17
ATOM     16  O   UNL     1       1.372   4.830  17.762  0.00  0.00    +0.000 OA
ATOM     17  C   UNL     1       2.300   4.765  18.565  0.00  0.00    +0.000 C 
ATOM     18  N   UNL     1       2.811   5.836  19.283  0.00  0.00    +0.000 N 
ATOM     19  H   UNL     1       3.706   5.698  19.744  0.00  0.00    +0.000 HD
BRANCH  18  20
ATOM     20  C   UNL     1       2.351   7.177  19.221  0.00  0.00    +0.000 A 
ATOM     21  C   UNL     1       1.557   7.751  20.223  0.00  0.00    +0.000 A 
ATOM     22  C   UNL     1       1.034   9.039  20.075  0.00  0.00    +0.000 A 
ATOM     23  C   UNL     1       1.332   9.767  18.937  0.00  0.00    +0.000 A 
ATOM     24  F   UNL     1       0.806  10.992  18.790  0.00  0.00    +0.000 F 
ATOM     25  C   UNL     1       2.169   9.259  17.958  0.00  0.00    +0.000 A 
ATOM     26  C   UNL     1       2.686   7.970  18.107  0.00  0.00    +0.000 A 
ATOM     27 CL   UNL     1       3.748   7.384  16.874  0.00  0.00    +0.000 Cl
ENDBRANCH  18  20
ENDBRANCH  15  17
ENDBRANCH   1  15
TORSDOF 4
ENDMDL
MODEL 6
REMARK VINA RESULT:      -8.0      1.077      1.428
REMARK  Name = 
REMARK  4 active torsions:
REMARK  status: ('A' for Active; 'I' for Inactive)
REMARK    1  A    between atoms: C_2  and  C_3
REMARK    2  A    between atoms: C_3  and  S_4
REMARK    3  A    between atoms: S_4  and  C_5
REMARK    4  A    between atoms: N_18  and  C_19
REMARK                            x       y       z     vdW  Elec       q    Type
REMARK                         _______ _______ _______ _____ _____    ______ ____
ROOT
ATOM      1  S   UNL     1       6.768   5.909  19.221  0.00  0.00    +0.000 S 
ENDROOT
BRANCH   1   2
ATOM      2  C   UNL     1       5.223   5.209  18.726  0.00  0.00    +0.000 C 
ATOM      3  N   UNL     1       4.901   4.061  19.245  0.00  0.00    +0.000 NA
ATOM      4  C   UNL     1       3.610   3.567  18.997  0.00  0.00    +0.000 A 
ATOM      5  C   UNL     1       3.277   2.284  19.435  0.00  0.00    +0.000 A 
ATOM      6  C   UNL     1       1.997   1.765  19.231  0.00  0.00    +0.000 A 
ATOM      7  C   UNL     1       1.016   2.537  18.613  0.00  0.00    +0.000 A 
ATOM      8  C   UNL     1       1.327   3.822  18.183  0.00  0.00    +0.000 A 
ATOM      9  C   UNL     1       2.626   4.333  18.366  0.00  0.00    +0.000 A 
ATOM     10  C   UNL     1       2.991   5.676  17.813  0.00  0.00    +0.000 C 
ATOM     11  C   UNL     1       2.411   6.897  18.506  0.00  0.00    +0.000 C 
ATOM     12  C   UNL     1       3.421   7.871  17.987  0.00  0.00    +0.000 C 
ATOM     13  N   UNL     1       4.574   7.354  17.704  0.00  0.00    +0.000 NA
ATOM     14  N   UNL     1       4.423   5.980  17.887  0.00  0.00    +0.000 N 
ENDBRANCH   1   2
BRANCH   1  15
ATOM     15  C   UNL     1       7.390   6.557  17.653  0.00  0.00    +0.000 C 
BRANCH  15  17
ATOM     16  O   UNL     1       7.973   4.362  16.897  0.00  0.00    +0.000 OA
ATOM     17  C   UNL     1       7.476   5.450  16.616  0.00  0.00    +0.000 C 
ATOM     18  N   UNL     1       6.926   5.784  15.387  0.00  0.00    +0.000 N 
ATOM     19  H   UNL     1       6.747   6.769  15.213  0.00  0.00    +0.000 HD
BRANCH  18  20
ATOM     20  C   UNL     1       6.837   4.933  14.255  0.00  0.00    +0.000 A 
ATOM     21  C   UNL     1       7.682   5.061  13.145  0.00  0.00    +0.000 A 
ATOM     22  C   UNL     1       7.493   4.275  12.003  0.00  0.00    +0.000 A 
ATOM     23  C   UNL     1       6.477   3.336  11.986  0.00  0.00    +0.000 A 
ATOM     24  F   UNL     1       6.286   2.604  10.878  0.00  0.00    +0.000 F 
ATOM     25  C   UNL     1       5.666   3.134  13.090  0.00  0.00    +0.000 A 
ATOM     26  C   UNL     1       5.855   3.924  14.226  0.00  0.00    +0.000 A 
ATOM     27 CL   UNL     1       4.838   3.621  15.592  0.00  0.00    +0.000 Cl
ENDBRANCH  18  20
ENDBRANCH  15  17
ENDBRANCH   1  15
TORSDOF 4
ENDMDL
MODEL 7
REMARK VINA RESULT:      -8.0      6.275      9.335
REMARK  Name = 
REMARK  4 active torsions:
REMARK  status: ('A' for Active; 'I' for Inactive)
REMARK    1  A    between atoms: C_2  and  C_3
REMARK    2  A    between atoms: C_3  and  S_4
REMARK    3  A    between atoms: S_4  and  C_5
REMARK    4  A    between atoms: N_18  and  C_19
REMARK                            x       y       z     vdW  Elec       q    Type
REMARK                         _______ _______ _______ _____ _____    ______ ____
ROOT
ATOM      1  S   UNL     1       2.199   7.436  19.563  0.00  0.00    +0.000 S 
ENDROOT
BRANCH   1   2
ATOM      2  C   UNL     1       2.927   6.251  18.473  0.00  0.00    +0.000 C 
ATOM      3  N   UNL     1       3.760   6.702  17.583  0.00  0.00    +0.000 NA
ATOM      4  C   UNL     1       4.475   5.764  16.819  0.00  0.00    +0.000 A 
ATOM      5  C   UNL     1       5.283   6.213  15.774  0.00  0.00    +0.000 A 
ATOM      6  C   UNL     1       6.030   5.317  15.006  0.00  0.00    +0.000 A 
ATOM      7  C   UNL     1       6.004   3.954  15.295  0.00  0.00    +0.000 A 
ATOM      8  C   UNL     1       5.214   3.491  16.341  0.00  0.00    +0.000 A 
ATOM      9  C   UNL     1       4.443   4.395  17.096  0.00  0.00    +0.000 A 
ATOM     10  C   UNL     1       3.514   3.888  18.157  0.00  0.00    +0.000 C 
ATOM     11  C   UNL     1       4.139   3.351  19.433  0.00  0.00    +0.000 C 
ATOM     12  C   UNL     1       2.917   3.494  20.283  0.00  0.00    +0.000 C 
ATOM     13  N   UNL     1       2.099   4.423  19.902  0.00  0.00    +0.000 NA
ATOM     14  N   UNL     1       2.621   4.913  18.704  0.00  0.00    +0.000 N 
ENDBRANCH   1   2
BRANCH   1  15
ATOM     15  C   UNL     1       1.848   8.802  18.434  0.00  0.00    +0.000 C 
BRANCH  15  17
ATOM     16  O   UNL     1      -0.192  10.053  18.402  0.00  0.00    +0.000 OA
ATOM     17  C   UNL     1       0.814   9.738  19.035  0.00  0.00    +0.000 C 
ATOM     18  N   UNL     1       1.107  10.149  20.326  0.00  0.00    +0.000 N 
ATOM     19  H   UNL     1       2.057  10.001  20.654  0.00  0.00    +0.000 HD
BRANCH  18  20
ATOM     20  C   UNL     1       0.301  10.991  21.136  0.00  0.00    +0.000 A 
ATOM     21  C   UNL     1       0.279  12.384  20.992  0.00  0.00    +0.000 A 
ATOM     22  C   UNL     1      -0.444  13.188  21.879  0.00  0.00    +0.000 A 
ATOM     23  C   UNL     1      -1.174  12.594  22.892  0.00  0.00    +0.000 A 
ATOM     24  F   UNL     1      -1.845  13.372  23.755  0.00  0.00    +0.000 F 
ATOM     25  C   UNL     1      -1.232  11.216  23.024  0.00  0.00    +0.000 A 
ATOM     26  C   UNL     1      -0.505  10.418  22.139  0.00  0.00    +0.000 A 
ATOM     27 CL   UNL     1      -0.625   8.702  22.322  0.00  0.00    +0.000 Cl
ENDBRANCH  18  20
ENDBRANCH  15  17
ENDBRANCH   1  15
TORSDOF 4
ENDMDL
MODEL 8
REMARK VINA RESULT:      -8.0      3.975      7.222
REMARK  Name = 
REMARK  4 active torsions:
REMARK  status: ('A' for Active; 'I' for Inactive)
REMARK    1  A    between atoms: C_2  and  C_3
REMARK    2  A    between atoms: C_3  and  S_4
REMARK    3  A    between atoms: S_4  and  C_5
REMARK    4  A    between atoms: N_18  and  C_19
REMARK                            x       y       z     vdW  Elec       q    Type
REMARK                         _______ _______ _______ _____ _____    ______ ____
ROOT
ATOM      1  S   UNL     1       4.491   3.108  18.101  0.00  0.00    +0.000 S 
ENDROOT
BRANCH   1   2
ATOM      2  C   UNL     1       5.633   3.619  16.854  0.00  0.00    +0.000 C 
ATOM      3  N   UNL     1       5.303   3.386  15.618  0.00  0.00    +0.000 NA
ATOM      4  C   UNL     1       6.114   3.930  14.608  0.00  0.00    +0.000 A 
ATOM      5  C   UNL     1       5.857   3.596  13.278  0.00  0.00    +0.000 A 
ATOM      6  C   UNL     1       6.622   4.135  12.241  0.00  0.00    +0.000 A 
ATOM      7  C   UNL     1       7.640   5.044  12.519  0.00  0.00    +0.000 A 
ATOM      8  C   UNL     1       7.900   5.398  13.838  0.00  0.00    +0.000 A 
ATOM      9  C   UNL     1       7.144   4.833  14.883  0.00  0.00    +0.000 A 
ATOM     10  C   UNL     1       7.488   5.133  16.309  0.00  0.00    +0.000 C 
ATOM     11  C   UNL     1       7.167   6.526  16.826  0.00  0.00    +0.000 C 
ATOM     12  C   UNL     1       7.175   6.163  18.277  0.00  0.00    +0.000 C 
ATOM     13  N   UNL     1       6.880   4.928  18.527  0.00  0.00    +0.000 NA
ATOM     14  N   UNL     1       6.763   4.311  17.282  0.00  0.00    +0.000 N 
ENDBRANCH   1   2
BRANCH   1  15
ATOM     15  C   UNL     1       2.927   3.140  17.196  0.00  0.00    +0.000 C 
BRANCH  15  17
ATOM     16  O   UNL     1       0.881   4.355  17.458  0.00  0.00    +0.000 OA
ATOM     17  C   UNL     1       2.103   4.350  17.599  0.00  0.00    +0.000 C 
ATOM     18  N   UNL     1       2.847   5.384  18.148  0.00  0.00    +0.000 N 
ATOM     19  H   UNL     1       3.853   5.352  18.012  0.00  0.00    +0.000 HD
BRANCH  18  20
ATOM     20  C   UNL     1       2.333   6.611  18.642  0.00  0.00    +0.000 A 
ATOM     21  C   UNL     1       2.199   7.752  17.841  0.00  0.00    +0.000 A 
ATOM     22  C   UNL     1       1.791   8.972  18.389  0.00  0.00    +0.000 A 
ATOM     23  C   UNL     1       1.483   9.042  19.736  0.00  0.00    +0.000 A 
ATOM     24  F   UNL     1       1.117  10.221  20.261  0.00  0.00    +0.000 F 
ATOM     25  C   UNL     1       1.537   7.919  20.545  0.00  0.00    +0.000 A 
ATOM     26  C   UNL     1       1.949   6.704  19.994  0.00  0.00    +0.000 A 
ATOM     27 CL   UNL     1       1.977   5.320  21.032  0.00  0.00    +0.000 Cl
ENDBRANCH  18  20
ENDBRANCH  15  17
ENDBRANCH   1  15
TORSDOF 4
ENDMDL
MODEL 9
REMARK VINA RESULT:      -7.9      5.545      8.039
REMARK  Name = 
REMARK  4 active torsions:
REMARK  status: ('A' for Active; 'I' for Inactive)
REMARK    1  A    between atoms: C_2  and  C_3
REMARK    2  A    between atoms: C_3  and  S_4
REMARK    3  A    between atoms: S_4  and  C_5
REMARK    4  A    between atoms: N_18  and  C_19
REMARK                            x       y       z     vdW  Elec       q    Type
REMARK                         _______ _______ _______ _____ _____    ______ ____
ROOT
ATOM      1  S   UNL     1       7.635   6.966  18.019  0.00  0.00    +0.000 S 
ENDROOT
BRANCH   1   2
ATOM      2  C   UNL     1       6.819   6.161  16.675  0.00  0.00    +0.000 C 
ATOM      3  N   UNL     1       7.532   5.902  15.619  0.00  0.00    +0.000 NA
ATOM      4  C   UNL     1       6.950   5.118  14.610  0.00  0.00    +0.000 A 
ATOM      5  C   UNL     1       7.643   4.927  13.414  0.00  0.00    +0.000 A 
ATOM      6  C   UNL     1       7.112   4.133  12.395  0.00  0.00    +0.000 A 
ATOM      7  C   UNL     1       5.889   3.490  12.570  0.00  0.00    +0.000 A 
ATOM      8  C   UNL     1       5.192   3.658  13.761  0.00  0.00    +0.000 A 
ATOM      9  C   UNL     1       5.718   4.480  14.776  0.00  0.00    +0.000 A 
ATOM     10  C   UNL     1       4.923   4.745  16.018  0.00  0.00    +0.000 C 
ATOM     11  C   UNL     1       4.779   3.605  17.011  0.00  0.00    +0.000 C 
ATOM     12  C   UNL     1       4.431   4.460  18.188  0.00  0.00    +0.000 C 
ATOM     13  N   UNL     1       4.897   5.668  18.135  0.00  0.00    +0.000 NA
ATOM     14  N   UNL     1       5.494   5.783  16.880  0.00  0.00    +0.000 N 
ENDBRANCH   1   2
BRANCH   1  15
ATOM     15  C   UNL     1       7.658   8.682  17.455  0.00  0.00    +0.000 C 
BRANCH  15  17
ATOM     16  O   UNL     1       9.086   9.047  19.342  0.00  0.00    +0.000 OA
ATOM     17  C   UNL     1       8.591   9.514  18.318  0.00  0.00    +0.000 C 
ATOM     18  N   UNL     1       8.832  10.787  17.824  0.00  0.00    +0.000 N 
ATOM     19  H   UNL     1       8.205  11.129  17.101  0.00  0.00    +0.000 HD
BRANCH  18  20
ATOM     20  C   UNL     1       9.688  11.759  18.404  0.00  0.00    +0.000 A 
ATOM     21  C   UNL     1      10.949  11.440  18.926  0.00  0.00    +0.000 A 
ATOM     22  C   UNL     1      11.718  12.404  19.587  0.00  0.00    +0.000 A 
ATOM     23  C   UNL     1      11.238  13.697  19.696  0.00  0.00    +0.000 A 
ATOM     24  F   UNL     1      11.969  14.610  20.353  0.00  0.00    +0.000 F 
ATOM     25  C   UNL     1      10.028  14.065  19.132  0.00  0.00    +0.000 A 
ATOM     26  C   UNL     1       9.262  13.099  18.477  0.00  0.00    +0.000 A 
ATOM     27 CL   UNL     1       7.769  13.606  17.764  0.00  0.00    +0.000 Cl
ENDBRANCH  18  20
ENDBRANCH  15  17
ENDBRANCH   1  15
TORSDOF 4
ENDMDL
