MODEL 1
REMARK VINA RESULT:      -7.0      0.000      0.000
REMARK  Name = 
REMARK  5 active torsions:
REMARK  status: ('A' for Active; 'I' for Inactive)
REMARK    1  A    between atoms: C_1  and  C_2
REMARK    2  A    between atoms: C_2  and  C_3
REMARK    3  A    between atoms: C_2  and  C_4
REMARK    4  A    between atoms: C_2  and  C_5
REMARK    5  A    between atoms: C_10  and  C_12
REMARK                            x       y       z     vdW  Elec       q    Type
REMARK                         _______ _______ _______ _____ _____    ______ ____
ROOT
ATOM      1  C   UNL     1       6.689   5.660  17.125  0.00  0.00    +0.000 A 
ATOM      2  C   UNL     1       6.944   4.821  18.198  0.00  0.00    +0.000 A 
ATOM      3  S   UNL     1       7.980   5.598  19.332  0.00  0.00    +0.000 S 
ATOM      4  C   UNL     1       7.947   6.998  18.363  0.00  0.00    +0.000 A 
ATOM      5  N   UNL     1       8.624   8.074  18.865  0.00  0.00    +0.000 N 
ATOM      6  C   UNL     1       8.487   9.313  18.294  0.00  0.00    +0.000 C 
ATOM      7  O   UNL     1       7.735   9.628  17.376  0.00  0.00    +0.000 OA
ATOM      8  N   UNL     1       7.280   6.907  17.246  0.00  0.00    +0.000 NA
ATOM      9  H   UNL     1       9.147   7.942  19.714  0.00  0.00    +0.000 HD
ENDROOT
BRANCH   6  10
ATOM     10  C   UNL     1       9.285  10.383  18.941  0.00  0.00    +0.000 C 
ATOM     11  C   UNL     1       9.397  10.689  20.240  0.00  0.00    +0.000 C 
ATOM     12  C   UNL     1      10.377  11.795  20.459  0.00  0.00    +0.000 C 
ATOM     13  C   UNL     1      11.041  11.971  19.094  0.00  0.00    +0.000 C 
ATOM     14  C   UNL     1      10.166  11.236  18.082  0.00  0.00    +0.000 C 
ENDBRANCH   6  10
BRANCH   1  16
ATOM     15  C   UNL     1       6.719   4.980  14.676  0.00  0.00    +0.000 C 
ATOM     16  C   UNL     1       5.856   5.404  15.879  0.00  0.00    +0.000 C 
ATOM     17  C   UNL     1       5.088   6.685  15.492  0.00  0.00    +0.000 C 
ATOM     18  C   UNL     1       4.834   4.285  16.162  0.00  0.00    +0.000 C 
ENDBRANCH   1  16
TORSDOF 2
ENDMDL
MODEL 2
REMARK VINA RESULT:      -6.9      0.091      1.066
REMARK  Name = 
REMARK  5 active torsions:
REMARK  status: ('A' for Active; 'I' for Inactive)
REMARK    1  A    between atoms: C_1  and  C_2
REMARK    2  A    between atoms: C_2  and  C_3
REMARK    3  A    between atoms: C_2  and  C_4
REMARK    4  A    between atoms: C_2  and  C_5
REMARK    5  A    between atoms: C_10  and  C_12
REMARK                            x       y       z     vdW  Elec       q    Type
REMARK                         _______ _______ _______ _____ _____    ______ ____
ROOT
ATOM      1  C   UNL     1       6.652   5.691  17.187  0.00  0.00    +0.000 A 
ATOM      2  C   UNL     1       6.942   4.838  18.239  0.00  0.00    +0.000 A 
ATOM      3  S   UNL     1       8.023   5.596  19.344  0.00  0.00    +0.000 S 
ATOM      4  C   UNL     1       7.960   7.009  18.394  0.00  0.00    +0.000 A 
ATOM      5  N   UNL     1       8.661   8.075  18.883  0.00  0.00    +0.000 N 
ATOM      6  C   UNL     1       8.508   9.321  18.333  0.00  0.00    +0.000 C 
ATOM      7  O   UNL     1       7.724   9.651  17.447  0.00  0.00    +0.000 OA
ATOM      8  N   UNL     1       7.252   6.934  17.301  0.00  0.00    +0.000 NA
ATOM      9  H   UNL     1       9.214   7.930  19.711  0.00  0.00    +0.000 HD
ENDROOT
BRANCH   6  10
ATOM     10  C   UNL     1       9.335  10.380  18.963  0.00  0.00    +0.000 C 
ATOM     11  C   UNL     1       9.457  10.703  20.257  0.00  0.00    +0.000 C 
ATOM     12  C   UNL     1      10.465  11.787  20.458  0.00  0.00    +0.000 C 
ATOM     13  C   UNL     1      11.131  11.925  19.089  0.00  0.00    +0.000 C 
ATOM     14  C   UNL     1      10.236  11.198  18.090  0.00  0.00    +0.000 C 
ENDBRANCH   6  10
BRANCH   1  16
ATOM     15  C   UNL     1       4.694   4.385  16.227  0.00  0.00    +0.000 C 
ATOM     16  C   UNL     1       5.772   5.454  15.969  0.00  0.00    +0.000 C 
ATOM     17  C   UNL     1       6.640   4.985  14.782  0.00  0.00    +0.000 C 
ATOM     18  C   UNL     1       5.069   6.768  15.575  0.00  0.00    +0.000 C 
ENDBRANCH   1  16
TORSDOF 2
ENDMDL
MODEL 3
REMARK VINA RESULT:      -6.5      0.454      1.369
REMARK  Name = 
REMARK  5 active torsions:
REMARK  status: ('A' for Active; 'I' for Inactive)
REMARK    1  A    between atoms: C_1  and  C_2
REMARK    2  A    between atoms: C_2  and  C_3
REMARK    3  A    between atoms: C_2  and  C_4
REMARK    4  A    between atoms: C_2  and  C_5
REMARK    5  A    between atoms: C_10  and  C_12
REMARK                            x       y       z     vdW  Elec       q    Type
REMARK                         _______ _______ _______ _____ _____    ______ ____
ROOT
ATOM      1  C   UNL     1       6.452   5.639  17.433  0.00  0.00    +0.000 A 
ATOM      2  C   UNL     1       6.845   4.815  18.475  0.00  0.00    +0.000 A 
ATOM      3  S   UNL     1       8.042   5.595  19.436  0.00  0.00    +0.000 S 
ATOM      4  C   UNL     1       7.890   6.979  18.454  0.00  0.00    +0.000 A 
ATOM      5  N   UNL     1       8.646   8.052  18.834  0.00  0.00    +0.000 N 
ATOM      6  C   UNL     1       8.445   9.283  18.264  0.00  0.00    +0.000 C 
ATOM      7  O   UNL     1       7.574   9.593  17.456  0.00  0.00    +0.000 OA
ATOM      8  N   UNL     1       7.070   6.879  17.445  0.00  0.00    +0.000 NA
ATOM      9  H   UNL     1       9.282   7.926  19.603  0.00  0.00    +0.000 HD
ENDROOT
BRANCH   6  10
ATOM     10  C   UNL     1       9.341  10.351  18.771  0.00  0.00    +0.000 C 
ATOM     11  C   UNL     1      10.098  11.218  18.085  0.00  0.00    +0.000 C 
ATOM     12  C   UNL     1      10.786  12.183  18.995  0.00  0.00    +0.000 C 
ATOM     13  C   UNL     1      10.141  11.924  20.357  0.00  0.00    +0.000 C 
ATOM     14  C   UNL     1       9.403  10.593  20.247  0.00  0.00    +0.000 C 
ENDBRANCH   6  10
BRANCH   1  16
ATOM     15  C   UNL     1       5.063   6.658  15.564  0.00  0.00    +0.000 C 
ATOM     16  C   UNL     1       5.447   5.374  16.323  0.00  0.00    +0.000 C 
ATOM     17  C   UNL     1       4.160   4.765  16.918  0.00  0.00    +0.000 C 
ATOM     18  C   UNL     1       6.044   4.373  15.314  0.00  0.00    +0.000 C 
ENDBRANCH   1  16
TORSDOF 2
ENDMDL
MODEL 4
REMARK VINA RESULT:      -6.4      6.215      7.221
REMARK  Name = 
REMARK  5 active torsions:
REMARK  status: ('A' for Active; 'I' for Inactive)
REMARK    1  A    between atoms: C_1  and  C_2
REMARK    2  A    between atoms: C_2  and  C_3
REMARK    3  A    between atoms: C_2  and  C_4
REMARK    4  A    between atoms: C_2  and  C_5
REMARK    5  A    between atoms: C_10  and  C_12
REMARK                            x       y       z     vdW  Elec       q    Type
REMARK                         _______ _______ _______ _____ _____    ______ ____
ROOT
ATOM      1  C   UNL     1       3.663   5.104  18.938  0.00  0.00    +0.000 A 
ATOM      2  C   UNL     1       3.229   4.003  19.658  0.00  0.00    +0.000 A 
ATOM      3  S   UNL     1       2.143   4.492  20.901  0.00  0.00    +0.000 S 
ATOM      4  C   UNL     1       2.269   6.097  20.344  0.00  0.00    +0.000 A 
ATOM      5  N   UNL     1       1.485   7.006  20.996  0.00  0.00    +0.000 N 
ATOM      6  C   UNL     1       1.330   8.275  20.501  0.00  0.00    +0.000 C 
ATOM      7  O   UNL     1       1.771   8.719  19.444  0.00  0.00    +0.000 OA
ATOM      8  N   UNL     1       3.095   6.297  19.355  0.00  0.00    +0.000 NA
ATOM      9  H   UNL     1       0.959   6.684  21.791  0.00  0.00    +0.000 HD
ENDROOT
BRANCH   6  10
ATOM     10  C   UNL     1       0.455   9.153  21.316  0.00  0.00    +0.000 C 
ATOM     11  C   UNL     1       0.238   9.142  22.638  0.00  0.00    +0.000 C 
ATOM     12  C   UNL     1      -0.661  10.261  23.054  0.00  0.00    +0.000 C 
ATOM     13  C   UNL     1      -0.779  11.122  21.796  0.00  0.00    +0.000 C 
ATOM     14  C   UNL     1      -0.265  10.276  20.635  0.00  0.00    +0.000 C 
ENDBRANCH   6  10
BRANCH   1  16
ATOM     15  C   UNL     1       4.371   4.073  16.725  0.00  0.00    +0.000 C 
ATOM     16  C   UNL     1       4.638   5.170  17.773  0.00  0.00    +0.000 C 
ATOM     17  C   UNL     1       6.082   4.998  18.291  0.00  0.00    +0.000 C 
ATOM     18  C   UNL     1       4.525   6.542  17.080  0.00  0.00    +0.000 C 
ENDBRANCH   1  16
TORSDOF 2
ENDMDL
MODEL 5
REMARK VINA RESULT:      -6.4      6.205      7.203
REMARK  Name = 
REMARK  5 active torsions:
REMARK  status: ('A' for Active; 'I' for Inactive)
REMARK    1  A    between atoms: C_1  and  C_2
REMARK    2  A    between atoms: C_2  and  C_3
REMARK    3  A    between atoms: C_2  and  C_4
REMARK    4  A    between atoms: C_2  and  C_5
REMARK    5  A    between atoms: C_10  and  C_12
REMARK                            x       y       z     vdW  Elec       q    Type
REMARK                         _______ _______ _______ _____ _____    ______ ____
ROOT
ATOM      1  C   UNL     1       3.660   5.050  18.972  0.00  0.00    +0.000 A 
ATOM      2  C   UNL     1       3.232   3.962  19.716  0.00  0.00    +0.000 A 
ATOM      3  S   UNL     1       2.158   4.475  20.960  0.00  0.00    +0.000 S 
ATOM      4  C   UNL     1       2.281   6.069  20.373  0.00  0.00    +0.000 A 
ATOM      5  N   UNL     1       1.504   6.992  21.015  0.00  0.00    +0.000 N 
ATOM      6  C   UNL     1       1.346   8.251  20.498  0.00  0.00    +0.000 C 
ATOM      7  O   UNL     1       1.778   8.675  19.430  0.00  0.00    +0.000 OA
ATOM      8  N   UNL     1       3.098   6.251  19.372  0.00  0.00    +0.000 NA
ATOM      9  H   UNL     1       0.985   6.685  21.821  0.00  0.00    +0.000 HD
ENDROOT
BRANCH   6  10
ATOM     10  C   UNL     1       0.479   9.146  21.305  0.00  0.00    +0.000 C 
ATOM     11  C   UNL     1       0.189   9.092  22.612  0.00  0.00    +0.000 C 
ATOM     12  C   UNL     1      -0.665  10.244  23.030  0.00  0.00    +0.000 C 
ATOM     13  C   UNL     1      -0.663  11.163  21.809  0.00  0.00    +0.000 C 
ATOM     14  C   UNL     1      -0.135  10.338  20.639  0.00  0.00    +0.000 C 
ENDBRANCH   6  10
BRANCH   1  16
ATOM     15  C   UNL     1       4.573   6.436  17.047  0.00  0.00    +0.000 C 
ATOM     16  C   UNL     1       4.625   5.092  17.797  0.00  0.00    +0.000 C 
ATOM     17  C   UNL     1       4.278   3.970  16.796  0.00  0.00    +0.000 C 
ATOM     18  C   UNL     1       6.065   4.873  18.302  0.00  0.00    +0.000 C 
ENDBRANCH   1  16
TORSDOF 2
ENDMDL
MODEL 6
REMARK VINA RESULT:      -6.4      6.221      7.170
REMARK  Name = 
REMARK  5 active torsions:
REMARK  status: ('A' for Active; 'I' for Inactive)
REMARK    1  A    between atoms: C_1  and  C_2
REMARK    2  A    between atoms: C_2  and  C_3
REMARK    3  A    between atoms: C_2  and  C_4
REMARK    4  A    between atoms: C_2  and  C_5
REMARK    5  A    between atoms: C_10  and  C_12
REMARK                            x       y       z     vdW  Elec       q    Type
REMARK                         _______ _______ _______ _____ _____    ______ ____
ROOT
ATOM      1  C   UNL     1       3.650   5.114  18.927  0.00  0.00    +0.000 A 
ATOM      2  C   UNL     1       3.192   4.007  19.624  0.00  0.00    +0.000 A 
ATOM      3  S   UNL     1       2.098   4.491  20.862  0.00  0.00    +0.000 S 
ATOM      4  C   UNL     1       2.254   6.103  20.334  0.00  0.00    +0.000 A 
ATOM      5  N   UNL     1       1.475   7.013  20.992  0.00  0.00    +0.000 N 
ATOM      6  C   UNL     1       1.344   8.291  20.516  0.00  0.00    +0.000 C 
ATOM      7  O   UNL     1       1.804   8.746  19.473  0.00  0.00    +0.000 OA
ATOM      8  N   UNL     1       3.094   6.308  19.358  0.00  0.00    +0.000 NA
ATOM      9  H   UNL     1       0.934   6.685  21.774  0.00  0.00    +0.000 HD
ENDROOT
BRANCH   6  10
ATOM     10  C   UNL     1       0.472   9.169  21.336  0.00  0.00    +0.000 C 
ATOM     11  C   UNL     1       0.289   9.181  22.662  0.00  0.00    +0.000 C 
ATOM     12  C   UNL     1      -0.622  10.290  23.079  0.00  0.00    +0.000 C 
ATOM     13  C   UNL     1      -0.791  11.121  21.807  0.00  0.00    +0.000 C 
ATOM     14  C   UNL     1      -0.289  10.261  20.650  0.00  0.00    +0.000 C 
ENDBRANCH   6  10
BRANCH   1  16
ATOM     15  C   UNL     1       6.099   5.048  18.250  0.00  0.00    +0.000 C 
ATOM     16  C   UNL     1       4.641   5.185  17.775  0.00  0.00    +0.000 C 
ATOM     17  C   UNL     1       4.497   6.537  17.046  0.00  0.00    +0.000 C 
ATOM     18  C   UNL     1       4.348   4.051  16.772  0.00  0.00    +0.000 C 
ENDBRANCH   1  16
TORSDOF 2
ENDMDL
MODEL 7
REMARK VINA RESULT:      -6.3      5.102      6.351
REMARK  Name = 
REMARK  5 active torsions:
REMARK  status: ('A' for Active; 'I' for Inactive)
REMARK    1  A    between atoms: C_1  and  C_2
REMARK    2  A    between atoms: C_2  and  C_3
REMARK    3  A    between atoms: C_2  and  C_4
REMARK    4  A    between atoms: C_2  and  C_5
REMARK    5  A    between atoms: C_10  and  C_12
REMARK                            x       y       z     vdW  Elec       q    Type
REMARK                         _______ _______ _______ _____ _____    ______ ____
ROOT
ATOM      1  C   UNL     1       4.785   4.717  17.895  0.00  0.00    +0.000 A 
ATOM      2  C   UNL     1       4.470   3.577  18.617  0.00  0.00    +0.000 A 
ATOM      3  S   UNL     1       3.375   3.959  19.889  0.00  0.00    +0.000 S 
ATOM      4  C   UNL     1       3.342   5.572  19.342  0.00  0.00    +0.000 A 
ATOM      5  N   UNL     1       2.495   6.403  20.019  0.00  0.00    +0.000 N 
ATOM      6  C   UNL     1       2.215   7.655  19.538  0.00  0.00    +0.000 C 
ATOM      7  O   UNL     1       2.588   8.143  18.474  0.00  0.00    +0.000 OA
ATOM      8  N   UNL     1       4.123   5.852  18.335  0.00  0.00    +0.000 NA
ATOM      9  H   UNL     1       2.019   6.030  20.823  0.00  0.00    +0.000 HD
ENDROOT
BRANCH   6  10
ATOM     10  C   UNL     1       1.284   8.447  20.380  0.00  0.00    +0.000 C 
ATOM     11  C   UNL     1       0.951   8.275  21.666  0.00  0.00    +0.000 C 
ATOM     12  C   UNL     1       0.035   9.356  22.142  0.00  0.00    +0.000 C 
ATOM     13  C   UNL     1       0.040  10.370  20.998  0.00  0.00    +0.000 C 
ATOM     14  C   UNL     1       0.642   9.663  19.787  0.00  0.00    +0.000 C 
ENDBRANCH   6  10
BRANCH   1  16
ATOM     15  C   UNL     1       7.203   4.903  17.132  0.00  0.00    +0.000 C 
ATOM     16  C   UNL     1       5.723   4.877  16.708  0.00  0.00    +0.000 C 
ATOM     17  C   UNL     1       5.410   6.196  15.971  0.00  0.00    +0.000 C 
ATOM     18  C   UNL     1       5.519   3.705  15.727  0.00  0.00    +0.000 C 
ENDBRANCH   1  16
TORSDOF 2
ENDMDL
MODEL 8
REMARK VINA RESULT:      -6.3      5.081      6.478
REMARK  Name = 
REMARK  5 active torsions:
REMARK  status: ('A' for Active; 'I' for Inactive)
REMARK    1  A    between atoms: C_1  and  C_2
REMARK    2  A    between atoms: C_2  and  C_3
REMARK    3  A    between atoms: C_2  and  C_4
REMARK    4  A    between atoms: C_2  and  C_5
REMARK    5  A    between atoms: C_10  and  C_12
REMARK                            x       y       z     vdW  Elec       q    Type
REMARK                         _______ _______ _______ _____ _____    ______ ____
ROOT
ATOM      1  C   UNL     1       4.776   5.096  17.658  0.00  0.00    +0.000 A 
ATOM      2  C   UNL     1       4.580   3.983  18.460  0.00  0.00    +0.000 A 
ATOM      3  S   UNL     1       3.546   4.373  19.779  0.00  0.00    +0.000 S 
ATOM      4  C   UNL     1       3.377   5.946  19.149  0.00  0.00    +0.000 A 
ATOM      5  N   UNL     1       2.523   6.764  19.835  0.00  0.00    +0.000 N 
ATOM      6  C   UNL     1       2.134   7.966  19.305  0.00  0.00    +0.000 C 
ATOM      7  O   UNL     1       2.408   8.412  18.194  0.00  0.00    +0.000 OA
ATOM      8  N   UNL     1       4.072   6.212  18.078  0.00  0.00    +0.000 NA
ATOM      9  H   UNL     1       2.124   6.411  20.688  0.00  0.00    +0.000 HD
ENDROOT
BRANCH   6  10
ATOM     10  C   UNL     1       1.210   8.749  20.163  0.00  0.00    +0.000 C 
ATOM     11  C   UNL     1       0.450   9.805  19.847  0.00  0.00    +0.000 C 
ATOM     12  C   UNL     1      -0.395  10.236  21.001  0.00  0.00    +0.000 C 
ATOM     13  C   UNL     1      -0.210   9.118  22.027  0.00  0.00    +0.000 C 
ATOM     14  C   UNL     1       1.001   8.306  21.578  0.00  0.00    +0.000 C 
ENDBRANCH   6  10
BRANCH   1  16
ATOM     15  C   UNL     1       5.467   4.042  15.450  0.00  0.00    +0.000 C 
ATOM     16  C   UNL     1       5.624   5.241  16.403  0.00  0.00    +0.000 C 
ATOM     17  C   UNL     1       7.114   5.355  16.791  0.00  0.00    +0.000 C 
ATOM     18  C   UNL     1       5.214   6.520  15.647  0.00  0.00    +0.000 C 
ENDBRANCH   1  16
TORSDOF 2
ENDMDL
MODEL 9
REMARK VINA RESULT:      -6.3      5.642      7.127
REMARK  Name = 
REMARK  5 active torsions:
REMARK  status: ('A' for Active; 'I' for Inactive)
REMARK    1  A    between atoms: C_1  and  C_2
REMARK    2  A    between atoms: C_2  and  C_3
REMARK    3  A    between atoms: C_2  and  C_4
REMARK    4  A    between atoms: C_2  and  C_5
REMARK    5  A    between atoms: C_10  and  C_12
REMARK                            x       y       z     vdW  Elec       q    Type
REMARK                         _______ _______ _______ _____ _____    ______ ____
ROOT
ATOM      1  C   UNL     1       3.053   4.536  19.180  0.00  0.00    +0.000 A 
ATOM      2  C   UNL     1       2.668   5.867  19.192  0.00  0.00    +0.000 A 
ATOM      3  S   UNL     1       3.439   6.724  17.914  0.00  0.00    +0.000 S 
ATOM      4  C   UNL     1       4.154   5.265  17.402  0.00  0.00    +0.000 A 
ATOM      5  N   UNL     1       4.908   5.349  16.265  0.00  0.00    +0.000 N 
ATOM      6  C   UNL     1       5.346   4.214  15.634  0.00  0.00    +0.000 C 
ATOM      7  O   UNL     1       5.079   3.052  15.926  0.00  0.00    +0.000 OA
ATOM      8  N   UNL     1       3.909   4.217  18.139  0.00  0.00    +0.000 NA
ATOM      9  H   UNL     1       5.047   6.261  15.864  0.00  0.00    +0.000 HD
ENDROOT
BRANCH   6  10
ATOM     10  C   UNL     1       6.157   4.459  14.416  0.00  0.00    +0.000 C 
ATOM     11  C   UNL     1       7.260   5.205  14.268  0.00  0.00    +0.000 C 
ATOM     12  C   UNL     1       7.804   5.108  12.880  0.00  0.00    +0.000 C 
ATOM     13  C   UNL     1       6.988   3.982  12.245  0.00  0.00    +0.000 C 
ATOM     14  C   UNL     1       5.784   3.747  13.152  0.00  0.00    +0.000 C 
ENDBRANCH   6  10
BRANCH   1  16
ATOM     15  C   UNL     1       2.204   3.932  21.499  0.00  0.00    +0.000 C 
ATOM     16  C   UNL     1       2.655   3.410  20.122  0.00  0.00    +0.000 C 
ATOM     17  C   UNL     1       3.853   2.461  20.336  0.00  0.00    +0.000 C 
ATOM     18  C   UNL     1       1.495   2.605  19.504  0.00  0.00    +0.000 C 
ENDBRANCH   1  16
TORSDOF 2
ENDMDL
