MODEL 1
REMARK VINA RESULT:      -8.1      0.000      0.000
REMARK  Name = 
REMARK  7 active torsions:
REMARK  status: ('A' for Active; 'I' for Inactive)
REMARK    1  A    between atoms: C_1  and  C_2
REMARK    2  A    between atoms: C_4  and  N_5
REMARK    3  A    between atoms: N_8  and  C_9
REMARK    4  A    between atoms: C_9  and  C_10
REMARK    5  A    between atoms: N_16  and  C_17
REMARK    6  A    between atoms: C_17  and  C_18
REMARK    7  A    between atoms: C_17  and  C_19
REMARK                            x       y       z     vdW  Elec       q    Type
REMARK                         _______ _______ _______ _____ _____    ______ ____
ROOT
ATOM      1  N   UNL     1       5.916   3.821  18.172  0.00  0.00    +0.000 N 
ATOM      2  C   UNL     1       4.513   3.607  18.060  0.00  0.00    +0.000 C 
ATOM      3  O   UNL     1       3.750   4.451  17.616  0.00  0.00    +0.000 OA
ATOM      4  N   UNL     1       4.136   2.394  18.546  0.00  0.00    +0.000 N 
ATOM      5  H   UNL     1       6.467   3.131  18.658  0.00  0.00    +0.000 HD
ATOM      6  H   UNL     1       4.796   1.668  18.797  0.00  0.00    +0.000 HD
ENDROOT
BRANCH   1  10
ATOM      7  C   UNL     1       8.069   8.326  17.853  0.00  0.00    +0.000 C 
ATOM      8  C   UNL     1       7.491   6.994  17.551  0.00  0.00    +0.000 A 
ATOM      9  C   UNL     1       6.896   6.088  18.451  0.00  0.00    +0.000 A 
ATOM     10  C   UNL     1       6.530   4.987  17.705  0.00  0.00    +0.000 A 
ATOM     11  N   UNL     1       6.889   5.307  16.409  0.00  0.00    +0.000 N 
ATOM     12  N   UNL     1       7.489   6.514  16.306  0.00  0.00    +0.000 NA
BRANCH  11  13
ATOM     13  C   UNL     1       6.742   4.502  15.199  0.00  0.00    +0.000 C 
ATOM     14  C   UNL     1       5.288   4.478  14.721  0.00  0.00    +0.000 C 
ATOM     15  C   UNL     1       7.666   4.987  14.079  0.00  0.00    +0.000 C 
ENDBRANCH  11  13
ENDBRANCH   1  10
BRANCH   4  16
ATOM     16  C   UNL     1       2.726   2.040  18.490  0.00  0.00    +0.000 C 
BRANCH  16  17
ATOM     17  C   UNL     1       1.984   2.104  19.838  0.00  0.00    +0.000 C 
ATOM     18  C   UNL     1       0.750   3.012  19.805  0.00  0.00    +0.000 C 
ATOM     19  C   UNL     1       1.192   4.251  20.554  0.00  0.00    +0.000 C 
ATOM     20  F   UNL     1       1.891   5.052  19.694  0.00  0.00    +0.000 F 
ATOM     21  C   UNL     1       2.137   3.688  21.598  0.00  0.00    +0.000 C 
ATOM     22  N   UNL     1       2.876   2.635  20.886  0.00  0.00    +0.000 NA
ATOM     23  H   UNL     1       3.140   1.893  21.540  0.00  0.00    +0.000 HD
ENDBRANCH  16  17
ENDBRANCH   4  16
TORSDOF 4
ENDMDL
MODEL 2
REMARK VINA RESULT:      -7.8      0.833      2.504
REMARK  Name = 
REMARK  7 active torsions:
REMARK  status: ('A' for Active; 'I' for Inactive)
REMARK    1  A    between atoms: C_1  and  C_2
REMARK    2  A    between atoms: C_4  and  N_5
REMARK    3  A    between atoms: N_8  and  C_9
REMARK    4  A    between atoms: C_9  and  C_10
REMARK    5  A    between atoms: N_16  and  C_17
REMARK    6  A    between atoms: C_17  and  C_18
REMARK    7  A    between atoms: C_17  and  C_19
REMARK                            x       y       z     vdW  Elec       q    Type
REMARK                         _______ _______ _______ _____ _____    ______ ____
ROOT
ATOM      1  N   UNL     1       5.477   3.537  17.613  0.00  0.00    +0.000 N 
ATOM      2  C   UNL     1       4.078   3.284  17.545  0.00  0.00    +0.000 C 
ATOM      3  O   UNL     1       3.369   3.726  16.653  0.00  0.00    +0.000 OA
ATOM      4  N   UNL     1       3.636   2.547  18.598  0.00  0.00    +0.000 N 
ATOM      5  H   UNL     1       5.976   3.243  18.438  0.00  0.00    +0.000 HD
ATOM      6  H   UNL     1       4.256   2.092  19.257  0.00  0.00    +0.000 HD
ENDROOT
BRANCH   1  10
ATOM      7  C   UNL     1       7.456   5.018  13.263  0.00  0.00    +0.000 C 
ATOM      8  C   UNL     1       7.041   4.918  14.683  0.00  0.00    +0.000 A 
ATOM      9  C   UNL     1       6.306   3.883  15.296  0.00  0.00    +0.000 A 
ATOM     10  C   UNL     1       6.154   4.248  16.617  0.00  0.00    +0.000 A 
ATOM     11  N   UNL     1       6.828   5.450  16.729  0.00  0.00    +0.000 N 
ATOM     12  N   UNL     1       7.354   5.875  15.559  0.00  0.00    +0.000 NA
BRANCH  11  13
ATOM     13  C   UNL     1       6.988   6.297  17.907  0.00  0.00    +0.000 C 
ATOM     14  C   UNL     1       7.834   5.606  18.978  0.00  0.00    +0.000 C 
ATOM     15  C   UNL     1       7.585   7.661  17.550  0.00  0.00    +0.000 C 
ENDBRANCH  11  13
ENDBRANCH   1  10
BRANCH   4  16
ATOM     16  C   UNL     1       2.221   2.208  18.654  0.00  0.00    +0.000 C 
BRANCH  16  17
ATOM     17  C   UNL     1       1.525   2.537  19.986  0.00  0.00    +0.000 C 
ATOM     18  C   UNL     1       0.836   3.907  19.985  0.00  0.00    +0.000 C 
ATOM     19  C   UNL     1       1.752   4.774  20.820  0.00  0.00    +0.000 C 
ATOM     20  F   UNL     1       2.778   5.211  20.029  0.00  0.00    +0.000 F 
ATOM     21  C   UNL     1       2.291   3.795  21.847  0.00  0.00    +0.000 C 
ATOM     22  N   UNL     1       2.509   2.557  21.086  0.00  0.00    +0.000 NA
ATOM     23  H   UNL     1       2.378   1.746  21.696  0.00  0.00    +0.000 HD
ENDBRANCH  16  17
ENDBRANCH   4  16
TORSDOF 4
ENDMDL
MODEL 3
REMARK VINA RESULT:      -7.8      1.419      1.908
REMARK  Name = 
REMARK  7 active torsions:
REMARK  status: ('A' for Active; 'I' for Inactive)
REMARK    1  A    between atoms: C_1  and  C_2
REMARK    2  A    between atoms: C_4  and  N_5
REMARK    3  A    between atoms: N_8  and  C_9
REMARK    4  A    between atoms: C_9  and  C_10
REMARK    5  A    between atoms: N_16  and  C_17
REMARK    6  A    between atoms: C_17  and  C_18
REMARK    7  A    between atoms: C_17  and  C_19
REMARK                            x       y       z     vdW  Elec       q    Type
REMARK                         _______ _______ _______ _____ _____    ______ ____
ROOT
ATOM      1  N   UNL     1       6.657   4.314  18.421  0.00  0.00    +0.000 N 
ATOM      2  C   UNL     1       5.451   4.084  19.142  0.00  0.00    +0.000 C 
ATOM      3  O   UNL     1       4.739   4.991  19.545  0.00  0.00    +0.000 OA
ATOM      4  N   UNL     1       5.226   2.761  19.361  0.00  0.00    +0.000 N 
ATOM      5  H   UNL     1       7.254   3.526  18.225  0.00  0.00    +0.000 HD
ATOM      6  H   UNL     1       5.763   2.025  18.917  0.00  0.00    +0.000 HD
ENDROOT
BRANCH   1  10
ATOM      7  C   UNL     1       8.677   8.891  18.393  0.00  0.00    +0.000 C 
ATOM      8  C   UNL     1       7.967   7.641  18.031  0.00  0.00    +0.000 A 
ATOM      9  C   UNL     1       7.762   6.501  18.834  0.00  0.00    +0.000 A 
ATOM     10  C   UNL     1       7.071   5.598  18.054  0.00  0.00    +0.000 A 
ATOM     11  N   UNL     1       6.870   6.253  16.854  0.00  0.00    +0.000 N 
ATOM     12  N   UNL     1       7.424   7.486  16.821  0.00  0.00    +0.000 NA
BRANCH  11  13
ATOM     13  C   UNL     1       6.195   5.767  15.654  0.00  0.00    +0.000 C 
ATOM     14  C   UNL     1       7.001   4.657  14.975  0.00  0.00    +0.000 C 
ATOM     15  C   UNL     1       4.772   5.288  15.956  0.00  0.00    +0.000 C 
ENDBRANCH  11  13
ENDBRANCH   1  10
BRANCH   4  16
ATOM     16  C   UNL     1       4.023   2.379  20.085  0.00  0.00    +0.000 C 
BRANCH  16  17
ATOM     17  C   UNL     1       2.887   1.817  19.211  0.00  0.00    +0.000 C 
ATOM     18  C   UNL     1       2.877   2.393  17.791  0.00  0.00    +0.000 C 
ATOM     19  C   UNL     1       1.717   3.366  17.803  0.00  0.00    +0.000 C 
ATOM     20  F   UNL     1       2.143   4.543  18.353  0.00  0.00    +0.000 F 
ATOM     21  C   UNL     1       0.733   2.698  18.745  0.00  0.00    +0.000 C 
ATOM     22  N   UNL     1       1.577   2.137  19.810  0.00  0.00    +0.000 NA
ATOM     23  H   UNL     1       1.142   1.292  20.189  0.00  0.00    +0.000 HD
ENDBRANCH  16  17
ENDBRANCH   4  16
TORSDOF 4
ENDMDL
MODEL 4
REMARK VINA RESULT:      -7.6      1.152      2.678
REMARK  Name = 
REMARK  7 active torsions:
REMARK  status: ('A' for Active; 'I' for Inactive)
REMARK    1  A    between atoms: C_1  and  C_2
REMARK    2  A    between atoms: C_4  and  N_5
REMARK    3  A    between atoms: N_8  and  C_9
REMARK    4  A    between atoms: C_9  and  C_10
REMARK    5  A    between atoms: N_16  and  C_17
REMARK    6  A    between atoms: C_17  and  C_18
REMARK    7  A    between atoms: C_17  and  C_19
REMARK                            x       y       z     vdW  Elec       q    Type
REMARK                         _______ _______ _______ _____ _____    ______ ____
ROOT
ATOM      1  N   UNL     1       6.236   3.809  18.390  0.00  0.00    +0.000 N 
ATOM      2  C   UNL     1       4.901   3.399  18.666  0.00  0.00    +0.000 C 
ATOM      3  O   UNL     1       3.966   3.647  17.921  0.00  0.00    +0.000 OA
ATOM      4  N   UNL     1       4.797   2.755  19.859  0.00  0.00    +0.000 N 
ATOM      5  H   UNL     1       6.935   3.675  19.104  0.00  0.00    +0.000 HD
ATOM      6  H   UNL     1       5.600   2.455  20.400  0.00  0.00    +0.000 HD
ENDROOT
BRANCH   1  10
ATOM      7  C   UNL     1       7.110   4.911  13.588  0.00  0.00    +0.000 C 
ATOM      8  C   UNL     1       6.977   4.962  15.064  0.00  0.00    +0.000 A 
ATOM      9  C   UNL     1       6.567   3.928  15.929  0.00  0.00    +0.000 A 
ATOM     10  C   UNL     1       6.583   4.460  17.201  0.00  0.00    +0.000 A 
ATOM     11  N   UNL     1       7.031   5.757  17.033  0.00  0.00    +0.000 N 
ATOM     12  N   UNL     1       7.255   6.078  15.740  0.00  0.00    +0.000 NA
BRANCH  11  13
ATOM     13  C   UNL     1       7.235   6.787  18.047  0.00  0.00    +0.000 C 
ATOM     14  C   UNL     1       8.147   6.290  19.171  0.00  0.00    +0.000 C 
ATOM     15  C   UNL     1       7.788   8.080  17.441  0.00  0.00    +0.000 C 
ENDBRANCH  11  13
ENDBRANCH   1  10
BRANCH   4  16
ATOM     16  C   UNL     1       3.486   2.274  20.268  0.00  0.00    +0.000 C 
BRANCH  16  17
ATOM     17  C   UNL     1       2.685   3.242  21.158  0.00  0.00    +0.000 C 
ATOM     18  C   UNL     1       1.168   3.084  21.009  0.00  0.00    +0.000 C 
ATOM     19  C   UNL     1       0.757   4.285  20.185  0.00  0.00    +0.000 C 
ATOM     20  F   UNL     1       0.986   4.007  18.866  0.00  0.00    +0.000 F 
ATOM     21  C   UNL     1       1.728   5.354  20.650  0.00  0.00    +0.000 C 
ATOM     22  N   UNL     1       3.004   4.640  20.806  0.00  0.00    +0.000 NA
ATOM     23  H   UNL     1       3.558   5.076  21.547  0.00  0.00    +0.000 HD
ENDBRANCH  16  17
ENDBRANCH   4  16
TORSDOF 4
ENDMDL
MODEL 5
REMARK VINA RESULT:      -7.5      1.757      3.242
REMARK  Name = 
REMARK  7 active torsions:
REMARK  status: ('A' for Active; 'I' for Inactive)
REMARK    1  A    between atoms: C_1  and  C_2
REMARK    2  A    between atoms: C_4  and  N_5
REMARK    3  A    between atoms: N_8  and  C_9
REMARK    4  A    between atoms: C_9  and  C_10
REMARK    5  A    between atoms: N_16  and  C_17
REMARK    6  A    between atoms: C_17  and  C_18
REMARK    7  A    between atoms: C_17  and  C_19
REMARK                            x       y       z     vdW  Elec       q    Type
REMARK                         _______ _______ _______ _____ _____    ______ ____
ROOT
ATOM      1  N   UNL     1       4.127   6.120  17.414  0.00  0.00    +0.000 N 
ATOM      2  C   UNL     1       3.893   5.434  18.639  0.00  0.00    +0.000 C 
ATOM      3  O   UNL     1       4.621   4.542  19.046  0.00  0.00    +0.000 OA
ATOM      4  N   UNL     1       2.757   5.855  19.257  0.00  0.00    +0.000 N 
ATOM      5  H   UNL     1       3.421   6.759  17.083  0.00  0.00    +0.000 HD
ATOM      6  H   UNL     1       2.238   6.674  18.965  0.00  0.00    +0.000 HD
ENDROOT
BRANCH   1  10
ATOM      7  C   UNL     1       7.212   4.666  13.753  0.00  0.00    +0.000 C 
ATOM      8  C   UNL     1       6.640   5.228  15.001  0.00  0.00    +0.000 A 
ATOM      9  C   UNL     1       5.293   5.214  15.415  0.00  0.00    +0.000 A 
ATOM     10  C   UNL     1       5.256   5.872  16.626  0.00  0.00    +0.000 A 
ATOM     11  N   UNL     1       6.571   6.208  16.885  0.00  0.00    +0.000 N 
ATOM     12  N   UNL     1       7.418   5.838  15.897  0.00  0.00    +0.000 NA
BRANCH  11  13
ATOM     13  C   UNL     1       7.118   6.926  18.032  0.00  0.00    +0.000 C 
ATOM     14  C   UNL     1       7.893   5.987  18.958  0.00  0.00    +0.000 C 
ATOM     15  C   UNL     1       8.001   8.100  17.598  0.00  0.00    +0.000 C 
ENDBRANCH  11  13
ENDBRANCH   1  10
BRANCH   4  16
ATOM     16  C   UNL     1       2.397   5.241  20.526  0.00  0.00    +0.000 C 
BRANCH  16  17
ATOM     17  C   UNL     1       1.229   4.241  20.458  0.00  0.00    +0.000 C 
ATOM     18  C   UNL     1       1.510   2.932  21.204  0.00  0.00    +0.000 C 
ATOM     19  C   UNL     1       1.778   1.935  20.098  0.00  0.00    +0.000 C 
ATOM     20  F   UNL     1       3.078   2.068  19.697  0.00  0.00    +0.000 F 
ATOM     21  C   UNL     1       0.858   2.414  18.990  0.00  0.00    +0.000 C 
ATOM     22  N   UNL     1       0.947   3.880  19.056  0.00  0.00    +0.000 NA
ATOM     23  H   UNL     1       0.064   4.296  18.751  0.00  0.00    +0.000 HD
ENDBRANCH  16  17
ENDBRANCH   4  16
TORSDOF 4
ENDMDL
MODEL 6
REMARK VINA RESULT:      -7.5      1.708      3.036
REMARK  Name = 
REMARK  7 active torsions:
REMARK  status: ('A' for Active; 'I' for Inactive)
REMARK    1  A    between atoms: C_1  and  C_2
REMARK    2  A    between atoms: C_4  and  N_5
REMARK    3  A    between atoms: N_8  and  C_9
REMARK    4  A    between atoms: C_9  and  C_10
REMARK    5  A    between atoms: N_16  and  C_17
REMARK    6  A    between atoms: C_17  and  C_18
REMARK    7  A    between atoms: C_17  and  C_19
REMARK                            x       y       z     vdW  Elec       q    Type
REMARK                         _______ _______ _______ _____ _____    ______ ____
ROOT
ATOM      1  N   UNL     1       4.131   5.803  16.856  0.00  0.00    +0.000 N 
ATOM      2  C   UNL     1       3.393   4.684  17.335  0.00  0.00    +0.000 C 
ATOM      3  O   UNL     1       3.727   3.530  17.113  0.00  0.00    +0.000 OA
ATOM      4  N   UNL     1       2.274   5.056  18.010  0.00  0.00    +0.000 N 
ATOM      5  H   UNL     1       3.734   6.722  16.973  0.00  0.00    +0.000 HD
ATOM      6  H   UNL     1       2.082   6.012  18.284  0.00  0.00    +0.000 HD
ENDROOT
BRANCH   1  10
ATOM      7  C   UNL     1       7.592   4.798  13.385  0.00  0.00    +0.000 C 
ATOM      8  C   UNL     1       6.888   5.213  14.622  0.00  0.00    +0.000 A 
ATOM      9  C   UNL     1       5.508   5.136  14.897  0.00  0.00    +0.000 A 
ATOM     10  C   UNL     1       5.337   5.658  16.162  0.00  0.00    +0.000 A 
ATOM     11  N   UNL     1       6.613   5.981  16.584  0.00  0.00    +0.000 N 
ATOM     12  N   UNL     1       7.560   5.733  15.652  0.00  0.00    +0.000 NA
BRANCH  11  13
ATOM     13  C   UNL     1       7.028   6.578  17.850  0.00  0.00    +0.000 C 
ATOM     14  C   UNL     1       7.827   5.586  18.697  0.00  0.00    +0.000 C 
ATOM     15  C   UNL     1       7.829   7.866  17.635  0.00  0.00    +0.000 C 
ENDBRANCH  11  13
ENDBRANCH   1  10
BRANCH   4  16
ATOM     16  C   UNL     1       1.425   4.010  18.561  0.00  0.00    +0.000 C 
BRANCH  16  17
ATOM     17  C   UNL     1       1.129   4.136  20.066  0.00  0.00    +0.000 C 
ATOM     18  C   UNL     1       2.369   4.480  20.899  0.00  0.00    +0.000 C 
ATOM     19  C   UNL     1       2.720   3.176  21.581  0.00  0.00    +0.000 C 
ATOM     20  F   UNL     1       3.435   2.405  20.706  0.00  0.00    +0.000 F 
ATOM     21  C   UNL     1       1.360   2.545  21.812  0.00  0.00    +0.000 C 
ATOM     22  N   UNL     1       0.604   2.860  20.591  0.00  0.00    +0.000 NA
ATOM     23  H   UNL     1      -0.391   2.948  20.812  0.00  0.00    +0.000 HD
ENDBRANCH  16  17
ENDBRANCH   4  16
TORSDOF 4
ENDMDL
MODEL 7
REMARK VINA RESULT:      -7.4      1.543      2.838
REMARK  Name = 
REMARK  7 active torsions:
REMARK  status: ('A' for Active; 'I' for Inactive)
REMARK    1  A    between atoms: C_1  and  C_2
REMARK    2  A    between atoms: C_4  and  N_5
REMARK    3  A    between atoms: N_8  and  C_9
REMARK    4  A    between atoms: C_9  and  C_10
REMARK    5  A    between atoms: N_16  and  C_17
REMARK    6  A    between atoms: C_17  and  C_18
REMARK    7  A    between atoms: C_17  and  C_19
REMARK                            x       y       z     vdW  Elec       q    Type
REMARK                         _______ _______ _______ _____ _____    ______ ____
ROOT
ATOM      1  N   UNL     1       5.832   3.997  17.812  0.00  0.00    +0.000 N 
ATOM      2  C   UNL     1       4.697   3.321  18.343  0.00  0.00    +0.000 C 
ATOM      3  O   UNL     1       3.713   3.054  17.670  0.00  0.00    +0.000 OA
ATOM      4  N   UNL     1       4.827   3.062  19.672  0.00  0.00    +0.000 N 
ATOM      5  H   UNL     1       6.555   4.291  18.450  0.00  0.00    +0.000 HD
ATOM      6  H   UNL     1       5.695   3.184  20.179  0.00  0.00    +0.000 HD
ENDROOT
BRANCH   1  10
ATOM      7  C   UNL     1       6.302   3.818  12.834  0.00  0.00    +0.000 C 
ATOM      8  C   UNL     1       6.141   4.265  14.239  0.00  0.00    +0.000 A 
ATOM      9  C   UNL     1       6.127   3.469  15.401  0.00  0.00    +0.000 A 
ATOM     10  C   UNL     1       5.931   4.333  16.458  0.00  0.00    +0.000 A 
ATOM     11  N   UNL     1       5.875   5.587  15.880  0.00  0.00    +0.000 N 
ATOM     12  N   UNL     1       5.982   5.557  14.533  0.00  0.00    +0.000 NA
BRANCH  11  13
ATOM     13  C   UNL     1       5.675   6.880  16.529  0.00  0.00    +0.000 C 
ATOM     14  C   UNL     1       4.369   6.906  17.326  0.00  0.00    +0.000 C 
ATOM     15  C   UNL     1       6.858   7.255  17.427  0.00  0.00    +0.000 C 
ENDBRANCH  11  13
ENDBRANCH   1  10
BRANCH   4  16
ATOM     16  C   UNL     1       3.739   2.369  20.345  0.00  0.00    +0.000 C 
BRANCH  16  17
ATOM     17  C   UNL     1       2.822   3.266  21.195  0.00  0.00    +0.000 C 
ATOM     18  C   UNL     1       1.337   2.905  21.068  0.00  0.00    +0.000 C 
ATOM     19  C   UNL     1       0.772   4.002  20.192  0.00  0.00    +0.000 C 
ATOM     20  F   UNL     1       1.031   3.694  18.886  0.00  0.00    +0.000 F 
ATOM     21  C   UNL     1       1.597   5.209  20.598  0.00  0.00    +0.000 C 
ATOM     22  N   UNL     1       2.955   4.675  20.776  0.00  0.00    +0.000 NA
ATOM     23  H   UNL     1       3.449   5.214  21.491  0.00  0.00    +0.000 HD
ENDBRANCH  16  17
ENDBRANCH   4  16
TORSDOF 4
ENDMDL
MODEL 8
REMARK VINA RESULT:      -7.3      1.529      1.930
REMARK  Name = 
REMARK  7 active torsions:
REMARK  status: ('A' for Active; 'I' for Inactive)
REMARK    1  A    between atoms: C_1  and  C_2
REMARK    2  A    between atoms: C_4  and  N_5
REMARK    3  A    between atoms: N_8  and  C_9
REMARK    4  A    between atoms: C_9  and  C_10
REMARK    5  A    between atoms: N_16  and  C_17
REMARK    6  A    between atoms: C_17  and  C_18
REMARK    7  A    between atoms: C_17  and  C_19
REMARK                            x       y       z     vdW  Elec       q    Type
REMARK                         _______ _______ _______ _____ _____    ______ ____
ROOT
ATOM      1  N   UNL     1       6.829   4.526  18.538  0.00  0.00    +0.000 N 
ATOM      2  C   UNL     1       5.528   4.290  19.066  0.00  0.00    +0.000 C 
ATOM      3  O   UNL     1       4.737   5.190  19.299  0.00  0.00    +0.000 OA
ATOM      4  N   UNL     1       5.306   2.972  19.316  0.00  0.00    +0.000 N 
ATOM      5  H   UNL     1       7.471   3.750  18.483  0.00  0.00    +0.000 HD
ATOM      6  H   UNL     1       5.927   2.235  19.005  0.00  0.00    +0.000 HD
ENDROOT
BRANCH   1  10
ATOM      7  C   UNL     1       8.859   9.099  18.545  0.00  0.00    +0.000 C 
ATOM      8  C   UNL     1       8.164   7.845  18.166  0.00  0.00    +0.000 A 
ATOM      9  C   UNL     1       7.919   6.717  18.974  0.00  0.00    +0.000 A 
ATOM     10  C   UNL     1       7.264   5.805  18.174  0.00  0.00    +0.000 A 
ATOM     11  N   UNL     1       7.123   6.443  16.956  0.00  0.00    +0.000 N 
ATOM     12  N   UNL     1       7.681   7.674  16.934  0.00  0.00    +0.000 NA
BRANCH  11  13
ATOM     13  C   UNL     1       6.507   5.941  15.731  0.00  0.00    +0.000 C 
ATOM     14  C   UNL     1       7.018   4.542  15.384  0.00  0.00    +0.000 C 
ATOM     15  C   UNL     1       4.978   5.946  15.821  0.00  0.00    +0.000 C 
ENDBRANCH  11  13
ENDBRANCH   1  10
BRANCH   4  16
ATOM     16  C   UNL     1       4.011   2.585  19.856  0.00  0.00    +0.000 C 
BRANCH  16  17
ATOM     17  C   UNL     1       2.809   2.882  18.942  0.00  0.00    +0.000 C 
ATOM     18  C   UNL     1       1.869   3.952  19.510  0.00  0.00    +0.000 C 
ATOM     19  C   UNL     1       0.673   3.163  19.996  0.00  0.00    +0.000 C 
ATOM     20  F   UNL     1       0.959   2.658  21.234  0.00  0.00    +0.000 F 
ATOM     21  C   UNL     1       0.596   2.027  18.994  0.00  0.00    +0.000 C 
ATOM     22  N   UNL     1       1.999   1.663  18.751  0.00  0.00    +0.000 NA
ATOM     23  H   UNL     1       2.106   1.310  17.797  0.00  0.00    +0.000 HD
ENDBRANCH  16  17
ENDBRANCH   4  16
TORSDOF 4
ENDMDL
MODEL 9
REMARK VINA RESULT:      -7.3      1.613      2.988
REMARK  Name = 
REMARK  7 active torsions:
REMARK  status: ('A' for Active; 'I' for Inactive)
REMARK    1  A    between atoms: C_1  and  C_2
REMARK    2  A    between atoms: C_4  and  N_5
REMARK    3  A    between atoms: N_8  and  C_9
REMARK    4  A    between atoms: C_9  and  C_10
REMARK    5  A    between atoms: N_16  and  C_17
REMARK    6  A    between atoms: C_17  and  C_18
REMARK    7  A    between atoms: C_17  and  C_19
REMARK                            x       y       z     vdW  Elec       q    Type
REMARK                         _______ _______ _______ _____ _____    ______ ____
ROOT
ATOM      1  N   UNL     1       4.729   3.780  16.616  0.00  0.00    +0.000 N 
ATOM      2  C   UNL     1       3.662   4.553  17.157  0.00  0.00    +0.000 C 
ATOM      3  O   UNL     1       3.610   5.769  17.054  0.00  0.00    +0.000 OA
ATOM      4  N   UNL     1       2.760   3.788  17.827  0.00  0.00    +0.000 N 
ATOM      5  H   UNL     1       4.769   2.799  16.841  0.00  0.00    +0.000 HD
ATOM      6  H   UNL     1       2.759   2.776  17.796  0.00  0.00    +0.000 HD
ENDROOT
BRANCH   1  10
ATOM      7  C   UNL     1       7.778   5.121  12.882  0.00  0.00    +0.000 C 
ATOM      8  C   UNL     1       7.120   4.959  14.201  0.00  0.00    +0.000 A 
ATOM      9  C   UNL     1       6.002   4.161  14.516  0.00  0.00    +0.000 A 
ATOM     10  C   UNL     1       5.754   4.355  15.858  0.00  0.00    +0.000 A 
ATOM     11  N   UNL     1       6.747   5.220  16.277  0.00  0.00    +0.000 N 
ATOM     12  N   UNL     1       7.571   5.608  15.277  0.00  0.00    +0.000 NA
BRANCH  11  13
ATOM     13  C   UNL     1       6.969   5.775  17.609  0.00  0.00    +0.000 C 
ATOM     14  C   UNL     1       7.909   4.890  18.430  0.00  0.00    +0.000 C 
ATOM     15  C   UNL     1       7.502   7.209  17.546  0.00  0.00    +0.000 C 
ENDBRANCH  11  13
ENDBRANCH   1  10
BRANCH   4  16
ATOM     16  C   UNL     1       1.612   4.449  18.429  0.00  0.00    +0.000 C 
BRANCH  16  17
ATOM     17  C   UNL     1       1.610   4.478  19.968  0.00  0.00    +0.000 C 
ATOM     18  C   UNL     1       2.979   4.159  20.580  0.00  0.00    +0.000 C 
ATOM     19  C   UNL     1       2.823   2.746  21.099  0.00  0.00    +0.000 C 
ATOM     20  F   UNL     1       3.007   1.877  20.060  0.00  0.00    +0.000 F 
ATOM     21  C   UNL     1       1.370   2.710  21.534  0.00  0.00    +0.000 C 
ATOM     22  N   UNL     1       0.664   3.476  20.496  0.00  0.00    +0.000 NA
ATOM     23  H   UNL     1      -0.155   3.937  20.900  0.00  0.00    +0.000 HD
ENDBRANCH  16  17
ENDBRANCH   4  16
TORSDOF 4
ENDMDL
