MODEL 1
REMARK VINA RESULT:      -7.1      0.000      0.000
REMARK  Name = 
REMARK  7 active torsions:
REMARK  status: ('A' for Active; 'I' for Inactive)
REMARK    1  A    between atoms: C_1  and  C_2
REMARK    2  A    between atoms: C_2  and  O_3
REMARK    3  A    between atoms: O_3  and  C_4
REMARK    4  A    between atoms: C_4  and  N_5
REMARK    5  A    between atoms: C_6  and  S_7
REMARK    6  A    between atoms: S_7  and  C_8
REMARK    7  A    between atoms: C_14  and  C_15
REMARK                            x       y       z     vdW  Elec       q    Type
REMARK                         _______ _______ _______ _____ _____    ______ ____
ROOT
ATOM      1  N   UNL     1       3.158   4.535  19.782  0.00  0.00    +0.000 N 
ATOM      2  C   UNL     1       3.267   5.527  18.793  0.00  0.00    +0.000 A 
ATOM      3  C   UNL     1       2.685   6.736  18.960  0.00  0.00    +0.000 A 
ATOM      4  C   UNL     1       2.742   7.935  18.055  0.00  0.00    +0.000 C 
ATOM      5  C   UNL     1       1.899   6.974  20.193  0.00  0.00    +0.000 A 
ATOM      6  O   UNL     1       1.328   8.039  20.411  0.00  0.00    +0.000 OA
ATOM      7  N   UNL     1       1.838   5.953  21.082  0.00  0.00    +0.000 N 
ATOM      8  C   UNL     1       2.441   4.738  20.948  0.00  0.00    +0.000 A 
ATOM      9  O   UNL     1       2.293   3.909  21.846  0.00  0.00    +0.000 OA
ATOM     10  H   UNL     1       1.317   6.110  21.929  0.00  0.00    +0.000 HD
ENDROOT
BRANCH   1  11
ATOM     11  C   UNL     1       3.786   3.222  19.658  0.00  0.00    +0.000 C 
BRANCH  11  12
ATOM     12  O   UNL     1       2.793   2.201  19.672  0.00  0.00    +0.000 OA
BRANCH  12  14
ATOM     13  C   UNL     1       0.638   2.414  18.655  0.00  0.00    +0.000 C 
ATOM     14  C   UNL     1       2.110   2.133  18.423  0.00  0.00    +0.000 C 
ENDBRANCH  12  14
ENDBRANCH  11  12
ENDBRANCH   1  11
BRANCH   2  15
ATOM     15  S   UNL     1       4.273   5.238  17.391  0.00  0.00    +0.000 S 
BRANCH  15  16
ATOM     16  C   UNL     1       5.880   5.901  17.807  0.00  0.00    +0.000 A 
ATOM     17  C   UNL     1       6.728   5.402  18.797  0.00  0.00    +0.000 A 
ATOM     18  C   UNL     1       7.917   6.070  19.118  0.00  0.00    +0.000 A 
ATOM     19  C   UNL     1       8.275   7.238  18.452  0.00  0.00    +0.000 A 
ATOM     20  C   UNL     1       7.462   7.730  17.437  0.00  0.00    +0.000 A 
ATOM     21  C   UNL     1       6.273   7.061  17.118  0.00  0.00    +0.000 A 
ENDBRANCH  15  16
ENDBRANCH   2  15
TORSDOF 5
ENDMDL
MODEL 2
REMARK VINA RESULT:      -7.0      2.244      4.909
REMARK  Name = 
REMARK  7 active torsions:
REMARK  status: ('A' for Active; 'I' for Inactive)
REMARK    1  A    between atoms: C_1  and  C_2
REMARK    2  A    between atoms: C_2  and  O_3
REMARK    3  A    between atoms: O_3  and  C_4
REMARK    4  A    between atoms: C_4  and  N_5
REMARK    5  A    between atoms: C_6  and  S_7
REMARK    6  A    between atoms: S_7  and  C_8
REMARK    7  A    between atoms: C_14  and  C_15
REMARK                            x       y       z     vdW  Elec       q    Type
REMARK                         _______ _______ _______ _____ _____    ______ ____
ROOT
ATOM      1  N   UNL     1       4.511   4.086  19.050  0.00  0.00    +0.000 N 
ATOM      2  C   UNL     1       3.516   4.654  18.237  0.00  0.00    +0.000 A 
ATOM      3  C   UNL     1       2.325   4.036  18.067  0.00  0.00    +0.000 A 
ATOM      4  C   UNL     1       1.126   4.512  17.296  0.00  0.00    +0.000 C 
ATOM      5  C   UNL     1       2.111   2.728  18.727  0.00  0.00    +0.000 A 
ATOM      6  O   UNL     1       1.065   2.096  18.608  0.00  0.00    +0.000 OA
ATOM      7  N   UNL     1       3.134   2.251  19.478  0.00  0.00    +0.000 N 
ATOM      8  C   UNL     1       4.330   2.870  19.688  0.00  0.00    +0.000 A 
ATOM      9  O   UNL     1       5.163   2.309  20.400  0.00  0.00    +0.000 OA
ATOM     10  H   UNL     1       2.993   1.368  19.942  0.00  0.00    +0.000 HD
ENDROOT
BRANCH   1  11
ATOM     11  C   UNL     1       5.803   4.724  19.283  0.00  0.00    +0.000 C 
BRANCH  11  12
ATOM     12  O   UNL     1       6.773   4.211  18.375  0.00  0.00    +0.000 OA
BRANCH  12  14
ATOM     13  C   UNL     1       7.781   6.365  18.637  0.00  0.00    +0.000 C 
ATOM     14  C   UNL     1       7.415   5.264  17.661  0.00  0.00    +0.000 C 
ENDBRANCH  12  14
ENDBRANCH  11  12
ENDBRANCH   1  11
BRANCH   2  15
ATOM     15  S   UNL     1       3.774   6.239  17.544  0.00  0.00    +0.000 S 
BRANCH  15  16
ATOM     16  C   UNL     1       2.655   7.332  18.410  0.00  0.00    +0.000 A 
ATOM     17  C   UNL     1       2.078   8.485  17.878  0.00  0.00    +0.000 A 
ATOM     18  C   UNL     1       1.305   9.332  18.684  0.00  0.00    +0.000 A 
ATOM     19  C   UNL     1       1.095   9.032  20.027  0.00  0.00    +0.000 A 
ATOM     20  C   UNL     1       1.630   7.867  20.566  0.00  0.00    +0.000 A 
ATOM     21  C   UNL     1       2.403   7.023  19.759  0.00  0.00    +0.000 A 
ENDBRANCH  15  16
ENDBRANCH   2  15
TORSDOF 5
ENDMDL
MODEL 3
REMARK VINA RESULT:      -7.0      2.220      4.780
REMARK  Name = 
REMARK  7 active torsions:
REMARK  status: ('A' for Active; 'I' for Inactive)
REMARK    1  A    between atoms: C_1  and  C_2
REMARK    2  A    between atoms: C_2  and  O_3
REMARK    3  A    between atoms: O_3  and  C_4
REMARK    4  A    between atoms: C_4  and  N_5
REMARK    5  A    between atoms: C_6  and  S_7
REMARK    6  A    between atoms: S_7  and  C_8
REMARK    7  A    between atoms: C_14  and  C_15
REMARK                            x       y       z     vdW  Elec       q    Type
REMARK                         _______ _______ _______ _____ _____    ______ ____
ROOT
ATOM      1  N   UNL     1       4.483   4.107  19.065  0.00  0.00    +0.000 N 
ATOM      2  C   UNL     1       3.474   4.646  18.249  0.00  0.00    +0.000 A 
ATOM      3  C   UNL     1       2.296   4.001  18.088  0.00  0.00    +0.000 A 
ATOM      4  C   UNL     1       1.084   4.444  17.316  0.00  0.00    +0.000 C 
ATOM      5  C   UNL     1       2.112   2.695  18.762  0.00  0.00    +0.000 A 
ATOM      6  O   UNL     1       1.079   2.040  18.652  0.00  0.00    +0.000 OA
ATOM      7  N   UNL     1       3.147   2.248  19.515  0.00  0.00    +0.000 N 
ATOM      8  C   UNL     1       4.329   2.895  19.715  0.00  0.00    +0.000 A 
ATOM      9  O   UNL     1       5.176   2.359  20.431  0.00  0.00    +0.000 OA
ATOM     10  H   UNL     1       3.026   1.366  19.988  0.00  0.00    +0.000 HD
ENDROOT
BRANCH   1  11
ATOM     11  C   UNL     1       5.762   4.776  19.287  0.00  0.00    +0.000 C 
BRANCH  11  12
ATOM     12  O   UNL     1       6.766   4.201  18.456  0.00  0.00    +0.000 OA
BRANCH  12  14
ATOM     13  C   UNL     1       7.614   6.416  18.139  0.00  0.00    +0.000 C 
ATOM     14  C   UNL     1       7.198   5.125  17.461  0.00  0.00    +0.000 C 
ENDBRANCH  12  14
ENDBRANCH  11  12
ENDBRANCH   1  11
BRANCH   2  15
ATOM     15  S   UNL     1       3.696   6.230  17.539  0.00  0.00    +0.000 S 
BRANCH  15  16
ATOM     16  C   UNL     1       2.727   7.347  18.543  0.00  0.00    +0.000 A 
ATOM     17  C   UNL     1       2.360   7.129  19.871  0.00  0.00    +0.000 A 
ATOM     18  C   UNL     1       1.500   8.019  20.528  0.00  0.00    +0.000 A 
ATOM     19  C   UNL     1       1.003   9.139  19.869  0.00  0.00    +0.000 A 
ATOM     20  C   UNL     1       1.387   9.394  18.557  0.00  0.00    +0.000 A 
ATOM     21  C   UNL     1       2.245   8.502  17.902  0.00  0.00    +0.000 A 
ENDBRANCH  15  16
ENDBRANCH   2  15
TORSDOF 5
ENDMDL
MODEL 4
REMARK VINA RESULT:      -6.9      0.298      1.115
REMARK  Name = 
REMARK  7 active torsions:
REMARK  status: ('A' for Active; 'I' for Inactive)
REMARK    1  A    between atoms: C_1  and  C_2
REMARK    2  A    between atoms: C_2  and  O_3
REMARK    3  A    between atoms: O_3  and  C_4
REMARK    4  A    between atoms: C_4  and  N_5
REMARK    5  A    between atoms: C_6  and  S_7
REMARK    6  A    between atoms: S_7  and  C_8
REMARK    7  A    between atoms: C_14  and  C_15
REMARK                            x       y       z     vdW  Elec       q    Type
REMARK                         _______ _______ _______ _____ _____    ______ ____
ROOT
ATOM      1  N   UNL     1       3.138   4.289  19.942  0.00  0.00    +0.000 N 
ATOM      2  C   UNL     1       3.189   5.318  18.987  0.00  0.00    +0.000 A 
ATOM      3  C   UNL     1       2.574   6.501  19.212  0.00  0.00    +0.000 A 
ATOM      4  C   UNL     1       2.570   7.732  18.349  0.00  0.00    +0.000 C 
ATOM      5  C   UNL     1       1.812   6.670  20.470  0.00  0.00    +0.000 A 
ATOM      6  O   UNL     1       1.212   7.707  20.740  0.00  0.00    +0.000 OA
ATOM      7  N   UNL     1       1.806   5.616  21.323  0.00  0.00    +0.000 N 
ATOM      8  C   UNL     1       2.443   4.427  21.131  0.00  0.00    +0.000 A 
ATOM      9  O   UNL     1       2.344   3.562  22.003  0.00  0.00    +0.000 OA
ATOM     10  H   UNL     1       1.301   5.726  22.188  0.00  0.00    +0.000 HD
ENDROOT
BRANCH   1  11
ATOM     11  C   UNL     1       3.804   3.003  19.756  0.00  0.00    +0.000 C 
BRANCH  11  12
ATOM     12  O   UNL     1       2.838   1.978  19.541  0.00  0.00    +0.000 OA
BRANCH  12  14
ATOM     13  C   UNL     1       0.652   2.286  18.618  0.00  0.00    +0.000 C 
ATOM     14  C   UNL     1       2.135   2.185  18.319  0.00  0.00    +0.000 C 
ENDBRANCH  12  14
ENDBRANCH  11  12
ENDBRANCH   1  11
BRANCH   2  15
ATOM     15  S   UNL     1       4.169   5.111  17.553  0.00  0.00    +0.000 S 
BRANCH  15  16
ATOM     16  C   UNL     1       5.704   5.963  17.891  0.00  0.00    +0.000 A 
ATOM     17  C   UNL     1       6.197   7.056  17.177  0.00  0.00    +0.000 A 
ATOM     18  C   UNL     1       7.468   7.574  17.456  0.00  0.00    +0.000 A 
ATOM     19  C   UNL     1       8.258   7.012  18.454  0.00  0.00    +0.000 A 
ATOM     20  C   UNL     1       7.770   5.946  19.203  0.00  0.00    +0.000 A 
ATOM     21  C   UNL     1       6.499   5.429  18.921  0.00  0.00    +0.000 A 
ENDBRANCH  15  16
ENDBRANCH   2  15
TORSDOF 5
ENDMDL
MODEL 5
REMARK VINA RESULT:      -6.7      1.520      3.755
REMARK  Name = 
REMARK  7 active torsions:
REMARK  status: ('A' for Active; 'I' for Inactive)
REMARK    1  A    between atoms: C_1  and  C_2
REMARK    2  A    between atoms: C_2  and  O_3
REMARK    3  A    between atoms: O_3  and  C_4
REMARK    4  A    between atoms: C_4  and  N_5
REMARK    5  A    between atoms: C_6  and  S_7
REMARK    6  A    between atoms: S_7  and  C_8
REMARK    7  A    between atoms: C_14  and  C_15
REMARK                            x       y       z     vdW  Elec       q    Type
REMARK                         _______ _______ _______ _____ _____    ______ ____
ROOT
ATOM      1  N   UNL     1       2.474   5.071  19.280  0.00  0.00    +0.000 N 
ATOM      2  C   UNL     1       3.469   4.097  19.087  0.00  0.00    +0.000 A 
ATOM      3  C   UNL     1       3.642   3.100  19.983  0.00  0.00    +0.000 A 
ATOM      4  C   UNL     1       4.599   1.941  19.921  0.00  0.00    +0.000 C 
ATOM      5  C   UNL     1       2.785   3.082  21.191  0.00  0.00    +0.000 A 
ATOM      6  O   UNL     1       2.892   2.219  22.059  0.00  0.00    +0.000 OA
ATOM      7  N   UNL     1       1.865   4.071  21.298  0.00  0.00    +0.000 N 
ATOM      8  C   UNL     1       1.652   5.068  20.394  0.00  0.00    +0.000 A 
ATOM      9  O   UNL     1       0.773   5.897  20.632  0.00  0.00    +0.000 OA
ATOM     10  H   UNL     1       1.268   4.060  22.110  0.00  0.00    +0.000 HD
ENDROOT
BRANCH   1  11
ATOM     11  C   UNL     1       2.233   6.154  18.331  0.00  0.00    +0.000 C 
BRANCH  11  12
ATOM     12  O   UNL     1       2.895   7.339  18.762  0.00  0.00    +0.000 OA
BRANCH  12  14
ATOM     13  C   UNL     1       1.531   9.157  18.013  0.00  0.00    +0.000 C 
ATOM     14  C   UNL     1       2.803   8.365  17.777  0.00  0.00    +0.000 C 
ENDBRANCH  12  14
ENDBRANCH  11  12
ENDBRANCH   1  11
BRANCH   2  15
ATOM     15  S   UNL     1       4.403   4.103  17.608  0.00  0.00    +0.000 S 
BRANCH  15  16
ATOM     16  C   UNL     1       5.696   5.312  17.860  0.00  0.00    +0.000 A 
ATOM     17  C   UNL     1       5.916   6.437  17.065  0.00  0.00    +0.000 A 
ATOM     18  C   UNL     1       7.031   7.257  17.285  0.00  0.00    +0.000 A 
ATOM     19  C   UNL     1       7.933   6.966  18.304  0.00  0.00    +0.000 A 
ATOM     20  C   UNL     1       7.710   5.871  19.131  0.00  0.00    +0.000 A 
ATOM     21  C   UNL     1       6.596   5.052  18.908  0.00  0.00    +0.000 A 
ENDBRANCH  15  16
ENDBRANCH   2  15
TORSDOF 5
ENDMDL
MODEL 6
REMARK VINA RESULT:      -6.6      1.297      3.773
REMARK  Name = 
REMARK  7 active torsions:
REMARK  status: ('A' for Active; 'I' for Inactive)
REMARK    1  A    between atoms: C_1  and  C_2
REMARK    2  A    between atoms: C_2  and  O_3
REMARK    3  A    between atoms: O_3  and  C_4
REMARK    4  A    between atoms: C_4  and  N_5
REMARK    5  A    between atoms: C_6  and  S_7
REMARK    6  A    between atoms: S_7  and  C_8
REMARK    7  A    between atoms: C_14  and  C_15
REMARK                            x       y       z     vdW  Elec       q    Type
REMARK                         _______ _______ _______ _____ _____    ______ ____
ROOT
ATOM      1  N   UNL     1       2.649   5.895  19.273  0.00  0.00    +0.000 N 
ATOM      2  C   UNL     1       3.167   4.742  18.659  0.00  0.00    +0.000 A 
ATOM      3  C   UNL     1       2.830   3.511  19.106  0.00  0.00    +0.000 A 
ATOM      4  C   UNL     1       3.225   2.172  18.547  0.00  0.00    +0.000 C 
ATOM      5  C   UNL     1       1.934   3.409  20.281  0.00  0.00    +0.000 A 
ATOM      6  O   UNL     1       1.595   2.328  20.756  0.00  0.00    +0.000 OA
ATOM      7  N   UNL     1       1.498   4.576  20.816  0.00  0.00    +0.000 N 
ATOM      8  C   UNL     1       1.800   5.826  20.365  0.00  0.00    +0.000 A 
ATOM      9  O   UNL     1       1.323   6.793  20.958  0.00  0.00    +0.000 OA
ATOM     10  H   UNL     1       0.878   4.517  21.608  0.00  0.00    +0.000 HD
ENDROOT
BRANCH   1  11
ATOM     11  C   UNL     1       2.964   7.245  18.815  0.00  0.00    +0.000 C 
BRANCH  11  12
ATOM     12  O   UNL     1       1.971   7.696  17.899  0.00  0.00    +0.000 OA
BRANCH  12  14
ATOM     13  C   UNL     1       0.729   9.692  18.342  0.00  0.00    +0.000 C 
ATOM     14  C   UNL     1       2.005   9.114  17.763  0.00  0.00    +0.000 C 
ENDBRANCH  12  14
ENDBRANCH  11  12
ENDBRANCH   1  11
BRANCH   2  15
ATOM     15  S   UNL     1       4.152   4.902  17.223  0.00  0.00    +0.000 S 
BRANCH  15  16
ATOM     16  C   UNL     1       5.638   5.744  17.750  0.00  0.00    +0.000 A 
ATOM     17  C   UNL     1       6.221   6.835  17.104  0.00  0.00    +0.000 A 
ATOM     18  C   UNL     1       7.451   7.346  17.539  0.00  0.00    +0.000 A 
ATOM     19  C   UNL     1       8.109   6.777  18.625  0.00  0.00    +0.000 A 
ATOM     20  C   UNL     1       7.527   5.713  19.306  0.00  0.00    +0.000 A 
ATOM     21  C   UNL     1       6.297   5.204  18.868  0.00  0.00    +0.000 A 
ENDBRANCH  15  16
ENDBRANCH   2  15
TORSDOF 5
ENDMDL
MODEL 7
REMARK VINA RESULT:      -6.6      1.806      2.550
REMARK  Name = 
REMARK  7 active torsions:
REMARK  status: ('A' for Active; 'I' for Inactive)
REMARK    1  A    between atoms: C_1  and  C_2
REMARK    2  A    between atoms: C_2  and  O_3
REMARK    3  A    between atoms: O_3  and  C_4
REMARK    4  A    between atoms: C_4  and  N_5
REMARK    5  A    between atoms: C_6  and  S_7
REMARK    6  A    between atoms: S_7  and  C_8
REMARK    7  A    between atoms: C_14  and  C_15
REMARK                            x       y       z     vdW  Elec       q    Type
REMARK                         _______ _______ _______ _____ _____    ______ ____
ROOT
ATOM      1  N   UNL     1       3.517   3.110  19.970  0.00  0.00    +0.000 N 
ATOM      2  C   UNL     1       3.510   4.179  19.059  0.00  0.00    +0.000 A 
ATOM      3  C   UNL     1       2.802   5.302  19.315  0.00  0.00    +0.000 A 
ATOM      4  C   UNL     1       2.722   6.564  18.503  0.00  0.00    +0.000 C 
ATOM      5  C   UNL     1       2.004   5.361  20.561  0.00  0.00    +0.000 A 
ATOM      6  O   UNL     1       1.321   6.338  20.858  0.00  0.00    +0.000 OA
ATOM      7  N   UNL     1       2.060   4.275  21.371  0.00  0.00    +0.000 N 
ATOM      8  C   UNL     1       2.789   3.146  21.147  0.00  0.00    +0.000 A 
ATOM      9  O   UNL     1       2.738   2.241  21.981  0.00  0.00    +0.000 OA
ATOM     10  H   UNL     1       1.530   4.311  22.228  0.00  0.00    +0.000 HD
ENDROOT
BRANCH   1  11
ATOM     11  C   UNL     1       4.283   1.887  19.749  0.00  0.00    +0.000 C 
BRANCH  11  12
ATOM     12  O   UNL     1       5.244   1.716  20.787  0.00  0.00    +0.000 OA
BRANCH  12  14
ATOM     13  C   UNL     1       6.308   0.175  22.276  0.00  0.00    +0.000 C 
ATOM     14  C   UNL     1       5.571   0.340  20.961  0.00  0.00    +0.000 C 
ENDBRANCH  12  14
ENDBRANCH  11  12
ENDBRANCH   1  11
BRANCH   2  15
ATOM     15  S   UNL     1       4.532   4.107  17.641  0.00  0.00    +0.000 S 
BRANCH  15  16
ATOM     16  C   UNL     1       5.842   5.288  17.931  0.00  0.00    +0.000 A 
ATOM     17  C   UNL     1       6.200   6.326  17.069  0.00  0.00    +0.000 A 
ATOM     18  C   UNL     1       7.319   7.124  17.341  0.00  0.00    +0.000 A 
ATOM     19  C   UNL     1       8.088   6.898  18.478  0.00  0.00    +0.000 A 
ATOM     20  C   UNL     1       7.727   5.893  19.369  0.00  0.00    +0.000 A 
ATOM     21  C   UNL     1       6.608   5.096  19.094  0.00  0.00    +0.000 A 
ENDBRANCH  15  16
ENDBRANCH   2  15
TORSDOF 5
ENDMDL
MODEL 8
REMARK VINA RESULT:      -6.6      0.918      1.176
REMARK  Name = 
REMARK  7 active torsions:
REMARK  status: ('A' for Active; 'I' for Inactive)
REMARK    1  A    between atoms: C_1  and  C_2
REMARK    2  A    between atoms: C_2  and  O_3
REMARK    3  A    between atoms: O_3  and  C_4
REMARK    4  A    between atoms: C_4  and  N_5
REMARK    5  A    between atoms: C_6  and  S_7
REMARK    6  A    between atoms: S_7  and  C_8
REMARK    7  A    between atoms: C_14  and  C_15
REMARK                            x       y       z     vdW  Elec       q    Type
REMARK                         _______ _______ _______ _____ _____    ______ ____
ROOT
ATOM      1  N   UNL     1       2.610   4.740  19.488  0.00  0.00    +0.000 N 
ATOM      2  C   UNL     1       2.963   5.770  18.600  0.00  0.00    +0.000 A 
ATOM      3  C   UNL     1       2.604   7.050  18.848  0.00  0.00    +0.000 A 
ATOM      4  C   UNL     1       2.939   8.285  18.060  0.00  0.00    +0.000 C 
ATOM      5  C   UNL     1       1.796   7.332  20.056  0.00  0.00    +0.000 A 
ATOM      6  O   UNL     1       1.416   8.464  20.343  0.00  0.00    +0.000 OA
ATOM      7  N   UNL     1       1.490   6.272  20.844  0.00  0.00    +0.000 N 
ATOM      8  C   UNL     1       1.867   4.980  20.630  0.00  0.00    +0.000 A 
ATOM      9  O   UNL     1       1.511   4.124  21.441  0.00  0.00    +0.000 OA
ATOM     10  H   UNL     1       0.952   6.456  21.676  0.00  0.00    +0.000 HD
ENDROOT
BRANCH   1  11
ATOM     11  C   UNL     1       2.994   3.347  19.276  0.00  0.00    +0.000 C 
BRANCH  11  12
ATOM     12  O   UNL     1       4.154   3.036  20.042  0.00  0.00    +0.000 OA
BRANCH  12  14
ATOM     13  C   UNL     1       3.938   1.198  18.526  0.00  0.00    +0.000 C 
ATOM     14  C   UNL     1       4.581   1.697  19.805  0.00  0.00    +0.000 C 
ENDBRANCH  12  14
ENDBRANCH  11  12
ENDBRANCH   1  11
BRANCH   2  15
ATOM     15  S   UNL     1       3.989   5.410  17.229  0.00  0.00    +0.000 S 
BRANCH  15  16
ATOM     16  C   UNL     1       5.644   5.860  17.735  0.00  0.00    +0.000 A 
ATOM     17  C   UNL     1       6.368   5.254  18.762  0.00  0.00    +0.000 A 
ATOM     18  C   UNL     1       7.614   5.763  19.152  0.00  0.00    +0.000 A 
ATOM     19  C   UNL     1       8.153   6.878  18.516  0.00  0.00    +0.000 A 
ATOM     20  C   UNL     1       7.464   7.473  17.464  0.00  0.00    +0.000 A 
ATOM     21  C   UNL     1       6.218   6.963  17.078  0.00  0.00    +0.000 A 
ENDBRANCH  15  16
ENDBRANCH   2  15
TORSDOF 5
ENDMDL
MODEL 9
REMARK VINA RESULT:      -6.6      1.650      2.144
REMARK  Name = 
REMARK  7 active torsions:
REMARK  status: ('A' for Active; 'I' for Inactive)
REMARK    1  A    between atoms: C_1  and  C_2
REMARK    2  A    between atoms: C_2  and  O_3
REMARK    3  A    between atoms: O_3  and  C_4
REMARK    4  A    between atoms: C_4  and  N_5
REMARK    5  A    between atoms: C_6  and  S_7
REMARK    6  A    between atoms: S_7  and  C_8
REMARK    7  A    between atoms: C_14  and  C_15
REMARK                            x       y       z     vdW  Elec       q    Type
REMARK                         _______ _______ _______ _____ _____    ______ ____
ROOT
ATOM      1  N   UNL     1       3.373   3.314  19.897  0.00  0.00    +0.000 N 
ATOM      2  C   UNL     1       3.389   4.391  18.995  0.00  0.00    +0.000 A 
ATOM      3  C   UNL     1       2.747   5.545  19.285  0.00  0.00    +0.000 A 
ATOM      4  C   UNL     1       2.703   6.818  18.486  0.00  0.00    +0.000 C 
ATOM      5  C   UNL     1       1.996   5.632  20.558  0.00  0.00    +0.000 A 
ATOM      6  O   UNL     1       1.374   6.639  20.887  0.00  0.00    +0.000 OA
ATOM      7  N   UNL     1       2.026   4.537  21.357  0.00  0.00    +0.000 N 
ATOM      8  C   UNL     1       2.689   3.375  21.099  0.00  0.00    +0.000 A 
ATOM      9  O   UNL     1       2.622   2.466  21.927  0.00  0.00    +0.000 OA
ATOM     10  H   UNL     1       1.528   4.590  22.232  0.00  0.00    +0.000 HD
ENDROOT
BRANCH   1  11
ATOM     11  C   UNL     1       4.069   2.056  19.640  0.00  0.00    +0.000 C 
BRANCH  11  12
ATOM     12  O   UNL     1       5.172   1.916  20.529  0.00  0.00    +0.000 OA
BRANCH  12  14
ATOM     13  C   UNL     1       6.063   0.417  22.168  0.00  0.00    +0.000 C 
ATOM     14  C   UNL     1       5.451   0.542  20.787  0.00  0.00    +0.000 C 
ENDBRANCH  12  14
ENDBRANCH  11  12
ENDBRANCH   1  11
BRANCH   2  15
ATOM     15  S   UNL     1       4.356   4.281  17.542  0.00  0.00    +0.000 S 
BRANCH  15  16
ATOM     16  C   UNL     1       5.829   5.240  17.871  0.00  0.00    +0.000 A 
ATOM     17  C   UNL     1       6.721   5.017  18.921  0.00  0.00    +0.000 A 
ATOM     18  C   UNL     1       7.782   5.902  19.154  0.00  0.00    +0.000 A 
ATOM     19  C   UNL     1       7.969   7.013  18.337  0.00  0.00    +0.000 A 
ATOM     20  C   UNL     1       7.114   7.231  17.262  0.00  0.00    +0.000 A 
ATOM     21  C   UNL     1       6.052   6.346  17.032  0.00  0.00    +0.000 A 
ENDBRANCH  15  16
ENDBRANCH   2  15
TORSDOF 5
ENDMDL
