MODEL 1
REMARK VINA RESULT:      -8.0      0.000      0.000
REMARK  Name = 
REMARK  11 active torsions:
REMARK  status: ('A' for Active; 'I' for Inactive)
REMARK    1  A    between atoms: C_1  and  O_2
REMARK    2  A    between atoms: O_2  and  C_3
REMARK    3  A    between atoms: C_3  and  C_4
REMARK    4  A    between atoms: C_4  and  N_5
REMARK    5  A    between atoms: N_5  and  C_6
REMARK    6  A    between atoms: C_9  and  C_10
REMARK    7  A    between atoms: N_12  and  C_13
REMARK    8  A    between atoms: C_19  and  C_20
REMARK    9  A    between atoms: C_24  and  C_25
REMARK   10  A    between atoms: C_25  and  C_26
REMARK   11  A    between atoms: C_25  and  C_27
REMARK                            x       y       z     vdW  Elec       q    Type
REMARK                         _______ _______ _______ _____ _____    ______ ____
ROOT
ATOM      1  C   UNL     1       1.822   6.684  20.227  0.00  0.00    +0.000 C 
ATOM      2  O   UNL     1       1.201   6.262  21.198  0.00  0.00    +0.000 OA
ATOM      3  N   UNL     1       1.869   8.038  19.911  0.00  0.00    +0.000 N 
ATOM      4  H   UNL     1       2.098   8.230  18.937  0.00  0.00    +0.000 HD
ENDROOT
BRANCH   1   9
ATOM      5  N   UNL     1       5.112   5.372  16.879  0.00  0.00    +0.000 N 
ATOM      6  C   UNL     1       5.400   4.352  15.880  0.00  0.00    +0.000 C 
ATOM      7  C   UNL     1       4.041   5.256  17.725  0.00  0.00    +0.000 A 
ATOM      8  N   UNL     1       3.601   6.213  18.522  0.00  0.00    +0.000 NA
ATOM      9  C   UNL     1       2.505   5.779  19.291  0.00  0.00    +0.000 A 
ATOM     10  C   UNL     1       2.146   4.453  19.089  0.00  0.00    +0.000 A 
ATOM     11  S   UNL     1       3.146   3.784  17.871  0.00  0.00    +0.000 S 
BRANCH  10  12
ATOM     12  C   UNL     1       1.127   3.545  19.749  0.00  0.00    +0.000 C 
ATOM     13  C   UNL     1       0.637   2.451  18.798  0.00  0.00    +0.000 C 
ATOM     14  C   UNL     1       1.571   2.994  21.105  0.00  0.00    +0.000 C 
ENDBRANCH  10  12
BRANCH   5  15
ATOM     15  C   UNL     1       5.846   6.634  16.802  0.00  0.00    +0.000 C 
BRANCH  15  16
ATOM     16  C   UNL     1       7.353   6.437  17.008  0.00  0.00    +0.000 C 
BRANCH  16  18
ATOM     17  C   UNL     1       7.732   5.791  19.239  0.00  0.00    +0.000 C 
ATOM     18  O   UNL     1       7.718   6.876  18.321  0.00  0.00    +0.000 OA
ENDBRANCH  16  18
ENDBRANCH  15  16
ENDBRANCH   5  15
ENDBRANCH   1   9
BRANCH   3  19
ATOM     19  C   UNL     1       1.155   8.988  20.690  0.00  0.00    +0.000 A 
ATOM     20  C   UNL     1       1.006   8.778  22.078  0.00  0.00    +0.000 A 
ATOM     21  C   UNL     1       0.202   9.603  22.859  0.00  0.00    +0.000 A 
ATOM     22  C   UNL     1      -0.450  10.664  22.264  0.00  0.00    +0.000 A 
ATOM     23  F   UNL     1      -1.264  11.439  22.991  0.00  0.00    +0.000 F 
ATOM     24  C   UNL     1      -0.277  10.927  20.908  0.00  0.00    +0.000 A 
ATOM     25  C   UNL     1       0.537  10.101  20.101  0.00  0.00    +0.000 A 
BRANCH  25  26
ATOM     26  C   UNL     1       0.593  10.402  18.630  0.00  0.00    +0.000 C 
ATOM     27  F   UNL     1       0.051   9.435  17.836  0.00  0.00    +0.000 F 
ATOM     28  F   UNL     1      -0.063  11.552  18.314  0.00  0.00    +0.000 F 
ATOM     29  F   UNL     1       1.869  10.567  18.184  0.00  0.00    +0.000 F 
ENDBRANCH  25  26
ENDBRANCH   3  19
TORSDOF 7
ENDMDL
MODEL 2
REMARK VINA RESULT:      -8.0      0.862      1.038
REMARK  Name = 
REMARK  11 active torsions:
REMARK  status: ('A' for Active; 'I' for Inactive)
REMARK    1  A    between atoms: C_1  and  O_2
REMARK    2  A    between atoms: O_2  and  C_3
REMARK    3  A    between atoms: C_3  and  C_4
REMARK    4  A    between atoms: C_4  and  N_5
REMARK    5  A    between atoms: N_5  and  C_6
REMARK    6  A    between atoms: C_9  and  C_10
REMARK    7  A    between atoms: N_12  and  C_13
REMARK    8  A    between atoms: C_19  and  C_20
REMARK    9  A    between atoms: C_24  and  C_25
REMARK   10  A    between atoms: C_25  and  C_26
REMARK   11  A    between atoms: C_25  and  C_27
REMARK                            x       y       z     vdW  Elec       q    Type
REMARK                         _______ _______ _______ _____ _____    ______ ____
ROOT
ATOM      1  C   UNL     1       1.855   6.469  20.186  0.00  0.00    +0.000 C 
ATOM      2  O   UNL     1       0.899   6.052  20.833  0.00  0.00    +0.000 OA
ATOM      3  N   UNL     1       2.150   7.826  20.093  0.00  0.00    +0.000 N 
ATOM      4  H   UNL     1       2.717   8.073  19.283  0.00  0.00    +0.000 HD
ENDROOT
BRANCH   1   9
ATOM      5  N   UNL     1       5.414   5.265  17.081  0.00  0.00    +0.000 N 
ATOM      6  C   UNL     1       5.911   4.168  16.261  0.00  0.00    +0.000 C 
ATOM      7  C   UNL     1       4.361   5.091  17.940  0.00  0.00    +0.000 A 
ATOM      8  N   UNL     1       3.733   6.066  18.572  0.00  0.00    +0.000 NA
ATOM      9  C   UNL     1       2.717   5.567  19.408  0.00  0.00    +0.000 A 
ATOM     10  C   UNL     1       2.614   4.182  19.428  0.00  0.00    +0.000 A 
ATOM     11  S   UNL     1       3.750   3.522  18.331  0.00  0.00    +0.000 S 
BRANCH  10  12
ATOM     12  C   UNL     1       1.763   3.221  20.234  0.00  0.00    +0.000 C 
ATOM     13  C   UNL     1       1.198   2.095  19.366  0.00  0.00    +0.000 C 
ATOM     14  C   UNL     1       2.442   2.704  21.504  0.00  0.00    +0.000 C 
ENDBRANCH  10  12
BRANCH   5  15
ATOM     15  C   UNL     1       5.905   6.612  16.793  0.00  0.00    +0.000 C 
BRANCH  15  16
ATOM     16  C   UNL     1       7.152   6.959  17.615  0.00  0.00    +0.000 C 
BRANCH  16  18
ATOM     17  C   UNL     1       8.317   8.936  18.142  0.00  0.00    +0.000 C 
ATOM     18  O   UNL     1       7.748   8.154  17.099  0.00  0.00    +0.000 OA
ENDBRANCH  16  18
ENDBRANCH  15  16
ENDBRANCH   5  15
ENDBRANCH   1   9
BRANCH   3  19
ATOM     19  C   UNL     1       1.318   8.791  20.721  0.00  0.00    +0.000 A 
ATOM     20  C   UNL     1       1.125   8.739  22.118  0.00  0.00    +0.000 A 
ATOM     21  C   UNL     1       0.214   9.573  22.760  0.00  0.00    +0.000 A 
ATOM     22  C   UNL     1      -0.503  10.487  22.014  0.00  0.00    +0.000 A 
ATOM     23  F   UNL     1      -1.417  11.263  22.609  0.00  0.00    +0.000 F 
ATOM     24  C   UNL     1      -0.293  10.597  20.643  0.00  0.00    +0.000 A 
ATOM     25  C   UNL     1       0.630   9.760  19.975  0.00  0.00    +0.000 A 
BRANCH  25  26
ATOM     26  C   UNL     1       0.726   9.882  18.481  0.00  0.00    +0.000 C 
ATOM     27  F   UNL     1      -0.423  10.297  17.875  0.00  0.00    +0.000 F 
ATOM     28  F   UNL     1       1.687  10.766  18.097  0.00  0.00    +0.000 F 
ATOM     29  F   UNL     1       1.047   8.700  17.885  0.00  0.00    +0.000 F 
ENDBRANCH  25  26
ENDBRANCH   3  19
TORSDOF 7
ENDMDL
MODEL 3
REMARK VINA RESULT:      -7.9      3.921      6.463
REMARK  Name = 
REMARK  11 active torsions:
REMARK  status: ('A' for Active; 'I' for Inactive)
REMARK    1  A    between atoms: C_1  and  O_2
REMARK    2  A    between atoms: O_2  and  C_3
REMARK    3  A    between atoms: C_3  and  C_4
REMARK    4  A    between atoms: C_4  and  N_5
REMARK    5  A    between atoms: N_5  and  C_6
REMARK    6  A    between atoms: C_9  and  C_10
REMARK    7  A    between atoms: N_12  and  C_13
REMARK    8  A    between atoms: C_19  and  C_20
REMARK    9  A    between atoms: C_24  and  C_25
REMARK   10  A    between atoms: C_25  and  C_26
REMARK   11  A    between atoms: C_25  and  C_27
REMARK                            x       y       z     vdW  Elec       q    Type
REMARK                         _______ _______ _______ _____ _____    ______ ____
ROOT
ATOM      1  C   UNL     1       4.265   3.719  17.190  0.00  0.00    +0.000 C 
ATOM      2  O   UNL     1       3.192   3.192  16.914  0.00  0.00    +0.000 OA
ATOM      3  N   UNL     1       4.621   4.028  18.500  0.00  0.00    +0.000 N 
ATOM      4  H   UNL     1       5.336   4.750  18.577  0.00  0.00    +0.000 HD
ENDROOT
BRANCH   1   9
ATOM      5  N   UNL     1       6.235   3.835  12.734  0.00  0.00    +0.000 N 
ATOM      6  C   UNL     1       7.452   4.192  12.017  0.00  0.00    +0.000 C 
ATOM      7  C   UNL     1       6.092   4.101  14.070  0.00  0.00    +0.000 A 
ATOM      8  N   UNL     1       5.113   3.647  14.830  0.00  0.00    +0.000 NA
ATOM      9  C   UNL     1       5.223   4.122  16.150  0.00  0.00    +0.000 A 
ATOM     10  C   UNL     1       6.290   4.984  16.367  0.00  0.00    +0.000 A 
ATOM     11  S   UNL     1       7.193   5.128  14.920  0.00  0.00    +0.000 S 
BRANCH  10  12
ATOM     12  C   UNL     1       6.732   5.801  17.565  0.00  0.00    +0.000 C 
ATOM     13  C   UNL     1       7.838   5.099  18.356  0.00  0.00    +0.000 C 
ATOM     14  C   UNL     1       7.073   7.255  17.235  0.00  0.00    +0.000 C 
ENDBRANCH  10  12
BRANCH   5  15
ATOM     15  C   UNL     1       5.269   2.971  12.056  0.00  0.00    +0.000 C 
BRANCH  15  16
ATOM     16  C   UNL     1       4.050   3.754  11.554  0.00  0.00    +0.000 C 
BRANCH  16  18
ATOM     17  C   UNL     1       2.888   4.132   9.542  0.00  0.00    +0.000 C 
ATOM     18  O   UNL     1       3.577   3.173  10.334  0.00  0.00    +0.000 OA
ENDBRANCH  16  18
ENDBRANCH  15  16
ENDBRANCH   5  15
ENDBRANCH   1   9
BRANCH   3  19
ATOM     19  C   UNL     1       3.723   3.777  19.572  0.00  0.00    +0.000 A 
ATOM     20  C   UNL     1       3.777   2.540  20.250  0.00  0.00    +0.000 A 
ATOM     21  C   UNL     1       2.833   2.193  21.211  0.00  0.00    +0.000 A 
ATOM     22  C   UNL     1       1.830   3.088  21.523  0.00  0.00    +0.000 A 
ATOM     23  F   UNL     1       0.886   2.751  22.410  0.00  0.00    +0.000 F 
ATOM     24  C   UNL     1       1.784   4.337  20.909  0.00  0.00    +0.000 A 
ATOM     25  C   UNL     1       2.736   4.707  19.933  0.00  0.00    +0.000 A 
BRANCH  25  26
ATOM     26  C   UNL     1       2.558   6.035  19.254  0.00  0.00    +0.000 C 
ATOM     27  F   UNL     1       1.806   6.930  19.957  0.00  0.00    +0.000 F 
ATOM     28  F   UNL     1       3.746   6.656  19.016  0.00  0.00    +0.000 F 
ATOM     29  F   UNL     1       1.948   5.919  18.042  0.00  0.00    +0.000 F 
ENDBRANCH  25  26
ENDBRANCH   3  19
TORSDOF 7
ENDMDL
MODEL 4
REMARK VINA RESULT:      -7.7      4.752      6.854
REMARK  Name = 
REMARK  11 active torsions:
REMARK  status: ('A' for Active; 'I' for Inactive)
REMARK    1  A    between atoms: C_1  and  O_2
REMARK    2  A    between atoms: O_2  and  C_3
REMARK    3  A    between atoms: C_3  and  C_4
REMARK    4  A    between atoms: C_4  and  N_5
REMARK    5  A    between atoms: N_5  and  C_6
REMARK    6  A    between atoms: C_9  and  C_10
REMARK    7  A    between atoms: N_12  and  C_13
REMARK    8  A    between atoms: C_19  and  C_20
REMARK    9  A    between atoms: C_24  and  C_25
REMARK   10  A    between atoms: C_25  and  C_26
REMARK   11  A    between atoms: C_25  and  C_27
REMARK                            x       y       z     vdW  Elec       q    Type
REMARK                         _______ _______ _______ _____ _____    ______ ____
ROOT
ATOM      1  C   UNL     1       5.169   4.329  18.144  0.00  0.00    +0.000 C 
ATOM      2  O   UNL     1       5.661   3.572  18.975  0.00  0.00    +0.000 OA
ATOM      3  N   UNL     1       3.835   4.721  18.199  0.00  0.00    +0.000 N 
ATOM      4  H   UNL     1       3.459   5.043  17.308  0.00  0.00    +0.000 HD
ENDROOT
BRANCH   1   9
ATOM      5  N   UNL     1       6.637   4.524  13.501  0.00  0.00    +0.000 N 
ATOM      6  C   UNL     1       7.701   5.033  12.645  0.00  0.00    +0.000 C 
ATOM      7  C   UNL     1       6.587   4.834  14.834  0.00  0.00    +0.000 A 
ATOM      8  N   UNL     1       5.776   4.270  15.711  0.00  0.00    +0.000 NA
ATOM      9  C   UNL     1       5.939   4.824  16.994  0.00  0.00    +0.000 A 
ATOM     10  C   UNL     1       6.867   5.855  17.064  0.00  0.00    +0.000 A 
ATOM     11  S   UNL     1       7.585   6.066  15.524  0.00  0.00    +0.000 S 
BRANCH  10  12
ATOM     12  C   UNL     1       7.288   6.793  18.179  0.00  0.00    +0.000 C 
ATOM     13  C   UNL     1       8.134   6.079  19.235  0.00  0.00    +0.000 C 
ATOM     14  C   UNL     1       7.928   8.093  17.689  0.00  0.00    +0.000 C 
ENDBRANCH  10  12
BRANCH   5  15
ATOM     15  C   UNL     1       5.762   3.484  12.961  0.00  0.00    +0.000 C 
BRANCH  15  16
ATOM     16  C   UNL     1       6.423   2.716  11.810  0.00  0.00    +0.000 C 
BRANCH  16  18
ATOM     17  C   UNL     1       6.217   0.459  11.171  0.00  0.00    +0.000 C 
ATOM     18  O   UNL     1       5.535   1.695  11.343  0.00  0.00    +0.000 OA
ENDBRANCH  16  18
ENDBRANCH  15  16
ENDBRANCH   5  15
ENDBRANCH   1   9
BRANCH   3  19
ATOM     19  C   UNL     1       2.974   4.217  19.211  0.00  0.00    +0.000 A 
ATOM     20  C   UNL     1       2.860   4.909  20.436  0.00  0.00    +0.000 A 
ATOM     21  C   UNL     1       2.141   4.385  21.506  0.00  0.00    +0.000 A 
ATOM     22  C   UNL     1       1.507   3.168  21.358  0.00  0.00    +0.000 A 
ATOM     23  F   UNL     1       0.851   2.628  22.392  0.00  0.00    +0.000 F 
ATOM     24  C   UNL     1       1.557   2.490  20.145  0.00  0.00    +0.000 A 
ATOM     25  C   UNL     1       2.282   3.008  19.047  0.00  0.00    +0.000 A 
BRANCH  25  26
ATOM     26  C   UNL     1       2.361   2.166  17.805  0.00  0.00    +0.000 C 
ATOM     27  F   UNL     1       1.341   1.271  17.665  0.00  0.00    +0.000 F 
ATOM     28  F   UNL     1       2.350   2.919  16.671  0.00  0.00    +0.000 F 
ATOM     29  F   UNL     1       3.504   1.428  17.753  0.00  0.00    +0.000 F 
ENDBRANCH  25  26
ENDBRANCH   3  19
TORSDOF 7
ENDMDL
MODEL 5
REMARK VINA RESULT:      -7.7      3.909      6.403
REMARK  Name = 
REMARK  11 active torsions:
REMARK  status: ('A' for Active; 'I' for Inactive)
REMARK    1  A    between atoms: C_1  and  O_2
REMARK    2  A    between atoms: O_2  and  C_3
REMARK    3  A    between atoms: C_3  and  C_4
REMARK    4  A    between atoms: C_4  and  N_5
REMARK    5  A    between atoms: N_5  and  C_6
REMARK    6  A    between atoms: C_9  and  C_10
REMARK    7  A    between atoms: N_12  and  C_13
REMARK    8  A    between atoms: C_19  and  C_20
REMARK    9  A    between atoms: C_24  and  C_25
REMARK   10  A    between atoms: C_25  and  C_26
REMARK   11  A    between atoms: C_25  and  C_27
REMARK                            x       y       z     vdW  Elec       q    Type
REMARK                         _______ _______ _______ _____ _____    ______ ____
ROOT
ATOM      1  C   UNL     1       4.310   3.808  17.251  0.00  0.00    +0.000 C 
ATOM      2  O   UNL     1       3.252   3.270  16.938  0.00  0.00    +0.000 OA
ATOM      3  N   UNL     1       4.632   4.090  18.575  0.00  0.00    +0.000 N 
ATOM      4  H   UNL     1       5.333   4.821  18.685  0.00  0.00    +0.000 HD
ENDROOT
BRANCH   1   9
ATOM      5  N   UNL     1       6.442   3.980  12.871  0.00  0.00    +0.000 N 
ATOM      6  C   UNL     1       7.662   4.399  12.196  0.00  0.00    +0.000 C 
ATOM      7  C   UNL     1       6.232   4.256  14.196  0.00  0.00    +0.000 A 
ATOM      8  N   UNL     1       5.252   3.754  14.926  0.00  0.00    +0.000 NA
ATOM      9  C   UNL     1       5.282   4.252  16.242  0.00  0.00    +0.000 A 
ATOM     10  C   UNL     1       6.287   5.179  16.485  0.00  0.00    +0.000 A 
ATOM     11  S   UNL     1       7.236   5.358  15.071  0.00  0.00    +0.000 S 
BRANCH  10  12
ATOM     12  C   UNL     1       6.634   6.037  17.686  0.00  0.00    +0.000 C 
ATOM     13  C   UNL     1       7.699   5.380  18.567  0.00  0.00    +0.000 C 
ATOM     14  C   UNL     1       6.967   7.489  17.338  0.00  0.00    +0.000 C 
ENDBRANCH  10  12
BRANCH   5  15
ATOM     15  C   UNL     1       5.555   3.051  12.170  0.00  0.00    +0.000 C 
BRANCH  15  16
ATOM     16  C   UNL     1       6.337   1.984  11.395  0.00  0.00    +0.000 C 
BRANCH  16  18
ATOM     17  C   UNL     1       6.163  -0.364  11.380  0.00  0.00    +0.000 C 
ATOM     18  O   UNL     1       5.486   0.863  11.134  0.00  0.00    +0.000 OA
ENDBRANCH  16  18
ENDBRANCH  15  16
ENDBRANCH   5  15
ENDBRANCH   1   9
BRANCH   3  19
ATOM     19  C   UNL     1       3.717   3.797  19.621  0.00  0.00    +0.000 A 
ATOM     20  C   UNL     1       3.779   2.545  20.270  0.00  0.00    +0.000 A 
ATOM     21  C   UNL     1       2.821   2.158  21.202  0.00  0.00    +0.000 A 
ATOM     22  C   UNL     1       1.796   3.027  21.513  0.00  0.00    +0.000 A 
ATOM     23  F   UNL     1       0.840   2.652  22.371  0.00  0.00    +0.000 F 
ATOM     24  C   UNL     1       1.740   4.289  20.929  0.00  0.00    +0.000 A 
ATOM     25  C   UNL     1       2.706   4.700  19.982  0.00  0.00    +0.000 A 
BRANCH  25  26
ATOM     26  C   UNL     1       2.517   6.041  19.332  0.00  0.00    +0.000 C 
ATOM     27  F   UNL     1       1.720   6.899  20.031  0.00  0.00    +0.000 F 
ATOM     28  F   UNL     1       3.697   6.696  19.150  0.00  0.00    +0.000 F 
ATOM     29  F   UNL     1       1.951   5.942  18.097  0.00  0.00    +0.000 F 
ENDBRANCH  25  26
ENDBRANCH   3  19
TORSDOF 7
ENDMDL
MODEL 6
REMARK VINA RESULT:      -7.6      4.771      6.922
REMARK  Name = 
REMARK  11 active torsions:
REMARK  status: ('A' for Active; 'I' for Inactive)
REMARK    1  A    between atoms: C_1  and  O_2
REMARK    2  A    between atoms: O_2  and  C_3
REMARK    3  A    between atoms: C_3  and  C_4
REMARK    4  A    between atoms: C_4  and  N_5
REMARK    5  A    between atoms: N_5  and  C_6
REMARK    6  A    between atoms: C_9  and  C_10
REMARK    7  A    between atoms: N_12  and  C_13
REMARK    8  A    between atoms: C_19  and  C_20
REMARK    9  A    between atoms: C_24  and  C_25
REMARK   10  A    between atoms: C_25  and  C_26
REMARK   11  A    between atoms: C_25  and  C_27
REMARK                            x       y       z     vdW  Elec       q    Type
REMARK                         _______ _______ _______ _____ _____    ______ ____
ROOT
ATOM      1  C   UNL     1       5.164   4.271  18.091  0.00  0.00    +0.000 C 
ATOM      2  O   UNL     1       5.652   3.507  18.918  0.00  0.00    +0.000 OA
ATOM      3  N   UNL     1       3.837   4.688  18.162  0.00  0.00    +0.000 N 
ATOM      4  H   UNL     1       3.457   5.015  17.275  0.00  0.00    +0.000 HD
ENDROOT
BRANCH   1   9
ATOM      5  N   UNL     1       6.655   4.359  13.452  0.00  0.00    +0.000 N 
ATOM      6  C   UNL     1       7.711   4.867  12.587  0.00  0.00    +0.000 C 
ATOM      7  C   UNL     1       6.589   4.709  14.774  0.00  0.00    +0.000 A 
ATOM      8  N   UNL     1       5.787   4.152  15.664  0.00  0.00    +0.000 NA
ATOM      9  C   UNL     1       5.928   4.750  16.930  0.00  0.00    +0.000 A 
ATOM     10  C   UNL     1       6.830   5.805  16.974  0.00  0.00    +0.000 A 
ATOM     11  S   UNL     1       7.552   5.986  15.431  0.00  0.00    +0.000 S 
BRANCH  10  12
ATOM     12  C   UNL     1       7.220   6.788  18.060  0.00  0.00    +0.000 C 
ATOM     13  C   UNL     1       8.072   6.127  19.146  0.00  0.00    +0.000 C 
ATOM     14  C   UNL     1       7.836   8.085  17.534  0.00  0.00    +0.000 C 
ENDBRANCH  10  12
BRANCH   5  15
ATOM     15  C   UNL     1       5.810   3.281  12.940  0.00  0.00    +0.000 C 
BRANCH  15  16
ATOM     16  C   UNL     1       4.626   3.815  12.125  0.00  0.00    +0.000 C 
BRANCH  16  18
ATOM     17  C   UNL     1       3.270   3.376  10.251  0.00  0.00    +0.000 C 
ATOM     18  O   UNL     1       4.251   2.850  11.137  0.00  0.00    +0.000 OA
ENDBRANCH  16  18
ENDBRANCH  15  16
ENDBRANCH   5  15
ENDBRANCH   1   9
BRANCH   3  19
ATOM     19  C   UNL     1       2.980   4.202  19.185  0.00  0.00    +0.000 A 
ATOM     20  C   UNL     1       2.881   4.908  20.403  0.00  0.00    +0.000 A 
ATOM     21  C   UNL     1       2.166   4.402  21.484  0.00  0.00    +0.000 A 
ATOM     22  C   UNL     1       1.521   3.189  21.355  0.00  0.00    +0.000 A 
ATOM     23  F   UNL     1       0.868   2.665  22.399  0.00  0.00    +0.000 F 
ATOM     24  C   UNL     1       1.556   2.497  20.148  0.00  0.00    +0.000 A 
ATOM     25  C   UNL     1       2.277   2.997  19.040  0.00  0.00    +0.000 A 
BRANCH  25  26
ATOM     26  C   UNL     1       2.339   2.141  17.806  0.00  0.00    +0.000 C 
ATOM     27  F   UNL     1       2.345   2.840  16.635  0.00  0.00    +0.000 F 
ATOM     28  F   UNL     1       3.454   1.360  17.777  0.00  0.00    +0.000 F 
ATOM     29  F   UNL     1       1.283   1.286  17.715  0.00  0.00    +0.000 F 
ENDBRANCH  25  26
ENDBRANCH   3  19
TORSDOF 7
ENDMDL
MODEL 7
REMARK VINA RESULT:      -7.6      2.133      2.864
REMARK  Name = 
REMARK  11 active torsions:
REMARK  status: ('A' for Active; 'I' for Inactive)
REMARK    1  A    between atoms: C_1  and  O_2
REMARK    2  A    between atoms: O_2  and  C_3
REMARK    3  A    between atoms: C_3  and  C_4
REMARK    4  A    between atoms: C_4  and  N_5
REMARK    5  A    between atoms: N_5  and  C_6
REMARK    6  A    between atoms: C_9  and  C_10
REMARK    7  A    between atoms: N_12  and  C_13
REMARK    8  A    between atoms: C_19  and  C_20
REMARK    9  A    between atoms: C_24  and  C_25
REMARK   10  A    between atoms: C_25  and  C_26
REMARK   11  A    between atoms: C_25  and  C_27
REMARK                            x       y       z     vdW  Elec       q    Type
REMARK                         _______ _______ _______ _____ _____    ______ ____
ROOT
ATOM      1  C   UNL     1       2.196   8.023  18.225  0.00  0.00    +0.000 C 
ATOM      2  O   UNL     1       1.721   8.485  17.192  0.00  0.00    +0.000 OA
ATOM      3  N   UNL     1       1.882   8.538  19.479  0.00  0.00    +0.000 N 
ATOM      4  H   UNL     1       2.572   8.328  20.199  0.00  0.00    +0.000 HD
ENDROOT
BRANCH   1   9
ATOM      5  N   UNL     1       6.537   5.941  17.465  0.00  0.00    +0.000 N 
ATOM      6  C   UNL     1       7.188   4.647  17.313  0.00  0.00    +0.000 C 
ATOM      7  C   UNL     1       5.213   6.037  17.801  0.00  0.00    +0.000 A 
ATOM      8  N   UNL     1       4.506   7.152  17.774  0.00  0.00    +0.000 NA
ATOM      9  C   UNL     1       3.184   6.934  18.204  0.00  0.00    +0.000 A 
ATOM     10  C   UNL     1       2.913   5.630  18.600  0.00  0.00    +0.000 A 
ATOM     11  S   UNL     1       4.309   4.670  18.351  0.00  0.00    +0.000 S 
BRANCH  10  12
ATOM     12  C   UNL     1       1.696   4.969  19.217  0.00  0.00    +0.000 C 
ATOM     13  C   UNL     1       1.405   3.607  18.582  0.00  0.00    +0.000 C 
ATOM     14  C   UNL     1       1.726   4.915  20.745  0.00  0.00    +0.000 C 
ENDBRANCH  10  12
BRANCH   5  15
ATOM     15  C   UNL     1       7.264   7.129  17.018  0.00  0.00    +0.000 C 
BRANCH  15  16
ATOM     16  C   UNL     1       8.065   7.776  18.155  0.00  0.00    +0.000 C 
BRANCH  16  18
ATOM     17  C   UNL     1       8.977   9.807  18.919  0.00  0.00    +0.000 C 
ATOM     18  O   UNL     1       8.202   9.179  17.906  0.00  0.00    +0.000 OA
ENDBRANCH  16  18
ENDBRANCH  15  16
ENDBRANCH   5  15
ENDBRANCH   1   9
BRANCH   3  19
ATOM     19  C   UNL     1       1.019   9.659  19.604  0.00  0.00    +0.000 A 
ATOM     20  C   UNL     1       1.103  10.710  18.665  0.00  0.00    +0.000 A 
ATOM     21  C   UNL     1       0.379  11.889  18.822  0.00  0.00    +0.000 A 
ATOM     22  C   UNL     1      -0.456  12.025  19.913  0.00  0.00    +0.000 A 
ATOM     23  F   UNL     1      -1.122  13.169  20.104  0.00  0.00    +0.000 F 
ATOM     24  C   UNL     1      -0.599  10.983  20.825  0.00  0.00    +0.000 A 
ATOM     25  C   UNL     1       0.126   9.779  20.679  0.00  0.00    +0.000 A 
BRANCH  25  26
ATOM     26  C   UNL     1      -0.017   8.745  21.760  0.00  0.00    +0.000 C 
ATOM     27  F   UNL     1       1.156   8.381  22.351  0.00  0.00    +0.000 F 
ATOM     28  F   UNL     1      -0.827   9.165  22.770  0.00  0.00    +0.000 F 
ATOM     29  F   UNL     1      -0.567   7.588  21.298  0.00  0.00    +0.000 F 
ENDBRANCH  25  26
ENDBRANCH   3  19
TORSDOF 7
ENDMDL
MODEL 8
REMARK VINA RESULT:      -7.6      0.799      1.080
REMARK  Name = 
REMARK  11 active torsions:
REMARK  status: ('A' for Active; 'I' for Inactive)
REMARK    1  A    between atoms: C_1  and  O_2
REMARK    2  A    between atoms: O_2  and  C_3
REMARK    3  A    between atoms: C_3  and  C_4
REMARK    4  A    between atoms: C_4  and  N_5
REMARK    5  A    between atoms: N_5  and  C_6
REMARK    6  A    between atoms: C_9  and  C_10
REMARK    7  A    between atoms: N_12  and  C_13
REMARK    8  A    between atoms: C_19  and  C_20
REMARK    9  A    between atoms: C_24  and  C_25
REMARK   10  A    between atoms: C_25  and  C_26
REMARK   11  A    between atoms: C_25  and  C_27
REMARK                            x       y       z     vdW  Elec       q    Type
REMARK                         _______ _______ _______ _____ _____    ______ ____
ROOT
ATOM      1  C   UNL     1       2.048   6.178  19.939  0.00  0.00    +0.000 C 
ATOM      2  O   UNL     1       1.083   5.759  20.571  0.00  0.00    +0.000 OA
ATOM      3  N   UNL     1       2.353   7.534  19.868  0.00  0.00    +0.000 N 
ATOM      4  H   UNL     1       2.930   7.788  19.068  0.00  0.00    +0.000 HD
ENDROOT
BRANCH   1   9
ATOM      5  N   UNL     1       5.500   4.992  16.709  0.00  0.00    +0.000 N 
ATOM      6  C   UNL     1       6.006   3.882  15.913  0.00  0.00    +0.000 C 
ATOM      7  C   UNL     1       4.501   4.811  17.628  0.00  0.00    +0.000 A 
ATOM      8  N   UNL     1       3.859   5.785  18.249  0.00  0.00    +0.000 NA
ATOM      9  C   UNL     1       2.911   5.281  19.158  0.00  0.00    +0.000 A 
ATOM     10  C   UNL     1       2.875   3.895  19.244  0.00  0.00    +0.000 A 
ATOM     11  S   UNL     1       3.985   3.236  18.119  0.00  0.00    +0.000 S 
BRANCH  10  12
ATOM     12  C   UNL     1       2.112   2.934  20.135  0.00  0.00    +0.000 C 
ATOM     13  C   UNL     1       2.384   3.195  21.619  0.00  0.00    +0.000 C 
ATOM     14  C   UNL     1       0.619   2.842  19.816  0.00  0.00    +0.000 C 
ENDBRANCH  10  12
BRANCH   5  15
ATOM     15  C   UNL     1       5.911   6.346  16.336  0.00  0.00    +0.000 C 
BRANCH  15  16
ATOM     16  C   UNL     1       6.942   6.924  17.314  0.00  0.00    +0.000 C 
BRANCH  16  18
ATOM     17  C   UNL     1       7.819   5.801  19.188  0.00  0.00    +0.000 C 
ATOM     18  O   UNL     1       7.809   5.879  17.768  0.00  0.00    +0.000 OA
ENDBRANCH  16  18
ENDBRANCH  15  16
ENDBRANCH   5  15
ENDBRANCH   1   9
BRANCH   3  19
ATOM     19  C   UNL     1       1.522   8.496  20.501  0.00  0.00    +0.000 A 
ATOM     20  C   UNL     1       1.327   8.436  21.897  0.00  0.00    +0.000 A 
ATOM     21  C   UNL     1       0.416   9.268  22.544  0.00  0.00    +0.000 A 
ATOM     22  C   UNL     1      -0.299  10.186  21.802  0.00  0.00    +0.000 A 
ATOM     23  F   UNL     1      -1.212  10.960  22.400  0.00  0.00    +0.000 F 
ATOM     24  C   UNL     1      -0.087  10.304  20.432  0.00  0.00    +0.000 A 
ATOM     25  C   UNL     1       0.835   9.470  19.760  0.00  0.00    +0.000 A 
BRANCH  25  26
ATOM     26  C   UNL     1       0.933   9.601  18.267  0.00  0.00    +0.000 C 
ATOM     27  F   UNL     1       1.239   8.441  17.618  0.00  0.00    +0.000 F 
ATOM     28  F   UNL     1      -0.229  10.041  17.711  0.00  0.00    +0.000 F 
ATOM     29  F   UNL     1       1.889  10.494  17.887  0.00  0.00    +0.000 F 
ENDBRANCH  25  26
ENDBRANCH   3  19
TORSDOF 7
ENDMDL
MODEL 9
REMARK VINA RESULT:      -7.5      4.773      6.860
REMARK  Name = 
REMARK  11 active torsions:
REMARK  status: ('A' for Active; 'I' for Inactive)
REMARK    1  A    between atoms: C_1  and  O_2
REMARK    2  A    between atoms: O_2  and  C_3
REMARK    3  A    between atoms: C_3  and  C_4
REMARK    4  A    between atoms: C_4  and  N_5
REMARK    5  A    between atoms: N_5  and  C_6
REMARK    6  A    between atoms: C_9  and  C_10
REMARK    7  A    between atoms: N_12  and  C_13
REMARK    8  A    between atoms: C_19  and  C_20
REMARK    9  A    between atoms: C_24  and  C_25
REMARK   10  A    between atoms: C_25  and  C_26
REMARK   11  A    between atoms: C_25  and  C_27
REMARK                            x       y       z     vdW  Elec       q    Type
REMARK                         _______ _______ _______ _____ _____    ______ ____
ROOT
ATOM      1  C   UNL     1       4.625   4.612  17.486  0.00  0.00    +0.000 C 
ATOM      2  O   UNL     1       4.284   5.626  18.086  0.00  0.00    +0.000 OA
ATOM      3  N   UNL     1       4.246   3.341  17.909  0.00  0.00    +0.000 N 
ATOM      4  H   UNL     1       4.848   2.593  17.568  0.00  0.00    +0.000 HD
ENDROOT
BRANCH   1   9
ATOM      5  N   UNL     1       6.001   3.808  12.880  0.00  0.00    +0.000 N 
ATOM      6  C   UNL     1       7.169   3.784  12.010  0.00  0.00    +0.000 C 
ATOM      7  C   UNL     1       6.091   4.229  14.180  0.00  0.00    +0.000 A 
ATOM      8  N   UNL     1       5.134   4.106  15.082  0.00  0.00    +0.000 NA
ATOM      9  C   UNL     1       5.515   4.663  16.317  0.00  0.00    +0.000 A 
ATOM     10  C   UNL     1       6.772   5.253  16.321  0.00  0.00    +0.000 A 
ATOM     11  S   UNL     1       7.498   5.030  14.787  0.00  0.00    +0.000 S 
BRANCH  10  12
ATOM     12  C   UNL     1       7.538   6.046  17.361  0.00  0.00    +0.000 C 
ATOM     13  C   UNL     1       7.056   7.497  17.440  0.00  0.00    +0.000 C 
ATOM     14  C   UNL     1       7.608   5.371  18.732  0.00  0.00    +0.000 C 
ENDBRANCH  10  12
BRANCH   5  15
ATOM     15  C   UNL     1       4.783   3.148  12.410  0.00  0.00    +0.000 C 
BRANCH  15  16
ATOM     16  C   UNL     1       4.588   3.310  10.897  0.00  0.00    +0.000 C 
BRANCH  16  18
ATOM     17  C   UNL     1       2.889   4.211   9.540  0.00  0.00    +0.000 C 
ATOM     18  O   UNL     1       3.189   3.303  10.592  0.00  0.00    +0.000 OA
ENDBRANCH  16  18
ENDBRANCH  15  16
ENDBRANCH   5  15
ENDBRANCH   1   9
BRANCH   3  19
ATOM     19  C   UNL     1       3.474   3.172  19.089  0.00  0.00    +0.000 A 
ATOM     20  C   UNL     1       4.097   2.709  20.268  0.00  0.00    +0.000 A 
ATOM     21  C   UNL     1       3.362   2.395  21.407  0.00  0.00    +0.000 A 
ATOM     22  C   UNL     1       1.992   2.561  21.390  0.00  0.00    +0.000 A 
ATOM     23  F   UNL     1       1.266   2.219  22.461  0.00  0.00    +0.000 F 
ATOM     24  C   UNL     1       1.358   3.067  20.260  0.00  0.00    +0.000 A 
ATOM     25  C   UNL     1       2.088   3.392  19.095  0.00  0.00    +0.000 A 
BRANCH  25  26
ATOM     26  C   UNL     1       1.313   3.844  17.890  0.00  0.00    +0.000 C 
ATOM     27  F   UNL     1       1.284   5.196  17.713  0.00  0.00    +0.000 F 
ATOM     28  F   UNL     1       1.814   3.330  16.733  0.00  0.00    +0.000 F 
ATOM     29  F   UNL     1       0.009   3.454  17.938  0.00  0.00    +0.000 F 
ENDBRANCH  25  26
ENDBRANCH   3  19
TORSDOF 7
ENDMDL
