MODEL 1
REMARK VINA RESULT:      -7.5      0.000      0.000
REMARK  Name = 
REMARK  5 active torsions:
REMARK  status: ('A' for Active; 'I' for Inactive)
REMARK    1  A    between atoms: S_2  and  N_4
REMARK    2  A    between atoms: S_2  and  C_18
REMARK    3  A    between atoms: N_4  and  C_5
REMARK    4  A    between atoms: C_8  and  C_9
REMARK    5  A    between atoms: C_9  and  C_10
REMARK                            x       y       z     vdW  Elec       q    Type
REMARK                         _______ _______ _______ _____ _____    ______ ____
ROOT
ATOM      1  C   UNL     1       2.173   7.067  20.042  0.00  0.00    +0.000 A 
ATOM      2  C   UNL     1       2.482   7.458  18.740  0.00  0.00    +0.000 A 
ATOM      3  C   UNL     1       1.971   8.655  18.230  0.00  0.00    +0.000 A 
ATOM      4  C   UNL     1       1.156   9.478  19.021  0.00  0.00    +0.000 A 
ATOM      5  C   UNL     1       0.854   9.072  20.330  0.00  0.00    +0.000 A 
ATOM      6  C   UNL     1       1.370   7.877  20.841  0.00  0.00    +0.000 A 
ENDROOT
BRANCH   1   7
ATOM      7  N   UNL     1       2.726   5.868  20.585  0.00  0.00    +0.000 N 
ATOM      8  H   UNL     1       2.429   5.675  21.542  0.00  0.00    +0.000 HD
BRANCH   7  10
ATOM      9  O   UNL     1       2.701   3.340  20.577  0.00  0.00    +0.000 OA
ATOM     10  S   UNL     1       2.490   4.452  19.676  0.00  0.00    +0.000 S 
ATOM     11  O   UNL     1       1.260   4.571  18.923  0.00  0.00    +0.000 OA
BRANCH  10  12
ATOM     12  C   UNL     1       3.773   4.327  18.455  0.00  0.00    +0.000 A 
ATOM     13  C   UNL     1       3.759   3.950  17.123  0.00  0.00    +0.000 A 
ATOM     14  C   UNL     1       5.060   3.972  16.540  0.00  0.00    +0.000 A 
ATOM     15  C   UNL     1       5.999   4.375  17.452  0.00  0.00    +0.000 A 
ATOM     16 CL   UNL     1       7.688   4.528  17.185  0.00  0.00    +0.000 Cl
ATOM     17  S   UNL     1       5.355   4.739  18.973  0.00  0.00    +0.000 S 
ENDBRANCH  10  12
ENDBRANCH   7  10
ENDBRANCH   1   7
BRANCH   4  18
ATOM     18  C   UNL     1       0.597  10.770  18.468  0.00  0.00    +0.000 C 
BRANCH  18  19
ATOM     19  C   UNL     1      -0.901  10.752  18.288  0.00  0.00    +0.000 A 
ATOM     20  C   UNL     1      -1.510   9.834  17.427  0.00  0.00    +0.000 A 
ATOM     21  C   UNL     1      -2.885   9.888  17.257  0.00  0.00    +0.000 A 
ATOM     22  N   UNL     1      -3.685  10.778  17.882  0.00  0.00    +0.000 NA
ATOM     23  C   UNL     1      -3.082  11.652  18.715  0.00  0.00    +0.000 A 
ATOM     24  C   UNL     1      -1.715  11.678  18.949  0.00  0.00    +0.000 A 
ENDBRANCH  18  19
ENDBRANCH   4  18
TORSDOF 5
ENDMDL
MODEL 2
REMARK VINA RESULT:      -7.4      0.323      1.028
REMARK  Name = 
REMARK  5 active torsions:
REMARK  status: ('A' for Active; 'I' for Inactive)
REMARK    1  A    between atoms: S_2  and  N_4
REMARK    2  A    between atoms: S_2  and  C_18
REMARK    3  A    between atoms: N_4  and  C_5
REMARK    4  A    between atoms: C_8  and  C_9
REMARK    5  A    between atoms: C_9  and  C_10
REMARK                            x       y       z     vdW  Elec       q    Type
REMARK                         _______ _______ _______ _____ _____    ______ ____
ROOT
ATOM      1  C   UNL     1       2.144   7.406  19.881  0.00  0.00    +0.000 A 
ATOM      2  C   UNL     1       2.391   7.843  18.580  0.00  0.00    +0.000 A 
ATOM      3  C   UNL     1       1.796   9.017  18.112  0.00  0.00    +0.000 A 
ATOM      4  C   UNL     1       0.957   9.774  18.945  0.00  0.00    +0.000 A 
ATOM      5  C   UNL     1       0.719   9.322  20.251  0.00  0.00    +0.000 A 
ATOM      6  C   UNL     1       1.318   8.150  20.721  0.00  0.00    +0.000 A 
ENDROOT
BRANCH   1   7
ATOM      7  N   UNL     1       2.782   6.231  20.381  0.00  0.00    +0.000 N 
ATOM      8  H   UNL     1       2.594   6.048  21.367  0.00  0.00    +0.000 HD
BRANCH   7  10
ATOM      9  O   UNL     1       2.585   3.712  20.481  0.00  0.00    +0.000 OA
ATOM     10  S   UNL     1       2.489   4.793  19.524  0.00  0.00    +0.000 S 
ATOM     11  O   UNL     1       1.304   4.959  18.710  0.00  0.00    +0.000 OA
BRANCH  10  12
ATOM     12  C   UNL     1       3.811   4.528  18.369  0.00  0.00    +0.000 A 
ATOM     13  C   UNL     1       3.834   4.042  17.073  0.00  0.00    +0.000 A 
ATOM     14  C   UNL     1       5.156   3.974  16.542  0.00  0.00    +0.000 A 
ATOM     15  C   UNL     1       6.074   4.421  17.456  0.00  0.00    +0.000 A 
ATOM     16 CL   UNL     1       7.776   4.498  17.244  0.00  0.00    +0.000 Cl
ATOM     17  S   UNL     1       5.387   4.931  18.915  0.00  0.00    +0.000 S 
ENDBRANCH  10  12
ENDBRANCH   7  10
ENDBRANCH   1   7
BRANCH   4  18
ATOM     18  C   UNL     1       0.307  11.042  18.437  0.00  0.00    +0.000 C 
BRANCH  18  19
ATOM     19  C   UNL     1      -1.177  10.906  18.201  0.00  0.00    +0.000 A 
ATOM     20  C   UNL     1      -2.081  11.803  18.777  0.00  0.00    +0.000 A 
ATOM     21  C   UNL     1      -3.438  11.608  18.572  0.00  0.00    +0.000 A 
ATOM     22  N   UNL     1      -3.950  10.597  17.837  0.00  0.00    +0.000 NA
ATOM     23  C   UNL     1      -3.062   9.745  17.281  0.00  0.00    +0.000 A 
ATOM     24  C   UNL     1      -1.688   9.856  17.430  0.00  0.00    +0.000 A 
ENDBRANCH  18  19
ENDBRANCH   4  18
TORSDOF 5
ENDMDL
MODEL 3
REMARK VINA RESULT:      -7.2      1.793      2.231
REMARK  Name = 
REMARK  5 active torsions:
REMARK  status: ('A' for Active; 'I' for Inactive)
REMARK    1  A    between atoms: S_2  and  N_4
REMARK    2  A    between atoms: S_2  and  C_18
REMARK    3  A    between atoms: N_4  and  C_5
REMARK    4  A    between atoms: C_8  and  C_9
REMARK    5  A    between atoms: C_9  and  C_10
REMARK                            x       y       z     vdW  Elec       q    Type
REMARK                         _______ _______ _______ _____ _____    ______ ____
ROOT
ATOM      1  C   UNL     1       2.764   6.084  18.813  0.00  0.00    +0.000 A 
ATOM      2  C   UNL     1       2.994   6.906  17.710  0.00  0.00    +0.000 A 
ATOM      3  C   UNL     1       2.588   8.243  17.738  0.00  0.00    +0.000 A 
ATOM      4  C   UNL     1       1.959   8.774  18.875  0.00  0.00    +0.000 A 
ATOM      5  C   UNL     1       1.736   7.935  19.977  0.00  0.00    +0.000 A 
ATOM      6  C   UNL     1       2.147   6.599  19.950  0.00  0.00    +0.000 A 
ENDROOT
BRANCH   1   7
ATOM      7  N   UNL     1       3.214   4.729  18.809  0.00  0.00    +0.000 N 
ATOM      8  H   UNL     1       2.954   4.212  17.968  0.00  0.00    +0.000 HD
BRANCH   7  10
ATOM      9  O   UNL     1       5.368   5.673  19.739  0.00  0.00    +0.000 OA
ATOM     10  S   UNL     1       4.877   4.488  19.069  0.00  0.00    +0.000 S 
ATOM     11  O   UNL     1       5.082   3.175  19.641  0.00  0.00    +0.000 OA
BRANCH  10  12
ATOM     12  C   UNL     1       5.708   4.447  17.500  0.00  0.00    +0.000 A 
ATOM     13  C   UNL     1       6.992   4.791  17.117  0.00  0.00    +0.000 A 
ATOM     14  C   UNL     1       7.205   4.619  15.717  0.00  0.00    +0.000 A 
ATOM     15  C   UNL     1       6.076   4.141  15.105  0.00  0.00    +0.000 A 
ATOM     16 CL   UNL     1       5.881   3.805  13.433  0.00  0.00    +0.000 Cl
ATOM     17  S   UNL     1       4.786   3.883  16.168  0.00  0.00    +0.000 S 
ENDBRANCH  10  12
ENDBRANCH   7  10
ENDBRANCH   1   7
BRANCH   4  18
ATOM     18  C   UNL     1       1.514  10.220  18.904  0.00  0.00    +0.000 C 
BRANCH  18  19
ATOM     19  C   UNL     1       0.035  10.400  18.665  0.00  0.00    +0.000 A 
ATOM     20  C   UNL     1      -0.620   9.699  17.649  0.00  0.00    +0.000 A 
ATOM     21  C   UNL     1      -1.969   9.935  17.436  0.00  0.00    +0.000 A 
ATOM     22  N   UNL     1      -2.703  10.806  18.161  0.00  0.00    +0.000 NA
ATOM     23  C   UNL     1      -2.057  11.469  19.144  0.00  0.00    +0.000 A 
ATOM     24  C   UNL     1      -0.711  11.302  19.432  0.00  0.00    +0.000 A 
ENDBRANCH  18  19
ENDBRANCH   4  18
TORSDOF 5
ENDMDL
MODEL 4
REMARK VINA RESULT:      -7.2      0.927      1.088
REMARK  Name = 
REMARK  5 active torsions:
REMARK  status: ('A' for Active; 'I' for Inactive)
REMARK    1  A    between atoms: S_2  and  N_4
REMARK    2  A    between atoms: S_2  and  C_18
REMARK    3  A    between atoms: N_4  and  C_5
REMARK    4  A    between atoms: C_8  and  C_9
REMARK    5  A    between atoms: C_9  and  C_10
REMARK                            x       y       z     vdW  Elec       q    Type
REMARK                         _______ _______ _______ _____ _____    ______ ____
ROOT
ATOM      1  C   UNL     1       2.203   6.805  20.159  0.00  0.00    +0.000 A 
ATOM      2  C   UNL     1       2.624   7.142  18.874  0.00  0.00    +0.000 A 
ATOM      3  C   UNL     1       2.196   8.338  18.290  0.00  0.00    +0.000 A 
ATOM      4  C   UNL     1       1.353   9.214  18.991  0.00  0.00    +0.000 A 
ATOM      5  C   UNL     1       0.939   8.860  20.284  0.00  0.00    +0.000 A 
ATOM      6  C   UNL     1       1.371   7.666  20.870  0.00  0.00    +0.000 A 
ENDROOT
BRANCH   1   7
ATOM      7  N   UNL     1       2.670   5.606  20.779  0.00  0.00    +0.000 N 
ATOM      8  H   UNL     1       2.184   5.375  21.646  0.00  0.00    +0.000 HD
BRANCH   7  10
ATOM      9  O   UNL     1       2.904   3.090  20.693  0.00  0.00    +0.000 OA
ATOM     10  S   UNL     1       2.682   4.212  19.807  0.00  0.00    +0.000 S 
ATOM     11  O   UNL     1       1.539   4.241  18.921  0.00  0.00    +0.000 OA
BRANCH  10  12
ATOM     12  C   UNL     1       4.100   4.264  18.739  0.00  0.00    +0.000 A 
ATOM     13  C   UNL     1       5.422   4.606  18.961  0.00  0.00    +0.000 A 
ATOM     14  C   UNL     1       6.209   4.529  17.773  0.00  0.00    +0.000 A 
ATOM     15  C   UNL     1       5.450   4.122  16.708  0.00  0.00    +0.000 A 
ATOM     16 CL   UNL     1       5.984   3.911  15.091  0.00  0.00    +0.000 Cl
ATOM     17  S   UNL     1       3.833   3.818  17.104  0.00  0.00    +0.000 S 
ENDBRANCH  10  12
ENDBRANCH   7  10
ENDBRANCH   1   7
BRANCH   4  18
ATOM     18  C   UNL     1       0.885  10.505  18.358  0.00  0.00    +0.000 C 
BRANCH  18  19
ATOM     19  C   UNL     1      -0.617  10.640  18.303  0.00  0.00    +0.000 A 
ATOM     20  C   UNL     1      -1.384   9.810  17.480  0.00  0.00    +0.000 A 
ATOM     21  C   UNL     1      -2.755  10.005  17.426  0.00  0.00    +0.000 A 
ATOM     22  N   UNL     1      -3.408  10.954  18.131  0.00  0.00    +0.000 NA
ATOM     23  C   UNL     1      -2.654  11.741  18.927  0.00  0.00    +0.000 A 
ATOM     24  C   UNL     1      -1.277  11.625  19.046  0.00  0.00    +0.000 A 
ENDBRANCH  18  19
ENDBRANCH   4  18
TORSDOF 5
ENDMDL
MODEL 5
REMARK VINA RESULT:      -7.2      1.755      2.581
REMARK  Name = 
REMARK  5 active torsions:
REMARK  status: ('A' for Active; 'I' for Inactive)
REMARK    1  A    between atoms: S_2  and  N_4
REMARK    2  A    between atoms: S_2  and  C_18
REMARK    3  A    between atoms: N_4  and  C_5
REMARK    4  A    between atoms: C_8  and  C_9
REMARK    5  A    between atoms: C_9  and  C_10
REMARK                            x       y       z     vdW  Elec       q    Type
REMARK                         _______ _______ _______ _____ _____    ______ ____
ROOT
ATOM      1  C   UNL     1       2.761   6.252  18.833  0.00  0.00    +0.000 A 
ATOM      2  C   UNL     1       2.117   6.778  19.952  0.00  0.00    +0.000 A 
ATOM      3  C   UNL     1       1.695   8.111  19.953  0.00  0.00    +0.000 A 
ATOM      4  C   UNL     1       1.903   8.927  18.831  0.00  0.00    +0.000 A 
ATOM      5  C   UNL     1       2.552   8.383  17.713  0.00  0.00    +0.000 A 
ATOM      6  C   UNL     1       2.969   7.049  17.709  0.00  0.00    +0.000 A 
ENDROOT
BRANCH   1   7
ATOM      7  N   UNL     1       3.156   4.881  18.806  0.00  0.00    +0.000 N 
ATOM      8  H   UNL     1       2.874   4.388  17.958  0.00  0.00    +0.000 HD
BRANCH   7  10
ATOM      9  O   UNL     1       5.348   5.722  19.745  0.00  0.00    +0.000 OA
ATOM     10  S   UNL     1       4.807   4.568  19.060  0.00  0.00    +0.000 S 
ATOM     11  O   UNL     1       4.960   3.240  19.612  0.00  0.00    +0.000 OA
BRANCH  10  12
ATOM     12  C   UNL     1       5.634   4.515  17.488  0.00  0.00    +0.000 A 
ATOM     13  C   UNL     1       6.918   4.853  17.099  0.00  0.00    +0.000 A 
ATOM     14  C   UNL     1       7.126   4.671  15.699  0.00  0.00    +0.000 A 
ATOM     15  C   UNL     1       5.993   4.193  15.094  0.00  0.00    +0.000 A 
ATOM     16 CL   UNL     1       5.792   3.847  13.425  0.00  0.00    +0.000 Cl
ATOM     17  S   UNL     1       4.706   3.945  16.163  0.00  0.00    +0.000 S 
ENDBRANCH  10  12
ENDBRANCH   7  10
ENDBRANCH   1   7
BRANCH   4  18
ATOM     18  C   UNL     1       1.453  10.371  18.835  0.00  0.00    +0.000 C 
BRANCH  18  19
ATOM     19  C   UNL     1      -0.026  10.542  18.591  0.00  0.00    +0.000 A 
ATOM     20  C   UNL     1      -0.778  11.452  19.340  0.00  0.00    +0.000 A 
ATOM     21  C   UNL     1      -2.143  11.538  19.113  0.00  0.00    +0.000 A 
ATOM     22  N   UNL     1      -2.801  10.794  18.199  0.00  0.00    +0.000 NA
ATOM     23  C   UNL     1      -2.059   9.927  17.479  0.00  0.00    +0.000 A 
ATOM     24  C   UNL     1      -0.691   9.767  17.634  0.00  0.00    +0.000 A 
ENDBRANCH  18  19
ENDBRANCH   4  18
TORSDOF 5
ENDMDL
MODEL 6
REMARK VINA RESULT:      -7.2      1.338      1.710
REMARK  Name = 
REMARK  5 active torsions:
REMARK  status: ('A' for Active; 'I' for Inactive)
REMARK    1  A    between atoms: S_2  and  N_4
REMARK    2  A    between atoms: S_2  and  C_18
REMARK    3  A    between atoms: N_4  and  C_5
REMARK    4  A    between atoms: C_8  and  C_9
REMARK    5  A    between atoms: C_9  and  C_10
REMARK                            x       y       z     vdW  Elec       q    Type
REMARK                         _______ _______ _______ _____ _____    ______ ____
ROOT
ATOM      1  C   UNL     1       2.278   7.561  19.563  0.00  0.00    +0.000 A 
ATOM      2  C   UNL     1       1.430   8.108  20.525  0.00  0.00    +0.000 A 
ATOM      3  C   UNL     1       0.719   9.278  20.246  0.00  0.00    +0.000 A 
ATOM      4  C   UNL     1       0.841   9.908  18.998  0.00  0.00    +0.000 A 
ATOM      5  C   UNL     1       1.698   9.346  18.040  0.00  0.00    +0.000 A 
ATOM      6  C   UNL     1       2.405   8.172  18.317  0.00  0.00    +0.000 A 
ENDROOT
BRANCH   1   7
ATOM      7  N   UNL     1       2.974   6.342  19.823  0.00  0.00    +0.000 N 
ATOM      8  H   UNL     1       2.789   5.953  20.748  0.00  0.00    +0.000 HD
BRANCH   7  10
ATOM      9  O   UNL     1       3.074   3.857  19.365  0.00  0.00    +0.000 OA
ATOM     10  S   UNL     1       2.760   5.096  18.687  0.00  0.00    +0.000 S 
ATOM     11  O   UNL     1       1.487   5.274  18.022  0.00  0.00    +0.000 OA
BRANCH  10  12
ATOM     12  C   UNL     1       3.980   5.264  17.408  0.00  0.00    +0.000 A 
ATOM     13  C   UNL     1       4.647   6.362  16.894  0.00  0.00    +0.000 A 
ATOM     14  C   UNL     1       5.530   6.012  15.830  0.00  0.00    +0.000 A 
ATOM     15  C   UNL     1       5.501   4.663  15.594  0.00  0.00    +0.000 A 
ATOM     16 CL   UNL     1       6.391   3.813  14.397  0.00  0.00    +0.000 Cl
ATOM     17  S   UNL     1       4.459   3.816  16.622  0.00  0.00    +0.000 S 
ENDBRANCH  10  12
ENDBRANCH   7  10
ENDBRANCH   1   7
BRANCH   4  18
ATOM     18  C   UNL     1       0.078  11.178  18.697  0.00  0.00    +0.000 C 
BRANCH  18  19
ATOM     19  C   UNL     1      -1.360  10.940  18.306  0.00  0.00    +0.000 A 
ATOM     20  C   UNL     1      -1.699   9.944  17.385  0.00  0.00    +0.000 A 
ATOM     21  C   UNL     1      -3.028   9.796  17.020  0.00  0.00    +0.000 A 
ATOM     22  N   UNL     1      -4.031  10.558  17.506  0.00  0.00    +0.000 NA
ATOM     23  C   UNL     1      -3.687  11.510  18.400  0.00  0.00    +0.000 A 
ATOM     24  C   UNL     1      -2.387  11.735  18.826  0.00  0.00    +0.000 A 
ENDBRANCH  18  19
ENDBRANCH   4  18
TORSDOF 5
ENDMDL
MODEL 7
REMARK VINA RESULT:      -7.1      4.008      7.888
REMARK  Name = 
REMARK  5 active torsions:
REMARK  status: ('A' for Active; 'I' for Inactive)
REMARK    1  A    between atoms: S_2  and  N_4
REMARK    2  A    between atoms: S_2  and  C_18
REMARK    3  A    between atoms: N_4  and  C_5
REMARK    4  A    between atoms: C_8  and  C_9
REMARK    5  A    between atoms: C_9  and  C_10
REMARK                            x       y       z     vdW  Elec       q    Type
REMARK                         _______ _______ _______ _____ _____    ______ ____
ROOT
ATOM      1  C   UNL     1       1.894   7.404  20.544  0.00  0.00    +0.000 A 
ATOM      2  C   UNL     1       1.908   6.038  20.823  0.00  0.00    +0.000 A 
ATOM      3  C   UNL     1       2.269   5.125  19.829  0.00  0.00    +0.000 A 
ATOM      4  C   UNL     1       2.632   5.570  18.548  0.00  0.00    +0.000 A 
ATOM      5  C   UNL     1       2.614   6.948  18.283  0.00  0.00    +0.000 A 
ATOM      6  C   UNL     1       2.257   7.861  19.280  0.00  0.00    +0.000 A 
ENDROOT
BRANCH   1   7
ATOM      7  N   UNL     1       1.568   8.345  21.566  0.00  0.00    +0.000 N 
ATOM      8  H   UNL     1       2.165   9.173  21.569  0.00  0.00    +0.000 HD
BRANCH   7  10
ATOM      9  O   UNL     1      -0.866   7.744  21.237  0.00  0.00    +0.000 OA
ATOM     10  S   UNL     1      -0.046   8.874  21.615  0.00  0.00    +0.000 S 
ATOM     11  O   UNL     1      -0.279   9.574  22.860  0.00  0.00    +0.000 OA
BRANCH  10  12
ATOM     12  C   UNL     1      -0.295  10.091  20.345  0.00  0.00    +0.000 A 
ATOM     13  C   UNL     1      -0.921  10.037  19.112  0.00  0.00    +0.000 A 
ATOM     14  C   UNL     1      -0.842  11.275  18.409  0.00  0.00    +0.000 A 
ATOM     15  C   UNL     1      -0.170  12.215  19.145  0.00  0.00    +0.000 A 
ATOM     16 CL   UNL     1       0.170  13.831  18.679  0.00  0.00    +0.000 Cl
ATOM     17  S   UNL     1       0.348  11.651  20.653  0.00  0.00    +0.000 S 
ENDBRANCH  10  12
ENDBRANCH   7  10
ENDBRANCH   1   7
BRANCH   4  18
ATOM     18  C   UNL     1       3.017   4.582  17.469  0.00  0.00    +0.000 C 
BRANCH  18  19
ATOM     19  C   UNL     1       4.502   4.525  17.205  0.00  0.00    +0.000 A 
ATOM     20  C   UNL     1       5.423   4.730  18.237  0.00  0.00    +0.000 A 
ATOM     21  C   UNL     1       6.776   4.718  17.935  0.00  0.00    +0.000 A 
ATOM     22  N   UNL     1       7.269   4.512  16.695  0.00  0.00    +0.000 NA
ATOM     23  C   UNL     1       6.366   4.308  15.713  0.00  0.00    +0.000 A 
ATOM     24  C   UNL     1       4.994   4.304  15.914  0.00  0.00    +0.000 A 
ENDBRANCH  18  19
ENDBRANCH   4  18
TORSDOF 5
ENDMDL
MODEL 8
REMARK VINA RESULT:      -7.1      0.898      1.764
REMARK  Name = 
REMARK  5 active torsions:
REMARK  status: ('A' for Active; 'I' for Inactive)
REMARK    1  A    between atoms: S_2  and  N_4
REMARK    2  A    between atoms: S_2  and  C_18
REMARK    3  A    between atoms: N_4  and  C_5
REMARK    4  A    between atoms: C_8  and  C_9
REMARK    5  A    between atoms: C_9  and  C_10
REMARK                            x       y       z     vdW  Elec       q    Type
REMARK                         _______ _______ _______ _____ _____    ______ ____
ROOT
ATOM      1  C   UNL     1       2.239   6.832  20.153  0.00  0.00    +0.000 A 
ATOM      2  C   UNL     1       1.433   7.699  20.891  0.00  0.00    +0.000 A 
ATOM      3  C   UNL     1       1.014   8.909  20.332  0.00  0.00    +0.000 A 
ATOM      4  C   UNL     1       1.387   9.260  19.025  0.00  0.00    +0.000 A 
ATOM      5  C   UNL     1       2.198   8.377  18.295  0.00  0.00    +0.000 A 
ATOM      6  C   UNL     1       2.612   7.164  18.853  0.00  0.00    +0.000 A 
ENDROOT
BRANCH   1   7
ATOM      7  N   UNL     1       2.635   5.575  20.701  0.00  0.00    +0.000 N 
ATOM      8  H   UNL     1       2.088   5.290  21.514  0.00  0.00    +0.000 HD
BRANCH   7  10
ATOM      9  O   UNL     1       2.813   3.067  20.423  0.00  0.00    +0.000 OA
ATOM     10  S   UNL     1       2.674   4.263  19.620  0.00  0.00    +0.000 S 
ATOM     11  O   UNL     1       1.589   4.396  18.672  0.00  0.00    +0.000 OA
BRANCH  10  12
ATOM     12  C   UNL     1       4.156   4.360  18.646  0.00  0.00    +0.000 A 
ATOM     13  C   UNL     1       5.455   4.720  18.959  0.00  0.00    +0.000 A 
ATOM     14  C   UNL     1       6.318   4.679  17.824  0.00  0.00    +0.000 A 
ATOM     15  C   UNL     1       5.636   4.280  16.705  0.00  0.00    +0.000 A 
ATOM     16 CL   UNL     1       6.276   4.109  15.121  0.00  0.00    +0.000 Cl
ATOM     17  S   UNL     1       4.003   3.941  16.990  0.00  0.00    +0.000 S 
ENDBRANCH  10  12
ENDBRANCH   7  10
ENDBRANCH   1   7
BRANCH   4  18
ATOM     18  C   UNL     1       0.940  10.572  18.422  0.00  0.00    +0.000 C 
BRANCH  18  19
ATOM     19  C   UNL     1      -0.559  10.702  18.302  0.00  0.00    +0.000 A 
ATOM     20  C   UNL     1      -1.254  11.690  19.005  0.00  0.00    +0.000 A 
ATOM     21  C   UNL     1      -2.635  11.737  18.902  0.00  0.00    +0.000 A 
ATOM     22  N   UNL     1      -3.363  10.883  18.151  0.00  0.00    +0.000 NA
ATOM     23  C   UNL     1      -2.676   9.940  17.473  0.00  0.00    +0.000 A 
ATOM     24  C   UNL     1      -1.296   9.811  17.514  0.00  0.00    +0.000 A 
ENDBRANCH  18  19
ENDBRANCH   4  18
TORSDOF 5
ENDMDL
MODEL 9
REMARK VINA RESULT:      -7.1      3.745      5.813
REMARK  Name = 
REMARK  5 active torsions:
REMARK  status: ('A' for Active; 'I' for Inactive)
REMARK    1  A    between atoms: S_2  and  N_4
REMARK    2  A    between atoms: S_2  and  C_18
REMARK    3  A    between atoms: N_4  and  C_5
REMARK    4  A    between atoms: C_8  and  C_9
REMARK    5  A    between atoms: C_9  and  C_10
REMARK                            x       y       z     vdW  Elec       q    Type
REMARK                         _______ _______ _______ _____ _____    ______ ____
ROOT
ATOM      1  C   UNL     1      -1.617  10.858  18.030  0.00  0.00    +0.000 A 
ATOM      2  C   UNL     1      -2.276  11.811  18.806  0.00  0.00    +0.000 A 
ATOM      3  C   UNL     1      -3.667  11.928  18.736  0.00  0.00    +0.000 A 
ATOM      4  C   UNL     1      -4.413  11.085  17.899  0.00  0.00    +0.000 A 
ATOM      5  C   UNL     1      -3.736  10.131  17.124  0.00  0.00    +0.000 A 
ATOM      6  C   UNL     1      -2.345  10.011  17.198  0.00  0.00    +0.000 A 
ENDROOT
BRANCH   1   7
ATOM      7  N   UNL     1      -0.201  10.702  18.128  0.00  0.00    +0.000 N 
ATOM      8  H   UNL     1       0.324  11.530  17.844  0.00  0.00    +0.000 HD
BRANCH   7  10
ATOM      9  O   UNL     1       1.290  11.247  20.097  0.00  0.00    +0.000 OA
ATOM     10  S   UNL     1       0.398  10.204  19.638  0.00  0.00    +0.000 S 
ATOM     11  O   UNL     1      -0.705   9.757  20.463  0.00  0.00    +0.000 OA
BRANCH  10  12
ATOM     12  C   UNL     1       1.419   8.768  19.411  0.00  0.00    +0.000 A 
ATOM     13  C   UNL     1       1.732   7.706  20.241  0.00  0.00    +0.000 A 
ATOM     14  C   UNL     1       2.636   6.788  19.629  0.00  0.00    +0.000 A 
ATOM     15  C   UNL     1       2.958   7.190  18.360  0.00  0.00    +0.000 A 
ATOM     16 CL   UNL     1       4.022   6.395  17.272  0.00  0.00    +0.000 Cl
ATOM     17  S   UNL     1       2.193   8.623  17.887  0.00  0.00    +0.000 S 
ENDBRANCH  10  12
ENDBRANCH   7  10
ENDBRANCH   1   7
BRANCH   4  18
ATOM     18  C   UNL     1      -5.918  11.216  17.818  0.00  0.00    +0.000 C 
BRANCH  18  19
ATOM     19  C   UNL     1      -6.638  10.650  19.017  0.00  0.00    +0.000 A 
ATOM     20  C   UNL     1      -7.148  11.490  20.011  0.00  0.00    +0.000 A 
ATOM     21  C   UNL     1      -7.758  10.921  21.119  0.00  0.00    +0.000 A 
ATOM     22  N   UNL     1      -7.898   9.590  21.299  0.00  0.00    +0.000 NA
ATOM     23  C   UNL     1      -7.408   8.794  20.326  0.00  0.00    +0.000 A 
ATOM     24  C   UNL     1      -6.780   9.268  19.183  0.00  0.00    +0.000 A 
ENDBRANCH  18  19
ENDBRANCH   4  18
TORSDOF 5
ENDMDL
