MODEL 1
REMARK VINA RESULT:      -7.5      0.000      0.000
REMARK  Name = 
REMARK  9 active torsions:
REMARK  status: ('A' for Active; 'I' for Inactive)
REMARK    1  A    between atoms: C_2  and  C_3
REMARK    2  A    between atoms: C_7  and  S_8
REMARK    3  A    between atoms: S_8  and  C_9
REMARK    4  A    between atoms: C_9  and  C_10
REMARK    5  A    between atoms: C_15  and  C_16
REMARK    6  A    between atoms: C_18  and  C_19
REMARK    7  A    between atoms: C_22  and  O_23
REMARK    8  A    between atoms: O_23  and  C_24
REMARK    9  A    between atoms: C_24  and  C_25
REMARK                            x       y       z     vdW  Elec       q    Type
REMARK                         _______ _______ _______ _____ _____    ______ ____
ROOT
ATOM      1  C   UNL     1       2.744   4.108  18.358  0.00  0.00    +0.000 A 
ATOM      2  C   UNL     1       3.365   2.937  17.921  0.00  0.00    +0.000 A 
ATOM      3  N   UNL     1       2.859   1.669  18.163  0.00  0.00    +0.000 N 
ATOM      4  N   UNL     1       4.470   2.951  17.153  0.00  0.00    +0.000 NA
ATOM      5  C   UNL     1       5.044   4.131  16.857  0.00  0.00    +0.000 A 
ATOM      6  C   UNL     1       4.573   5.346  17.378  0.00  0.00    +0.000 A 
ATOM      7  C   UNL     1       3.352   5.366  18.117  0.00  0.00    +0.000 A 
ATOM      8  H   UNL     1       2.594   1.497  19.129  0.00  0.00    +0.000 HD
ATOM      9  H   UNL     1       3.523   0.974  17.824  0.00  0.00    +0.000 HD
ENDROOT
BRANCH   7  10
ATOM     10  C   UNL     1       2.713   6.652  18.567  0.00  0.00    +0.000 A 
ATOM     11  C   UNL     1       2.376   7.651  17.636  0.00  0.00    +0.000 A 
ATOM     12  C   UNL     1       1.797   8.862  18.021  0.00  0.00    +0.000 A 
ATOM     13  C   UNL     1       1.391   9.065  19.334  0.00  0.00    +0.000 A 
ATOM     14  C   UNL     1       1.698   8.099  20.283  0.00  0.00    +0.000 A 
ATOM     15  C   UNL     1       2.384   6.932  19.909  0.00  0.00    +0.000 A 
BRANCH  13  16
ATOM     16  O   UNL     1       0.676  10.151  19.766  0.00  0.00    +0.000 OA
BRANCH  16  17
ATOM     17  C   UNL     1       0.769  10.375  21.176  0.00  0.00    +0.000 C 
BRANCH  17  18
ATOM     18  C   UNL     1      -0.596  10.428  21.778  0.00  0.00    +0.000 C 
ATOM     19  C   UNL     1      -0.740  10.095  23.240  0.00  0.00    +0.000 C 
ATOM     20  C   UNL     1      -0.953  11.507  22.770  0.00  0.00    +0.000 C 
ENDBRANCH  17  18
ENDBRANCH  16  17
ENDBRANCH  13  16
ENDBRANCH   7  10
BRANCH   1  22
ATOM     21  N   UNL     1       0.509   3.836  19.656  0.00  0.00    +0.000 NA
ATOM     22  C   UNL     1       1.490   3.951  19.045  0.00  0.00    +0.000 C 
ENDBRANCH   1  22
BRANCH   6  23
ATOM     23  C   UNL     1       5.359   6.529  17.158  0.00  0.00    +0.000 C 
ATOM     24  N   UNL     1       6.013   7.474  16.981  0.00  0.00    +0.000 NA
ENDBRANCH   6  23
BRANCH   5  25
ATOM     25  S   UNL     1       6.444   4.013  15.730  0.00  0.00    +0.000 S 
BRANCH  25  26
ATOM     26  C   UNL     1       5.674   4.676  14.211  0.00  0.00    +0.000 C 
BRANCH  26  27
ATOM     27  C   UNL     1       5.626   3.716  13.071  0.00  0.00    +0.000 A 
ATOM     28  C   UNL     1       4.574   3.385  12.237  0.00  0.00    +0.000 A 
ATOM     29  N   UNL     1       4.954   2.454  11.308  0.00  0.00    +0.000 NA
ATOM     30  C   UNL     1       6.217   2.208  11.561  0.00  0.00    +0.000 A 
ATOM     31  N   UNL     1       6.668   2.942  12.620  0.00  0.00    +0.000 N 
ATOM     32  H   UNL     1       7.603   2.919  13.006  0.00  0.00    +0.000 HD
ENDBRANCH  26  27
ENDBRANCH  25  26
ENDBRANCH   5  25
TORSDOF 9
ENDMDL
MODEL 2
REMARK VINA RESULT:      -7.2      0.364      1.025
REMARK  Name = 
REMARK  9 active torsions:
REMARK  status: ('A' for Active; 'I' for Inactive)
REMARK    1  A    between atoms: C_2  and  C_3
REMARK    2  A    between atoms: C_7  and  S_8
REMARK    3  A    between atoms: S_8  and  C_9
REMARK    4  A    between atoms: C_9  and  C_10
REMARK    5  A    between atoms: C_15  and  C_16
REMARK    6  A    between atoms: C_18  and  C_19
REMARK    7  A    between atoms: C_22  and  O_23
REMARK    8  A    between atoms: O_23  and  C_24
REMARK    9  A    between atoms: C_24  and  C_25
REMARK                            x       y       z     vdW  Elec       q    Type
REMARK                         _______ _______ _______ _____ _____    ______ ____
ROOT
ATOM      1  C   UNL     1       2.832   4.050  18.344  0.00  0.00    +0.000 A 
ATOM      2  C   UNL     1       3.507   2.918  17.882  0.00  0.00    +0.000 A 
ATOM      3  N   UNL     1       3.068   1.623  18.108  0.00  0.00    +0.000 N 
ATOM      4  N   UNL     1       4.604   3.001  17.107  0.00  0.00    +0.000 NA
ATOM      5  C   UNL     1       5.115   4.213  16.826  0.00  0.00    +0.000 A 
ATOM      6  C   UNL     1       4.587   5.394  17.370  0.00  0.00    +0.000 A 
ATOM      7  C   UNL     1       3.372   5.341  18.118  0.00  0.00    +0.000 A 
ATOM      8  H   UNL     1       2.820   1.423  19.073  0.00  0.00    +0.000 HD
ATOM      9  H   UNL     1       3.764   0.968  17.753  0.00  0.00    +0.000 HD
ENDROOT
BRANCH   7  10
ATOM     10  C   UNL     1       2.673   6.585  18.593  0.00  0.00    +0.000 A 
ATOM     11  C   UNL     1       2.405   6.781  19.960  0.00  0.00    +0.000 A 
ATOM     12  C   UNL     1       1.744   7.916  20.434  0.00  0.00    +0.000 A 
ATOM     13  C   UNL     1       1.456   8.973  19.580  0.00  0.00    +0.000 A 
ATOM     14  C   UNL     1       1.711   8.823  18.224  0.00  0.00    +0.000 A 
ATOM     15  C   UNL     1       2.272   7.631  17.736  0.00  0.00    +0.000 A 
BRANCH  13  16
ATOM     16  O   UNL     1       0.956  10.183  19.984  0.00  0.00    +0.000 OA
BRANCH  16  17
ATOM     17  C   UNL     1      -0.244  10.080  20.756  0.00  0.00    +0.000 C 
BRANCH  17  18
ATOM     18  C   UNL     1      -0.057  10.731  22.086  0.00  0.00    +0.000 C 
ATOM     19  C   UNL     1      -0.723  12.061  22.325  0.00  0.00    +0.000 C 
ATOM     20  C   UNL     1      -1.207  10.838  23.055  0.00  0.00    +0.000 C 
ENDBRANCH  17  18
ENDBRANCH  16  17
ENDBRANCH  13  16
ENDBRANCH   7  10
BRANCH   1  22
ATOM     21  N   UNL     1       0.577   3.589  19.550  0.00  0.00    +0.000 NA
ATOM     22  C   UNL     1       1.592   3.819  19.037  0.00  0.00    +0.000 C 
ENDBRANCH   1  22
BRANCH   6  23
ATOM     23  C   UNL     1       5.310   6.619  17.163  0.00  0.00    +0.000 C 
ATOM     24  N   UNL     1       5.894   7.614  17.017  0.00  0.00    +0.000 NA
ENDBRANCH   6  23
BRANCH   5  25
ATOM     25  S   UNL     1       6.510   4.184  15.687  0.00  0.00    +0.000 S 
BRANCH  25  26
ATOM     26  C   UNL     1       5.675   4.745  14.162  0.00  0.00    +0.000 C 
BRANCH  26  27
ATOM     27  C   UNL     1       5.667   3.745  13.056  0.00  0.00    +0.000 A 
ATOM     28  C   UNL     1       4.631   3.341  12.235  0.00  0.00    +0.000 A 
ATOM     29  N   UNL     1       5.050   2.395  11.338  0.00  0.00    +0.000 NA
ATOM     30  C   UNL     1       6.321   2.212  11.598  0.00  0.00    +0.000 A 
ATOM     31  N   UNL     1       6.741   3.000  12.631  0.00  0.00    +0.000 N 
ATOM     32  H   UNL     1       7.676   3.030  13.017  0.00  0.00    +0.000 HD
ENDBRANCH  26  27
ENDBRANCH  25  26
ENDBRANCH   5  25
TORSDOF 9
ENDMDL
MODEL 3
REMARK VINA RESULT:      -7.2      1.938      2.448
REMARK  Name = 
REMARK  9 active torsions:
REMARK  status: ('A' for Active; 'I' for Inactive)
REMARK    1  A    between atoms: C_2  and  C_3
REMARK    2  A    between atoms: C_7  and  S_8
REMARK    3  A    between atoms: S_8  and  C_9
REMARK    4  A    between atoms: C_9  and  C_10
REMARK    5  A    between atoms: C_15  and  C_16
REMARK    6  A    between atoms: C_18  and  C_19
REMARK    7  A    between atoms: C_22  and  O_23
REMARK    8  A    between atoms: O_23  and  C_24
REMARK    9  A    between atoms: C_24  and  C_25
REMARK                            x       y       z     vdW  Elec       q    Type
REMARK                         _______ _______ _______ _____ _____    ______ ____
ROOT
ATOM      1  C   UNL     1       3.038   4.588  19.286  0.00  0.00    +0.000 A 
ATOM      2  C   UNL     1       3.847   3.453  19.210  0.00  0.00    +0.000 A 
ATOM      3  N   UNL     1       3.514   2.237  19.788  0.00  0.00    +0.000 N 
ATOM      4  N   UNL     1       4.986   3.428  18.494  0.00  0.00    +0.000 NA
ATOM      5  C   UNL     1       5.403   4.556  17.890  0.00  0.00    +0.000 A 
ATOM      6  C   UNL     1       4.729   5.778  18.038  0.00  0.00    +0.000 A 
ATOM      7  C   UNL     1       3.472   5.809  18.714  0.00  0.00    +0.000 A 
ATOM      8  H   UNL     1       3.214   2.298  20.757  0.00  0.00    +0.000 HD
ATOM      9  H   UNL     1       4.291   1.589  19.673  0.00  0.00    +0.000 HD
ENDROOT
BRANCH   7  10
ATOM     10  C   UNL     1       2.628   7.053  18.770  0.00  0.00    +0.000 A 
ATOM     11  C   UNL     1       2.157   7.547  20.000  0.00  0.00    +0.000 A 
ATOM     12  C   UNL     1       1.358   8.689  20.086  0.00  0.00    +0.000 A 
ATOM     13  C   UNL     1       1.120   9.472  18.964  0.00  0.00    +0.000 A 
ATOM     14  C   UNL     1       1.575   9.024  17.731  0.00  0.00    +0.000 A 
ATOM     15  C   UNL     1       2.280   7.813  17.633  0.00  0.00    +0.000 A 
BRANCH  13  16
ATOM     16  O   UNL     1       0.485  10.685  18.984  0.00  0.00    +0.000 OA
BRANCH  16  17
ATOM     17  C   UNL     1      -0.933  10.589  19.139  0.00  0.00    +0.000 C 
BRANCH  17  18
ATOM     18  C   UNL     1      -1.594  10.545  17.801  0.00  0.00    +0.000 C 
ATOM     19  C   UNL     1      -2.891   9.788  17.675  0.00  0.00    +0.000 C 
ATOM     20  C   UNL     1      -2.885  11.288  17.561  0.00  0.00    +0.000 C 
ENDBRANCH  17  18
ENDBRANCH  16  17
ENDBRANCH  13  16
ENDBRANCH   7  10
BRANCH   1  22
ATOM     21  N   UNL     1       0.734   4.348  20.464  0.00  0.00    +0.000 NA
ATOM     22  C   UNL     1       1.777   4.432  19.962  0.00  0.00    +0.000 C 
ENDBRANCH   1  22
BRANCH   6  23
ATOM     23  C   UNL     1       5.350   6.963  17.511  0.00  0.00    +0.000 C 
ATOM     24  N   UNL     1       5.865   7.908  17.073  0.00  0.00    +0.000 NA
ENDBRANCH   6  23
BRANCH   5  25
ATOM     25  S   UNL     1       6.875   4.353  16.873  0.00  0.00    +0.000 S 
BRANCH  25  26
ATOM     26  C   UNL     1       6.106   3.724  15.340  0.00  0.00    +0.000 C 
BRANCH  26  27
ATOM     27  C   UNL     1       6.724   4.234  14.082  0.00  0.00    +0.000 A 
ATOM     28  C   UNL     1       6.575   3.792  12.781  0.00  0.00    +0.000 A 
ATOM     29  N   UNL     1       7.324   4.543  11.914  0.00  0.00    +0.000 NA
ATOM     30  C   UNL     1       7.928   5.433  12.663  0.00  0.00    +0.000 A 
ATOM     31  N   UNL     1       7.603   5.285  13.981  0.00  0.00    +0.000 N 
ATOM     32  H   UNL     1       7.949   5.848  14.747  0.00  0.00    +0.000 HD
ENDBRANCH  26  27
ENDBRANCH  25  26
ENDBRANCH   5  25
TORSDOF 9
ENDMDL
MODEL 4
REMARK VINA RESULT:      -7.2      1.265      1.773
REMARK  Name = 
REMARK  9 active torsions:
REMARK  status: ('A' for Active; 'I' for Inactive)
REMARK    1  A    between atoms: C_2  and  C_3
REMARK    2  A    between atoms: C_7  and  S_8
REMARK    3  A    between atoms: S_8  and  C_9
REMARK    4  A    between atoms: C_9  and  C_10
REMARK    5  A    between atoms: C_15  and  C_16
REMARK    6  A    between atoms: C_18  and  C_19
REMARK    7  A    between atoms: C_22  and  O_23
REMARK    8  A    between atoms: O_23  and  C_24
REMARK    9  A    between atoms: C_24  and  C_25
REMARK                            x       y       z     vdW  Elec       q    Type
REMARK                         _______ _______ _______ _____ _____    ______ ____
ROOT
ATOM      1  C   UNL     1       2.827   3.996  18.328  0.00  0.00    +0.000 A 
ATOM      2  C   UNL     1       3.499   2.848  17.902  0.00  0.00    +0.000 A 
ATOM      3  N   UNL     1       3.055   1.562  18.165  0.00  0.00    +0.000 N 
ATOM      4  N   UNL     1       4.597   2.904  17.126  0.00  0.00    +0.000 NA
ATOM      5  C   UNL     1       5.114   4.105  16.810  0.00  0.00    +0.000 A 
ATOM      6  C   UNL     1       4.590   5.303  17.318  0.00  0.00    +0.000 A 
ATOM      7  C   UNL     1       3.374   5.277  18.065  0.00  0.00    +0.000 A 
ATOM      8  H   UNL     1       2.804   1.391  19.135  0.00  0.00    +0.000 HD
ATOM      9  H   UNL     1       3.748   0.894  17.831  0.00  0.00    +0.000 HD
ENDROOT
BRANCH   7  10
ATOM     10  C   UNL     1       2.678   6.537  18.502  0.00  0.00    +0.000 A 
ATOM     11  C   UNL     1       2.391   6.765  19.860  0.00  0.00    +0.000 A 
ATOM     12  C   UNL     1       1.733   7.916  20.299  0.00  0.00    +0.000 A 
ATOM     13  C   UNL     1       1.468   8.957  19.418  0.00  0.00    +0.000 A 
ATOM     14  C   UNL     1       1.744   8.775  18.070  0.00  0.00    +0.000 A 
ATOM     15  C   UNL     1       2.301   7.568  17.617  0.00  0.00    +0.000 A 
BRANCH  13  16
ATOM     16  O   UNL     1       0.973  10.180  19.788  0.00  0.00    +0.000 OA
BRANCH  16  17
ATOM     17  C   UNL     1      -0.454  10.255  19.754  0.00  0.00    +0.000 C 
BRANCH  17  18
ATOM     18  C   UNL     1      -0.922  10.519  18.361  0.00  0.00    +0.000 C 
ATOM     19  C   UNL     1      -2.387  10.333  18.058  0.00  0.00    +0.000 C 
ATOM     20  C   UNL     1      -1.791  11.714  18.059  0.00  0.00    +0.000 C 
ENDBRANCH  17  18
ENDBRANCH  16  17
ENDBRANCH  13  16
ENDBRANCH   7  10
BRANCH   1  22
ATOM     21  N   UNL     1       0.592   3.682  19.616  0.00  0.00    +0.000 NA
ATOM     22  C   UNL     1       1.586   3.790  19.026  0.00  0.00    +0.000 C 
ENDBRANCH   1  22
BRANCH   6  23
ATOM     23  C   UNL     1       5.318   6.519  17.076  0.00  0.00    +0.000 C 
ATOM     24  N   UNL     1       5.897   7.504  16.862  0.00  0.00    +0.000 NA
ENDBRANCH   6  23
BRANCH   5  25
ATOM     25  S   UNL     1       6.510   4.037  15.675  0.00  0.00    +0.000 S 
BRANCH  25  26
ATOM     26  C   UNL     1       5.714   4.691  14.166  0.00  0.00    +0.000 C 
BRANCH  26  27
ATOM     27  C   UNL     1       5.627   3.719  13.039  0.00  0.00    +0.000 A 
ATOM     28  C   UNL     1       4.566   3.426  12.203  0.00  0.00    +0.000 A 
ATOM     29  N   UNL     1       4.906   2.464  11.290  0.00  0.00    +0.000 NA
ATOM     30  C   UNL     1       6.154   2.163  11.555  0.00  0.00    +0.000 A 
ATOM     31  N   UNL     1       6.634   2.889  12.606  0.00  0.00    +0.000 N 
ATOM     32  H   UNL     1       7.564   2.827  12.999  0.00  0.00    +0.000 HD
ENDBRANCH  26  27
ENDBRANCH  25  26
ENDBRANCH   5  25
TORSDOF 9
ENDMDL
MODEL 5
REMARK VINA RESULT:      -7.2      1.378      1.784
REMARK  Name = 
REMARK  9 active torsions:
REMARK  status: ('A' for Active; 'I' for Inactive)
REMARK    1  A    between atoms: C_2  and  C_3
REMARK    2  A    between atoms: C_7  and  S_8
REMARK    3  A    between atoms: S_8  and  C_9
REMARK    4  A    between atoms: C_9  and  C_10
REMARK    5  A    between atoms: C_15  and  C_16
REMARK    6  A    between atoms: C_18  and  C_19
REMARK    7  A    between atoms: C_22  and  O_23
REMARK    8  A    between atoms: O_23  and  C_24
REMARK    9  A    between atoms: C_24  and  C_25
REMARK                            x       y       z     vdW  Elec       q    Type
REMARK                         _______ _______ _______ _____ _____    ______ ____
ROOT
ATOM      1  C   UNL     1       2.767   4.160  18.441  0.00  0.00    +0.000 A 
ATOM      2  C   UNL     1       3.397   2.994  18.000  0.00  0.00    +0.000 A 
ATOM      3  N   UNL     1       2.905   1.721  18.246  0.00  0.00    +0.000 N 
ATOM      4  N   UNL     1       4.498   3.020  17.227  0.00  0.00    +0.000 NA
ATOM      5  C   UNL     1       5.059   4.206  16.928  0.00  0.00    +0.000 A 
ATOM      6  C   UNL     1       4.577   5.416  17.451  0.00  0.00    +0.000 A 
ATOM      7  C   UNL     1       3.360   5.424  18.196  0.00  0.00    +0.000 A 
ATOM      8  H   UNL     1       2.647   1.547  19.213  0.00  0.00    +0.000 HD
ATOM      9  H   UNL     1       3.575   1.034  17.904  0.00  0.00    +0.000 HD
ENDROOT
BRANCH   7  10
ATOM     10  C   UNL     1       2.710   6.703  18.649  0.00  0.00    +0.000 A 
ATOM     11  C   UNL     1       2.369   7.703  17.721  0.00  0.00    +0.000 A 
ATOM     12  C   UNL     1       1.780   8.908  18.108  0.00  0.00    +0.000 A 
ATOM     13  C   UNL     1       1.368   9.104  19.420  0.00  0.00    +0.000 A 
ATOM     14  C   UNL     1       1.679   8.136  20.367  0.00  0.00    +0.000 A 
ATOM     15  C   UNL     1       2.375   6.975  19.991  0.00  0.00    +0.000 A 
BRANCH  13  16
ATOM     16  O   UNL     1       0.644  10.182  19.854  0.00  0.00    +0.000 OA
BRANCH  16  17
ATOM     17  C   UNL     1      -0.763  10.056  19.634  0.00  0.00    +0.000 C 
BRANCH  17  18
ATOM     18  C   UNL     1      -1.154  10.771  18.383  0.00  0.00    +0.000 C 
ATOM     19  C   UNL     1      -1.762   9.966  17.265  0.00  0.00    +0.000 C 
ATOM     20  C   UNL     1      -2.608  10.949  18.025  0.00  0.00    +0.000 C 
ENDBRANCH  17  18
ENDBRANCH  16  17
ENDBRANCH  13  16
ENDBRANCH   7  10
BRANCH   1  22
ATOM     21  N   UNL     1       0.540   3.812  19.735  0.00  0.00    +0.000 NA
ATOM     22  C   UNL     1       1.517   3.990  19.134  0.00  0.00    +0.000 C 
ENDBRANCH   1  22
BRANCH   6  23
ATOM     23  C   UNL     1       5.350   6.607  17.226  0.00  0.00    +0.000 C 
ATOM     24  N   UNL     1       5.988   7.559  17.031  0.00  0.00    +0.000 NA
ENDBRANCH   6  23
BRANCH   5  25
ATOM     25  S   UNL     1       6.453   4.101  15.794  0.00  0.00    +0.000 S 
BRANCH  25  26
ATOM     26  C   UNL     1       5.664   4.740  14.274  0.00  0.00    +0.000 C 
BRANCH  26  27
ATOM     27  C   UNL     1       5.749   3.826  13.100  0.00  0.00    +0.000 A 
ATOM     28  C   UNL     1       6.860   3.315  12.455  0.00  0.00    +0.000 A 
ATOM     29  N   UNL     1       6.498   2.504  11.412  0.00  0.00    +0.000 NA
ATOM     30  C   UNL     1       5.187   2.513  11.408  0.00  0.00    +0.000 A 
ATOM     31  N   UNL     1       4.687   3.301  12.404  0.00  0.00    +0.000 N 
ATOM     32  H   UNL     1       3.708   3.470  12.596  0.00  0.00    +0.000 HD
ENDBRANCH  26  27
ENDBRANCH  25  26
ENDBRANCH   5  25
TORSDOF 9
ENDMDL
MODEL 6
REMARK VINA RESULT:      -7.1      1.377      2.005
REMARK  Name = 
REMARK  9 active torsions:
REMARK  status: ('A' for Active; 'I' for Inactive)
REMARK    1  A    between atoms: C_2  and  C_3
REMARK    2  A    between atoms: C_7  and  S_8
REMARK    3  A    between atoms: S_8  and  C_9
REMARK    4  A    between atoms: C_9  and  C_10
REMARK    5  A    between atoms: C_15  and  C_16
REMARK    6  A    between atoms: C_18  and  C_19
REMARK    7  A    between atoms: C_22  and  O_23
REMARK    8  A    between atoms: O_23  and  C_24
REMARK    9  A    between atoms: C_24  and  C_25
REMARK                            x       y       z     vdW  Elec       q    Type
REMARK                         _______ _______ _______ _____ _____    ______ ____
ROOT
ATOM      1  C   UNL     1       2.768   4.032  18.385  0.00  0.00    +0.000 A 
ATOM      2  C   UNL     1       3.421   2.881  17.940  0.00  0.00    +0.000 A 
ATOM      3  N   UNL     1       2.969   1.597  18.204  0.00  0.00    +0.000 N 
ATOM      4  N   UNL     1       4.505   2.931  17.145  0.00  0.00    +0.000 NA
ATOM      5  C   UNL     1       5.027   4.129  16.826  0.00  0.00    +0.000 A 
ATOM      6  C   UNL     1       4.524   5.329  17.350  0.00  0.00    +0.000 A 
ATOM      7  C   UNL     1       3.321   5.310  18.119  0.00  0.00    +0.000 A 
ATOM      8  H   UNL     1       2.735   1.423  19.177  0.00  0.00    +0.000 HD
ATOM      9  H   UNL     1       3.650   0.925  17.853  0.00  0.00    +0.000 HD
ENDROOT
BRANCH   7  10
ATOM     10  C   UNL     1       2.646   6.574  18.576  0.00  0.00    +0.000 A 
ATOM     11  C   UNL     1       2.374   6.791  19.939  0.00  0.00    +0.000 A 
ATOM     12  C   UNL     1       1.734   7.945  20.396  0.00  0.00    +0.000 A 
ATOM     13  C   UNL     1       1.475   8.999  19.530  0.00  0.00    +0.000 A 
ATOM     14  C   UNL     1       1.736   8.828  18.177  0.00  0.00    +0.000 A 
ATOM     15  C   UNL     1       2.274   7.619  17.706  0.00  0.00    +0.000 A 
BRANCH  13  16
ATOM     16  O   UNL     1       0.999  10.223  19.917  0.00  0.00    +0.000 OA
BRANCH  16  17
ATOM     17  C   UNL     1       0.978  11.191  18.864  0.00  0.00    +0.000 C 
BRANCH  17  18
ATOM     18  C   UNL     1       1.853  12.349  19.213  0.00  0.00    +0.000 C 
ATOM     19  C   UNL     1       2.430  13.167  18.087  0.00  0.00    +0.000 C 
ATOM     20  C   UNL     1       1.380  13.762  18.983  0.00  0.00    +0.000 C 
ENDBRANCH  17  18
ENDBRANCH  16  17
ENDBRANCH  13  16
ENDBRANCH   7  10
BRANCH   1  22
ATOM     21  N   UNL     1       0.580   3.659  19.738  0.00  0.00    +0.000 NA
ATOM     22  C   UNL     1       1.538   3.834  19.104  0.00  0.00    +0.000 C 
ENDBRANCH   1  22
BRANCH   6  23
ATOM     23  C   UNL     1       5.259   6.539  17.102  0.00  0.00    +0.000 C 
ATOM     24  N   UNL     1       5.835   7.529  16.901  0.00  0.00    +0.000 NA
ENDBRANCH   6  23
BRANCH   5  25
ATOM     25  S   UNL     1       6.402   4.055  15.665  0.00  0.00    +0.000 S 
BRANCH  25  26
ATOM     26  C   UNL     1       5.574   4.692  14.166  0.00  0.00    +0.000 C 
BRANCH  26  27
ATOM     27  C   UNL     1       5.512   3.725  13.033  0.00  0.00    +0.000 A 
ATOM     28  C   UNL     1       4.479   3.455  12.155  0.00  0.00    +0.000 A 
ATOM     29  N   UNL     1       4.836   2.490  11.252  0.00  0.00    +0.000 NA
ATOM     30  C   UNL     1       6.067   2.164  11.563  0.00  0.00    +0.000 A 
ATOM     31  N   UNL     1       6.519   2.878  12.635  0.00  0.00    +0.000 N 
ATOM     32  H   UNL     1       7.432   2.797  13.063  0.00  0.00    +0.000 HD
ENDBRANCH  26  27
ENDBRANCH  25  26
ENDBRANCH   5  25
TORSDOF 9
ENDMDL
MODEL 7
REMARK VINA RESULT:      -7.1      2.128      3.174
REMARK  Name = 
REMARK  9 active torsions:
REMARK  status: ('A' for Active; 'I' for Inactive)
REMARK    1  A    between atoms: C_2  and  C_3
REMARK    2  A    between atoms: C_7  and  S_8
REMARK    3  A    between atoms: S_8  and  C_9
REMARK    4  A    between atoms: C_9  and  C_10
REMARK    5  A    between atoms: C_15  and  C_16
REMARK    6  A    between atoms: C_18  and  C_19
REMARK    7  A    between atoms: C_22  and  O_23
REMARK    8  A    between atoms: O_23  and  C_24
REMARK    9  A    between atoms: C_24  and  C_25
REMARK                            x       y       z     vdW  Elec       q    Type
REMARK                         _______ _______ _______ _____ _____    ______ ____
ROOT
ATOM      1  C   UNL     1       2.626   4.285  18.587  0.00  0.00    +0.000 A 
ATOM      2  C   UNL     1       3.243   3.128  18.106  0.00  0.00    +0.000 A 
ATOM      3  N   UNL     1       2.950   1.856  18.574  0.00  0.00    +0.000 N 
ATOM      4  N   UNL     1       4.120   3.151  17.087  0.00  0.00    +0.000 NA
ATOM      5  C   UNL     1       4.476   4.336  16.557  0.00  0.00    +0.000 A 
ATOM      6  C   UNL     1       4.018   5.556  17.076  0.00  0.00    +0.000 A 
ATOM      7  C   UNL     1       3.018   5.555  18.095  0.00  0.00    +0.000 A 
ATOM      8  H   UNL     1       2.948   1.768  19.586  0.00  0.00    +0.000 HD
ATOM      9  H   UNL     1       3.582   1.187  18.138  0.00  0.00    +0.000 HD
ENDROOT
BRANCH   7  10
ATOM     10  C   UNL     1       2.374   6.824  18.582  0.00  0.00    +0.000 A 
ATOM     11  C   UNL     1       2.207   7.063  19.958  0.00  0.00    +0.000 A 
ATOM     12  C   UNL     1       1.599   8.222  20.444  0.00  0.00    +0.000 A 
ATOM     13  C   UNL     1       1.269   9.260  19.583  0.00  0.00    +0.000 A 
ATOM     14  C   UNL     1       1.425   9.069  18.217  0.00  0.00    +0.000 A 
ATOM     15  C   UNL     1       1.931   7.854  17.726  0.00  0.00    +0.000 A 
BRANCH  13  16
ATOM     16  O   UNL     1       0.818  10.490  19.986  0.00  0.00    +0.000 OA
BRANCH  16  17
ATOM     17  C   UNL     1      -0.407  10.439  20.722  0.00  0.00    +0.000 C 
BRANCH  17  18
ATOM     18  C   UNL     1      -0.156  10.751  22.160  0.00  0.00    +0.000 C 
ATOM     19  C   UNL     1      -1.346  10.888  23.075  0.00  0.00    +0.000 C 
ATOM     20  C   UNL     1      -0.417   9.715  23.225  0.00  0.00    +0.000 C 
ENDBRANCH  17  18
ENDBRANCH  16  17
ENDBRANCH  13  16
ENDBRANCH   7  10
BRANCH   1  22
ATOM     21  N   UNL     1       0.786   3.886  20.378  0.00  0.00    +0.000 NA
ATOM     22  C   UNL     1       1.600   4.100  19.579  0.00  0.00    +0.000 C 
ENDBRANCH   1  22
BRANCH   6  23
ATOM     23  C   UNL     1       4.596   6.770  16.567  0.00  0.00    +0.000 C 
ATOM     24  N   UNL     1       5.067   7.741  16.135  0.00  0.00    +0.000 NA
ENDBRANCH   6  23
BRANCH   5  25
ATOM     25  S   UNL     1       5.564   4.213  15.128  0.00  0.00    +0.000 S 
BRANCH  25  26
ATOM     26  C   UNL     1       7.168   4.005  15.977  0.00  0.00    +0.000 C 
BRANCH  26  27
ATOM     27  C   UNL     1       7.412   4.968  17.089  0.00  0.00    +0.000 A 
ATOM     28  C   UNL     1       7.436   4.756  18.455  0.00  0.00    +0.000 A 
ATOM     29  N   UNL     1       7.700   5.917  19.131  0.00  0.00    +0.000 NA
ATOM     30  C   UNL     1       7.833   6.834  18.204  0.00  0.00    +0.000 A 
ATOM     31  N   UNL     1       7.663   6.313  16.953  0.00  0.00    +0.000 N 
ATOM     32  H   UNL     1       7.711   6.825  16.082  0.00  0.00    +0.000 HD
ENDBRANCH  26  27
ENDBRANCH  25  26
ENDBRANCH   5  25
TORSDOF 9
ENDMDL
MODEL 8
REMARK VINA RESULT:      -7.1      1.250      1.530
REMARK  Name = 
REMARK  9 active torsions:
REMARK  status: ('A' for Active; 'I' for Inactive)
REMARK    1  A    between atoms: C_2  and  C_3
REMARK    2  A    between atoms: C_7  and  S_8
REMARK    3  A    between atoms: S_8  and  C_9
REMARK    4  A    between atoms: C_9  and  C_10
REMARK    5  A    between atoms: C_15  and  C_16
REMARK    6  A    between atoms: C_18  and  C_19
REMARK    7  A    between atoms: C_22  and  O_23
REMARK    8  A    between atoms: O_23  and  C_24
REMARK    9  A    between atoms: C_24  and  C_25
REMARK                            x       y       z     vdW  Elec       q    Type
REMARK                         _______ _______ _______ _____ _____    ______ ____
ROOT
ATOM      1  C   UNL     1       2.783   4.043  18.309  0.00  0.00    +0.000 A 
ATOM      2  C   UNL     1       3.404   2.887  17.832  0.00  0.00    +0.000 A 
ATOM      3  N   UNL     1       2.915   1.609  18.056  0.00  0.00    +0.000 N 
ATOM      4  N   UNL     1       4.492   2.929  17.042  0.00  0.00    +0.000 NA
ATOM      5  C   UNL     1       5.050   4.121  16.760  0.00  0.00    +0.000 A 
ATOM      6  C   UNL     1       4.579   5.319  17.318  0.00  0.00    +0.000 A 
ATOM      7  C   UNL     1       3.374   5.311  18.083  0.00  0.00    +0.000 A 
ATOM      8  H   UNL     1       2.672   1.413  19.023  0.00  0.00    +0.000 HD
ATOM      9  H   UNL     1       3.578   0.929  17.688  0.00  0.00    +0.000 HD
ENDROOT
BRANCH   7  10
ATOM     10  C   UNL     1       2.733   6.580  18.575  0.00  0.00    +0.000 A 
ATOM     11  C   UNL     1       2.349   7.588  17.673  0.00  0.00    +0.000 A 
ATOM     12  C   UNL     1       1.767   8.785  18.096  0.00  0.00    +0.000 A 
ATOM     13  C   UNL     1       1.406   8.962  19.426  0.00  0.00    +0.000 A 
ATOM     14  C   UNL     1       1.760   7.987  20.349  0.00  0.00    +0.000 A 
ATOM     15  C   UNL     1       2.449   6.836  19.933  0.00  0.00    +0.000 A 
BRANCH  13  16
ATOM     16  O   UNL     1       0.692  10.031  19.900  0.00  0.00    +0.000 OA
BRANCH  16  17
ATOM     17  C   UNL     1       1.029  11.271  19.274  0.00  0.00    +0.000 C 
BRANCH  17  18
ATOM     18  C   UNL     1      -0.082  12.253  19.446  0.00  0.00    +0.000 C 
ATOM     19  C   UNL     1       0.119  13.651  18.921  0.00  0.00    +0.000 C 
ATOM     20  C   UNL     1      -0.869  12.735  18.254  0.00  0.00    +0.000 C 
ENDBRANCH  17  18
ENDBRANCH  16  17
ENDBRANCH  13  16
ENDBRANCH   7  10
BRANCH   1  22
ATOM     21  N   UNL     1       0.551   3.646  19.580  0.00  0.00    +0.000 NA
ATOM     22  C   UNL     1       1.545   3.859  19.018  0.00  0.00    +0.000 C 
ENDBRANCH   1  22
BRANCH   6  23
ATOM     23  C   UNL     1       5.350   6.514  17.109  0.00  0.00    +0.000 C 
ATOM     24  N   UNL     1       5.956   7.492  16.944  0.00  0.00    +0.000 NA
ENDBRANCH   6  23
BRANCH   5  25
ATOM     25  S   UNL     1       6.426   4.041  15.602  0.00  0.00    +0.000 S 
BRANCH  25  26
ATOM     26  C   UNL     1       5.599   4.665  14.097  0.00  0.00    +0.000 C 
BRANCH  26  27
ATOM     27  C   UNL     1       5.546   3.691  12.969  0.00  0.00    +0.000 A 
ATOM     28  C   UNL     1       4.517   3.411  12.089  0.00  0.00    +0.000 A 
ATOM     29  N   UNL     1       4.882   2.443  11.193  0.00  0.00    +0.000 NA
ATOM     30  C   UNL     1       6.114   2.124  11.511  0.00  0.00    +0.000 A 
ATOM     31  N   UNL     1       6.559   2.846  12.581  0.00  0.00    +0.000 N 
ATOM     32  H   UNL     1       7.470   2.772  13.013  0.00  0.00    +0.000 HD
ENDBRANCH  26  27
ENDBRANCH  25  26
ENDBRANCH   5  25
TORSDOF 9
ENDMDL
MODEL 9
REMARK VINA RESULT:      -7.0      2.403      3.458
REMARK  Name = 
REMARK  9 active torsions:
REMARK  status: ('A' for Active; 'I' for Inactive)
REMARK    1  A    between atoms: C_2  and  C_3
REMARK    2  A    between atoms: C_7  and  S_8
REMARK    3  A    between atoms: S_8  and  C_9
REMARK    4  A    between atoms: C_9  and  C_10
REMARK    5  A    between atoms: C_15  and  C_16
REMARK    6  A    between atoms: C_18  and  C_19
REMARK    7  A    between atoms: C_22  and  O_23
REMARK    8  A    between atoms: O_23  and  C_24
REMARK    9  A    between atoms: C_24  and  C_25
REMARK                            x       y       z     vdW  Elec       q    Type
REMARK                         _______ _______ _______ _____ _____    ______ ____
ROOT
ATOM      1  C   UNL     1       2.556   4.282  18.461  0.00  0.00    +0.000 A 
ATOM      2  C   UNL     1       3.144   3.139  17.917  0.00  0.00    +0.000 A 
ATOM      3  N   UNL     1       2.766   1.849  18.259  0.00  0.00    +0.000 N 
ATOM      4  N   UNL     1       4.078   3.200  16.951  0.00  0.00    +0.000 NA
ATOM      5  C   UNL     1       4.519   4.405  16.544  0.00  0.00    +0.000 A 
ATOM      6  C   UNL     1       4.090   5.600  17.141  0.00  0.00    +0.000 A 
ATOM      7  C   UNL     1       3.034   5.567  18.101  0.00  0.00    +0.000 A 
ATOM      8  H   UNL     1       2.701   1.678  19.258  0.00  0.00    +0.000 HD
ATOM      9  H   UNL     1       3.389   1.186  17.801  0.00  0.00    +0.000 HD
ENDROOT
BRANCH   7  10
ATOM     10  C   UNL     1       2.424   6.823  18.660  0.00  0.00    +0.000 A 
ATOM     11  C   UNL     1       2.020   7.866  17.808  0.00  0.00    +0.000 A 
ATOM     12  C   UNL     1       1.465   9.052  18.294  0.00  0.00    +0.000 A 
ATOM     13  C   UNL     1       1.151   9.185  19.640  0.00  0.00    +0.000 A 
ATOM     14  C   UNL     1       1.526   8.174  20.515  0.00  0.00    +0.000 A 
ATOM     15  C   UNL     1       2.189   7.032  20.035  0.00  0.00    +0.000 A 
BRANCH  13  16
ATOM     16  O   UNL     1       0.464  10.242  20.177  0.00  0.00    +0.000 OA
BRANCH  16  17
ATOM     17  C   UNL     1      -0.157  11.079  19.198  0.00  0.00    +0.000 C 
BRANCH  17  18
ATOM     18  C   UNL     1      -1.509  10.550  18.852  0.00  0.00    +0.000 C 
ATOM     19  C   UNL     1      -2.517  11.505  18.266  0.00  0.00    +0.000 C 
ATOM     20  C   UNL     1      -1.933  10.414  17.411  0.00  0.00    +0.000 C 
ENDBRANCH  17  18
ENDBRANCH  16  17
ENDBRANCH  13  16
ENDBRANCH   7  10
BRANCH   1  22
ATOM     21  N   UNL     1       0.632   3.902  20.167  0.00  0.00    +0.000 NA
ATOM     22  C   UNL     1       1.468   4.069  19.378  0.00  0.00    +0.000 C 
ENDBRANCH   1  22
BRANCH   6  23
ATOM     23  C   UNL     1       4.752   6.820  16.767  0.00  0.00    +0.000 C 
ATOM     24  N   UNL     1       5.306   7.796  16.461  0.00  0.00    +0.000 NA
ENDBRANCH   6  23
BRANCH   5  25
ATOM     25  S   UNL     1       5.679   4.345  15.169  0.00  0.00    +0.000 S 
BRANCH  25  26
ATOM     26  C   UNL     1       7.225   4.007  16.083  0.00  0.00    +0.000 C 
BRANCH  26  27
ATOM     27  C   UNL     1       7.431   4.860  17.289  0.00  0.00    +0.000 A 
ATOM     28  C   UNL     1       7.276   4.552  18.628  0.00  0.00    +0.000 A 
ATOM     29  N   UNL     1       7.572   5.629  19.420  0.00  0.00    +0.000 NA
ATOM     30  C   UNL     1       7.903   6.588  18.590  0.00  0.00    +0.000 A 
ATOM     31  N   UNL     1       7.829   6.175  17.291  0.00  0.00    +0.000 N 
ATOM     32  H   UNL     1       8.029   6.738  16.474  0.00  0.00    +0.000 HD
ENDBRANCH  26  27
ENDBRANCH  25  26
ENDBRANCH   5  25
TORSDOF 9
ENDMDL
