MODEL 1
REMARK VINA RESULT:      -8.8      0.000      0.000
REMARK  Name = 
REMARK  7 active torsions:
REMARK  status: ('A' for Active; 'I' for Inactive)
REMARK    1  A    between atoms: C_6  and  C_7
REMARK    2  A    between atoms: C_6  and  C_8
REMARK    3  A    between atoms: C_8  and  O_10
REMARK    4  A    between atoms: C_14  and  C_15
REMARK    5  A    between atoms: C_16  and  C_17
REMARK    6  A    between atoms: C_17  and  C_18
REMARK    7  A    between atoms: C_18  and  C_19
REMARK                            x       y       z     vdW  Elec       q    Type
REMARK                         _______ _______ _______ _____ _____    ______ ____
ROOT
ATOM      1  C   UNL     1       1.792   8.433  18.405  0.00  0.00    +0.000 C 
ATOM      2  C   UNL     1       2.365   7.422  19.083  0.00  0.00    +0.000 C 
ATOM      3  C   UNL     1       1.755   7.091  20.420  0.00  0.00    +0.000 C 
ATOM      4  C   UNL     1       1.590   5.613  20.724  0.00  0.00    +0.000 C 
ATOM      5  C   UNL     1       2.734   4.697  20.271  0.00  0.00    +0.000 C 
ATOM      6  C   UNL     1       2.420   3.150  20.428  0.00  0.00    +0.000 C 
ATOM      7  C   UNL     1       1.845   2.779  21.820  0.00  0.00    +0.000 C 
ATOM      8  C   UNL     1       3.786   2.407  20.323  0.00  0.00    +0.000 C 
ATOM      9  C   UNL     1       4.736   2.842  19.206  0.00  0.00    +0.000 C 
ATOM     10  C   UNL     1       4.841   4.358  19.013  0.00  0.00    +0.000 C 
ATOM     11  C   UNL     1       3.447   5.059  18.897  0.00  0.00    +0.000 C 
ATOM     12  C   UNL     1       2.774   4.481  17.624  0.00  0.00    +0.000 C 
ATOM     13  C   UNL     1       3.634   6.643  18.708  0.00  0.00    +0.000 C 
ENDROOT
BRANCH   6  14
ATOM     14  C   UNL     1       1.282   2.693  19.469  0.00  0.00    +0.000 C 
ATOM     15  O   UNL     1       0.165   3.196  19.443  0.00  0.00    +0.000 OA
BRANCH  14  16
ATOM     16  O   UNL     1       1.555   1.633  18.687  0.00  0.00    +0.000 OA
ATOM     17  H   UNL     1       1.311   1.706  17.750  0.00  0.00    +0.000 HD
ENDBRANCH  14  16
ENDBRANCH   6  14
BRANCH  13  18
ATOM     18  C   UNL     1       4.261   6.972  17.301  0.00  0.00    +0.000 C 
BRANCH  18  19
ATOM     19  C   UNL     1       5.738   6.686  17.002  0.00  0.00    +0.000 C 
BRANCH  19  20
ATOM     20  C   UNL     1       5.984   5.632  15.993  0.00  0.00    +0.000 C 
ATOM     21  C   UNL     1       5.354   5.374  14.858  0.00  0.00    +0.000 C 
ATOM     22  C   UNL     1       5.972   4.221  14.171  0.00  0.00    +0.000 C 
ATOM     23  O   UNL     1       7.019   3.809  15.050  0.00  0.00    +0.000 OA
ATOM     24  C   UNL     1       7.039   4.627  16.137  0.00  0.00    +0.000 C 
ATOM     25  O   UNL     1       7.814   4.544  17.073  0.00  0.00    +0.000 OA
ENDBRANCH  19  20
ENDBRANCH  18  19
ENDBRANCH  13  18
TORSDOF 5
ENDMDL
MODEL 2
REMARK VINA RESULT:      -8.5      1.004      1.682
REMARK  Name = 
REMARK  7 active torsions:
REMARK  status: ('A' for Active; 'I' for Inactive)
REMARK    1  A    between atoms: C_6  and  C_7
REMARK    2  A    between atoms: C_6  and  C_8
REMARK    3  A    between atoms: C_8  and  O_10
REMARK    4  A    between atoms: C_14  and  C_15
REMARK    5  A    between atoms: C_16  and  C_17
REMARK    6  A    between atoms: C_17  and  C_18
REMARK    7  A    between atoms: C_18  and  C_19
REMARK                            x       y       z     vdW  Elec       q    Type
REMARK                         _______ _______ _______ _____ _____    ______ ____
ROOT
ATOM      1  C   UNL     1       2.116   8.195  17.961  0.00  0.00    +0.000 C 
ATOM      2  C   UNL     1       2.590   7.197  18.729  0.00  0.00    +0.000 C 
ATOM      3  C   UNL     1       1.936   7.029  20.077  0.00  0.00    +0.000 C 
ATOM      4  C   UNL     1       1.639   5.600  20.494  0.00  0.00    +0.000 C 
ATOM      5  C   UNL     1       2.705   4.556  20.138  0.00  0.00    +0.000 C 
ATOM      6  C   UNL     1       2.256   3.058  20.412  0.00  0.00    +0.000 C 
ATOM      7  C   UNL     1       1.633   2.853  21.817  0.00  0.00    +0.000 C 
ATOM      8  C   UNL     1       3.555   2.196  20.394  0.00  0.00    +0.000 C 
ATOM      9  C   UNL     1       4.554   2.456  19.266  0.00  0.00    +0.000 C 
ATOM     10  C   UNL     1       4.792   3.937  18.955  0.00  0.00    +0.000 C 
ATOM     11  C   UNL     1       3.466   4.742  18.754  0.00  0.00    +0.000 C 
ATOM     12  C   UNL     1       2.763   4.123  17.518  0.00  0.00    +0.000 C 
ATOM     13  C   UNL     1       3.792   6.285  18.444  0.00  0.00    +0.000 C 
ENDROOT
BRANCH   6  14
ATOM     14  C   UNL     1       1.096   2.625  19.470  0.00  0.00    +0.000 C 
ATOM     15  O   UNL     1      -0.009   3.152  19.456  0.00  0.00    +0.000 OA
BRANCH  14  16
ATOM     16  O   UNL     1       1.335   1.556  18.688  0.00  0.00    +0.000 OA
ATOM     17  H   UNL     1       0.578   0.979  18.492  0.00  0.00    +0.000 HD
ENDBRANCH  14  16
ENDBRANCH   6  14
BRANCH  13  18
ATOM     18  C   UNL     1       4.463   6.444  17.028  0.00  0.00    +0.000 C 
BRANCH  18  19
ATOM     19  C   UNL     1       5.925   6.885  16.887  0.00  0.00    +0.000 C 
BRANCH  19  20
ATOM     20  C   UNL     1       6.915   6.008  17.550  0.00  0.00    +0.000 C 
ATOM     21  C   UNL     1       7.530   6.143  18.715  0.00  0.00    +0.000 C 
ATOM     22  C   UNL     1       8.428   4.998  18.965  0.00  0.00    +0.000 C 
ATOM     23  O   UNL     1       8.298   4.188  17.796  0.00  0.00    +0.000 OA
ATOM     24  C   UNL     1       7.412   4.771  16.943  0.00  0.00    +0.000 C 
ATOM     25  O   UNL     1       7.079   4.333  15.857  0.00  0.00    +0.000 OA
ENDBRANCH  19  20
ENDBRANCH  18  19
ENDBRANCH  13  18
TORSDOF 5
ENDMDL
MODEL 3
REMARK VINA RESULT:      -8.5      1.614      2.369
REMARK  Name = 
REMARK  7 active torsions:
REMARK  status: ('A' for Active; 'I' for Inactive)
REMARK    1  A    between atoms: C_6  and  C_7
REMARK    2  A    between atoms: C_6  and  C_8
REMARK    3  A    between atoms: C_8  and  O_10
REMARK    4  A    between atoms: C_14  and  C_15
REMARK    5  A    between atoms: C_16  and  C_17
REMARK    6  A    between atoms: C_17  and  C_18
REMARK    7  A    between atoms: C_18  and  C_19
REMARK                            x       y       z     vdW  Elec       q    Type
REMARK                         _______ _______ _______ _____ _____    ______ ____
ROOT
ATOM      1  C   UNL     1       4.847   6.994  15.853  0.00  0.00    +0.000 C 
ATOM      2  C   UNL     1       4.584   6.429  17.045  0.00  0.00    +0.000 C 
ATOM      3  C   UNL     1       3.475   7.059  17.848  0.00  0.00    +0.000 C 
ATOM      4  C   UNL     1       2.519   6.095  18.526  0.00  0.00    +0.000 C 
ATOM      5  C   UNL     1       3.147   4.836  19.136  0.00  0.00    +0.000 C 
ATOM      6  C   UNL     1       2.088   3.771  19.648  0.00  0.00    +0.000 C 
ATOM      7  C   UNL     1       0.970   4.392  20.524  0.00  0.00    +0.000 C 
ATOM      8  C   UNL     1       2.861   2.788  20.580  0.00  0.00    +0.000 C 
ATOM      9  C   UNL     1       4.217   2.280  20.091  0.00  0.00    +0.000 C 
ATOM     10  C   UNL     1       5.106   3.351  19.450  0.00  0.00    +0.000 C 
ATOM     11  C   UNL     1       4.367   4.184  18.351  0.00  0.00    +0.000 C 
ATOM     12  C   UNL     1       3.980   3.181  17.232  0.00  0.00    +0.000 C 
ATOM     13  C   UNL     1       5.353   5.291  17.733  0.00  0.00    +0.000 C 
ENDROOT
BRANCH   6  14
ATOM     14  C   UNL     1       1.279   3.153  18.471  0.00  0.00    +0.000 C 
ATOM     15  O   UNL     1       0.815   3.803  17.541  0.00  0.00    +0.000 OA
BRANCH  14  16
ATOM     16  O   UNL     1       1.032   1.833  18.549  0.00  0.00    +0.000 OA
ATOM     17  H   UNL     1       1.787   1.238  18.411  0.00  0.00    +0.000 HD
ENDBRANCH  14  16
ENDBRANCH   6  14
BRANCH  13  18
ATOM     18  C   UNL     1       6.497   4.616  16.887  0.00  0.00    +0.000 C 
BRANCH  18  19
ATOM     19  C   UNL     1       7.159   5.352  15.715  0.00  0.00    +0.000 C 
BRANCH  19  20
ATOM     20  C   UNL     1       6.940   4.743  14.385  0.00  0.00    +0.000 C 
ATOM     21  C   UNL     1       6.067   3.824  14.000  0.00  0.00    +0.000 C 
ATOM     22  C   UNL     1       6.214   3.539  12.558  0.00  0.00    +0.000 C 
ATOM     23  O   UNL     1       7.297   4.372  12.144  0.00  0.00    +0.000 OA
ATOM     24  C   UNL     1       7.745   5.088  13.211  0.00  0.00    +0.000 C 
ATOM     25  O   UNL     1       8.660   5.893  13.193  0.00  0.00    +0.000 OA
ENDBRANCH  19  20
ENDBRANCH  18  19
ENDBRANCH  13  18
TORSDOF 5
ENDMDL
MODEL 4
REMARK VINA RESULT:      -8.5      1.350      2.215
REMARK  Name = 
REMARK  7 active torsions:
REMARK  status: ('A' for Active; 'I' for Inactive)
REMARK    1  A    between atoms: C_6  and  C_7
REMARK    2  A    between atoms: C_6  and  C_8
REMARK    3  A    between atoms: C_8  and  O_10
REMARK    4  A    between atoms: C_14  and  C_15
REMARK    5  A    between atoms: C_16  and  C_17
REMARK    6  A    between atoms: C_17  and  C_18
REMARK    7  A    between atoms: C_18  and  C_19
REMARK                            x       y       z     vdW  Elec       q    Type
REMARK                         _______ _______ _______ _____ _____    ______ ____
ROOT
ATOM      1  C   UNL     1       2.321   8.183  17.784  0.00  0.00    +0.000 C 
ATOM      2  C   UNL     1       2.783   7.203  18.581  0.00  0.00    +0.000 C 
ATOM      3  C   UNL     1       2.190   7.138  19.965  0.00  0.00    +0.000 C 
ATOM      4  C   UNL     1       1.843   5.750  20.472  0.00  0.00    +0.000 C 
ATOM      5  C   UNL     1       2.837   4.635  20.123  0.00  0.00    +0.000 C 
ATOM      6  C   UNL     1       2.328   3.179  20.498  0.00  0.00    +0.000 C 
ATOM      7  C   UNL     1       1.766   3.078  21.939  0.00  0.00    +0.000 C 
ATOM      8  C   UNL     1       3.580   2.249  20.465  0.00  0.00    +0.000 C 
ATOM      9  C   UNL     1       4.532   2.399  19.278  0.00  0.00    +0.000 C 
ATOM     10  C   UNL     1       4.828   3.847  18.877  0.00  0.00    +0.000 C 
ATOM     11  C   UNL     1       3.536   4.710  18.696  0.00  0.00    +0.000 C 
ATOM     12  C   UNL     1       2.741   4.066  17.530  0.00  0.00    +0.000 C 
ATOM     13  C   UNL     1       3.922   6.215  18.289  0.00  0.00    +0.000 C 
ENDROOT
BRANCH   6  14
ATOM     14  C   UNL     1       1.102   2.759  19.636  0.00  0.00    +0.000 C 
ATOM     15  O   UNL     1       1.148   1.924  18.740  0.00  0.00    +0.000 OA
BRANCH  14  16
ATOM     16  O   UNL     1      -0.043   3.426  19.868  0.00  0.00    +0.000 OA
ATOM     17  H   UNL     1      -0.290   4.109  19.223  0.00  0.00    +0.000 HD
ENDBRANCH  14  16
ENDBRANCH   6  14
BRANCH  13  18
ATOM     18  C   UNL     1       4.529   6.266  16.836  0.00  0.00    +0.000 C 
BRANCH  18  19
ATOM     19  C   UNL     1       6.014   5.976  16.584  0.00  0.00    +0.000 C 
BRANCH  19  20
ATOM     20  C   UNL     1       6.959   6.815  17.354  0.00  0.00    +0.000 C 
ATOM     21  C   UNL     1       7.247   8.102  17.238  0.00  0.00    +0.000 C 
ATOM     22  C   UNL     1       8.250   8.503  18.246  0.00  0.00    +0.000 C 
ATOM     23  O   UNL     1       8.545   7.296  18.948  0.00  0.00    +0.000 OA
ATOM     24  C   UNL     1       7.796   6.283  18.432  0.00  0.00    +0.000 C 
ATOM     25  O   UNL     1       7.811   5.125  18.810  0.00  0.00    +0.000 OA
ENDBRANCH  19  20
ENDBRANCH  18  19
ENDBRANCH  13  18
TORSDOF 5
ENDMDL
MODEL 5
REMARK VINA RESULT:      -8.4      0.934      1.000
REMARK  Name = 
REMARK  7 active torsions:
REMARK  status: ('A' for Active; 'I' for Inactive)
REMARK    1  A    between atoms: C_6  and  C_7
REMARK    2  A    between atoms: C_6  and  C_8
REMARK    3  A    between atoms: C_8  and  O_10
REMARK    4  A    between atoms: C_14  and  C_15
REMARK    5  A    between atoms: C_16  and  C_17
REMARK    6  A    between atoms: C_17  and  C_18
REMARK    7  A    between atoms: C_18  and  C_19
REMARK                            x       y       z     vdW  Elec       q    Type
REMARK                         _______ _______ _______ _____ _____    ______ ____
ROOT
ATOM      1  C   UNL     1       2.189   8.234  17.747  0.00  0.00    +0.000 C 
ATOM      2  C   UNL     1       2.718   7.268  18.519  0.00  0.00    +0.000 C 
ATOM      3  C   UNL     1       2.165   7.158  19.916  0.00  0.00    +0.000 C 
ATOM      4  C   UNL     1       1.900   5.748  20.413  0.00  0.00    +0.000 C 
ATOM      5  C   UNL     1       2.938   4.688  20.024  0.00  0.00    +0.000 C 
ATOM      6  C   UNL     1       2.511   3.204  20.393  0.00  0.00    +0.000 C 
ATOM      7  C   UNL     1       1.992   3.059  21.846  0.00  0.00    +0.000 C 
ATOM      8  C   UNL     1       3.805   2.338  20.316  0.00  0.00    +0.000 C 
ATOM      9  C   UNL     1       4.719   2.549  19.108  0.00  0.00    +0.000 C 
ATOM     10  C   UNL     1       4.933   4.015  18.718  0.00  0.00    +0.000 C 
ATOM     11  C   UNL     1       3.595   4.815  18.582  0.00  0.00    +0.000 C 
ATOM     12  C   UNL     1       2.804   4.146  17.428  0.00  0.00    +0.000 C 
ATOM     13  C   UNL     1       3.897   6.342  18.185  0.00  0.00    +0.000 C 
ENDROOT
BRANCH   6  14
ATOM     14  C   UNL     1       1.286   2.734  19.556  0.00  0.00    +0.000 C 
ATOM     15  O   UNL     1       0.202   3.307  19.546  0.00  0.00    +0.000 OA
BRANCH  14  16
ATOM     16  O   UNL     1       1.440   1.586  18.872  0.00  0.00    +0.000 OA
ATOM     17  H   UNL     1       2.306   1.436  18.460  0.00  0.00    +0.000 HD
ENDBRANCH  14  16
ENDBRANCH   6  14
BRANCH  13  18
ATOM     18  C   UNL     1       4.463   6.440  16.718  0.00  0.00    +0.000 C 
BRANCH  18  19
ATOM     19  C   UNL     1       5.855   5.903  16.366  0.00  0.00    +0.000 C 
BRANCH  19  20
ATOM     20  C   UNL     1       5.921   5.075  15.141  0.00  0.00    +0.000 C 
ATOM     21  C   UNL     1       5.031   4.241  14.627  0.00  0.00    +0.000 C 
ATOM     22  C   UNL     1       5.538   3.648  13.373  0.00  0.00    +0.000 C 
ATOM     23  O   UNL     1       6.844   4.204  13.224  0.00  0.00    +0.000 OA
ATOM     24  C   UNL     1       7.093   5.047  14.264  0.00  0.00    +0.000 C 
ATOM     25  O   UNL     1       8.119   5.682  14.433  0.00  0.00    +0.000 OA
ENDBRANCH  19  20
ENDBRANCH  18  19
ENDBRANCH  13  18
TORSDOF 5
ENDMDL
MODEL 6
REMARK VINA RESULT:      -7.9      1.541      2.195
REMARK  Name = 
REMARK  7 active torsions:
REMARK  status: ('A' for Active; 'I' for Inactive)
REMARK    1  A    between atoms: C_6  and  C_7
REMARK    2  A    between atoms: C_6  and  C_8
REMARK    3  A    between atoms: C_8  and  O_10
REMARK    4  A    between atoms: C_14  and  C_15
REMARK    5  A    between atoms: C_16  and  C_17
REMARK    6  A    between atoms: C_17  and  C_18
REMARK    7  A    between atoms: C_18  and  C_19
REMARK                            x       y       z     vdW  Elec       q    Type
REMARK                         _______ _______ _______ _____ _____    ______ ____
ROOT
ATOM      1  C   UNL     1       2.370   8.182  17.789  0.00  0.00    +0.000 C 
ATOM      2  C   UNL     1       2.827   7.157  18.531  0.00  0.00    +0.000 C 
ATOM      3  C   UNL     1       2.279   7.056  19.932  0.00  0.00    +0.000 C 
ATOM      4  C   UNL     1       1.905   5.661  20.397  0.00  0.00    +0.000 C 
ATOM      5  C   UNL     1       2.850   4.530  19.970  0.00  0.00    +0.000 C 
ATOM      6  C   UNL     1       2.307   3.077  20.306  0.00  0.00    +0.000 C 
ATOM      7  C   UNL     1       1.792   2.937  21.762  0.00  0.00    +0.000 C 
ATOM      8  C   UNL     1       3.526   2.111  20.193  0.00  0.00    +0.000 C 
ATOM      9  C   UNL     1       4.442   2.278  18.981  0.00  0.00    +0.000 C 
ATOM     10  C   UNL     1       4.771   3.731  18.625  0.00  0.00    +0.000 C 
ATOM     11  C   UNL     1       3.501   4.640  18.524  0.00  0.00    +0.000 C 
ATOM     12  C   UNL     1       2.647   4.068  17.362  0.00  0.00    +0.000 C 
ATOM     13  C   UNL     1       3.923   6.147  18.161  0.00  0.00    +0.000 C 
ENDROOT
BRANCH   6  14
ATOM     14  C   UNL     1       1.039   2.730  19.473  0.00  0.00    +0.000 C 
ATOM     15  O   UNL     1      -0.007   3.365  19.519  0.00  0.00    +0.000 OA
BRANCH  14  16
ATOM     16  O   UNL     1       1.110   1.615  18.722  0.00  0.00    +0.000 OA
ATOM     17  H   UNL     1       0.267   1.217  18.450  0.00  0.00    +0.000 HD
ENDBRANCH  14  16
ENDBRANCH   6  14
BRANCH  13  18
ATOM     18  C   UNL     1       4.481   6.237  16.691  0.00  0.00    +0.000 C 
BRANCH  18  19
ATOM     19  C   UNL     1       5.946   5.914  16.376  0.00  0.00    +0.000 C 
BRANCH  19  20
ATOM     20  C   UNL     1       6.892   6.125  17.494  0.00  0.00    +0.000 C 
ATOM     21  C   UNL     1       7.285   5.295  18.448  0.00  0.00    +0.000 C 
ATOM     22  C   UNL     1       8.262   5.953  19.340  0.00  0.00    +0.000 C 
ATOM     23  O   UNL     1       8.374   7.278  18.821  0.00  0.00    +0.000 OA
ATOM     24  C   UNL     1       7.567   7.403  17.732  0.00  0.00    +0.000 C 
ATOM     25  O   UNL     1       7.434   8.409  17.059  0.00  0.00    +0.000 OA
ENDBRANCH  19  20
ENDBRANCH  18  19
ENDBRANCH  13  18
TORSDOF 5
ENDMDL
MODEL 7
REMARK VINA RESULT:      -7.6      1.756      2.659
REMARK  Name = 
REMARK  7 active torsions:
REMARK  status: ('A' for Active; 'I' for Inactive)
REMARK    1  A    between atoms: C_6  and  C_7
REMARK    2  A    between atoms: C_6  and  C_8
REMARK    3  A    between atoms: C_8  and  O_10
REMARK    4  A    between atoms: C_14  and  C_15
REMARK    5  A    between atoms: C_16  and  C_17
REMARK    6  A    between atoms: C_17  and  C_18
REMARK    7  A    between atoms: C_18  and  C_19
REMARK                            x       y       z     vdW  Elec       q    Type
REMARK                         _______ _______ _______ _____ _____    ______ ____
ROOT
ATOM      1  C   UNL     1       4.825   6.928  15.660  0.00  0.00    +0.000 C 
ATOM      2  C   UNL     1       4.597   6.383  16.869  0.00  0.00    +0.000 C 
ATOM      3  C   UNL     1       3.548   7.060  17.714  0.00  0.00    +0.000 C 
ATOM      4  C   UNL     1       2.590   6.136  18.445  0.00  0.00    +0.000 C 
ATOM      5  C   UNL     1       3.202   4.862  19.041  0.00  0.00    +0.000 C 
ATOM      6  C   UNL     1       2.131   3.840  19.612  0.00  0.00    +0.000 C 
ATOM      7  C   UNL     1       1.075   4.508  20.530  0.00  0.00    +0.000 C 
ATOM      8  C   UNL     1       2.910   2.840  20.519  0.00  0.00    +0.000 C 
ATOM      9  C   UNL     1       4.225   2.280  19.975  0.00  0.00    +0.000 C 
ATOM     10  C   UNL     1       5.120   3.313  19.283  0.00  0.00    +0.000 C 
ATOM     11  C   UNL     1       4.361   4.160  18.209  0.00  0.00    +0.000 C 
ATOM     12  C   UNL     1       3.890   3.161  17.120  0.00  0.00    +0.000 C 
ATOM     13  C   UNL     1       5.356   5.227  17.536  0.00  0.00    +0.000 C 
ENDROOT
BRANCH   6  14
ATOM     14  C   UNL     1       1.249   3.239  18.479  0.00  0.00    +0.000 C 
ATOM     15  O   UNL     1       0.786   3.892  17.550  0.00  0.00    +0.000 OA
BRANCH  14  16
ATOM     16  O   UNL     1       0.936   1.936  18.598  0.00  0.00    +0.000 OA
ATOM     17  H   UNL     1       0.776   1.605  19.497  0.00  0.00    +0.000 HD
ENDBRANCH  14  16
ENDBRANCH   6  14
BRANCH  13  18
ATOM     18  C   UNL     1       6.438   4.504  16.647  0.00  0.00    +0.000 C 
BRANCH  18  19
ATOM     19  C   UNL     1       6.050   3.795  15.343  0.00  0.00    +0.000 C 
BRANCH  19  20
ATOM     20  C   UNL     1       6.722   4.301  14.126  0.00  0.00    +0.000 C 
ATOM     21  C   UNL     1       7.623   5.261  13.986  0.00  0.00    +0.000 C 
ATOM     22  C   UNL     1       8.017   5.401  12.570  0.00  0.00    +0.000 C 
ATOM     23  O   UNL     1       7.219   4.436  11.886  0.00  0.00    +0.000 OA
ATOM     24  C   UNL     1       6.441   3.778  12.788  0.00  0.00    +0.000 C 
ATOM     25  O   UNL     1       5.647   2.891  12.528  0.00  0.00    +0.000 OA
ENDBRANCH  19  20
ENDBRANCH  18  19
ENDBRANCH  13  18
TORSDOF 5
ENDMDL
MODEL 8
REMARK VINA RESULT:      -7.6      2.664      5.555
REMARK  Name = 
REMARK  7 active torsions:
REMARK  status: ('A' for Active; 'I' for Inactive)
REMARK    1  A    between atoms: C_6  and  C_7
REMARK    2  A    between atoms: C_6  and  C_8
REMARK    3  A    between atoms: C_8  and  O_10
REMARK    4  A    between atoms: C_14  and  C_15
REMARK    5  A    between atoms: C_16  and  C_17
REMARK    6  A    between atoms: C_17  and  C_18
REMARK    7  A    between atoms: C_18  and  C_19
REMARK                            x       y       z     vdW  Elec       q    Type
REMARK                         _______ _______ _______ _____ _____    ______ ____
ROOT
ATOM      1  C   UNL     1       6.097   7.031  16.954  0.00  0.00    +0.000 C 
ATOM      2  C   UNL     1       5.098   6.132  16.996  0.00  0.00    +0.000 C 
ATOM      3  C   UNL     1       5.400   4.777  16.410  0.00  0.00    +0.000 C 
ATOM      4  C   UNL     1       4.900   3.585  17.206  0.00  0.00    +0.000 C 
ATOM      5  C   UNL     1       3.518   3.735  17.852  0.00  0.00    +0.000 C 
ATOM      6  C   UNL     1       3.134   2.549  18.835  0.00  0.00    +0.000 C 
ATOM      7  C   UNL     1       3.385   1.145  18.228  0.00  0.00    +0.000 C 
ATOM      8  C   UNL     1       1.595   2.643  19.065  0.00  0.00    +0.000 C 
ATOM      9  C   UNL     1       1.012   4.029  19.343  0.00  0.00    +0.000 C 
ATOM     10  C   UNL     1       1.573   5.146  18.457  0.00  0.00    +0.000 C 
ATOM     11  C   UNL     1       3.137   5.171  18.420  0.00  0.00    +0.000 C 
ATOM     12  C   UNL     1       3.604   5.460  19.870  0.00  0.00    +0.000 C 
ATOM     13  C   UNL     1       3.653   6.356  17.466  0.00  0.00    +0.000 C 
ENDROOT
BRANCH   6  14
ATOM     14  C   UNL     1       4.046   2.530  20.096  0.00  0.00    +0.000 C 
ATOM     15  O   UNL     1       5.270   2.487  20.057  0.00  0.00    +0.000 OA
BRANCH  14  16
ATOM     16  O   UNL     1       3.415   2.487  21.284  0.00  0.00    +0.000 OA
ATOM     17  H   UNL     1       2.460   2.315  21.265  0.00  0.00    +0.000 HD
ENDBRANCH  14  16
ENDBRANCH   6  14
BRANCH  13  18
ATOM     18  C   UNL     1       3.340   7.764  18.099  0.00  0.00    +0.000 C 
BRANCH  18  19
ATOM     19  C   UNL     1       1.981   8.444  17.893  0.00  0.00    +0.000 C 
BRANCH  19  20
ATOM     20  C   UNL     1       1.297   8.874  19.132  0.00  0.00    +0.000 C 
ATOM     21  C   UNL     1       1.442   8.450  20.378  0.00  0.00    +0.000 C 
ATOM     22  C   UNL     1       0.547   9.193  21.288  0.00  0.00    +0.000 C 
ATOM     23  O   UNL     1      -0.169  10.081  20.429  0.00  0.00    +0.000 OA
ATOM     24  C   UNL     1       0.256   9.904  19.148  0.00  0.00    +0.000 C 
ATOM     25  O   UNL     1      -0.155  10.510  18.174  0.00  0.00    +0.000 OA
ENDBRANCH  19  20
ENDBRANCH  18  19
ENDBRANCH  13  18
TORSDOF 5
ENDMDL
MODEL 9
REMARK VINA RESULT:      -7.5      2.512      5.388
REMARK  Name = 
REMARK  7 active torsions:
REMARK  status: ('A' for Active; 'I' for Inactive)
REMARK    1  A    between atoms: C_6  and  C_7
REMARK    2  A    between atoms: C_6  and  C_8
REMARK    3  A    between atoms: C_8  and  O_10
REMARK    4  A    between atoms: C_14  and  C_15
REMARK    5  A    between atoms: C_16  and  C_17
REMARK    6  A    between atoms: C_17  and  C_18
REMARK    7  A    between atoms: C_18  and  C_19
REMARK                            x       y       z     vdW  Elec       q    Type
REMARK                         _______ _______ _______ _____ _____    ______ ____
ROOT
ATOM      1  C   UNL     1       6.035   7.125  17.049  0.00  0.00    +0.000 C 
ATOM      2  C   UNL     1       5.077   6.181  17.040  0.00  0.00    +0.000 C 
ATOM      3  C   UNL     1       5.463   4.851  16.446  0.00  0.00    +0.000 C 
ATOM      4  C   UNL     1       4.988   3.625  17.205  0.00  0.00    +0.000 C 
ATOM      5  C   UNL     1       3.576   3.702  17.799  0.00  0.00    +0.000 C 
ATOM      6  C   UNL     1       3.210   2.485  18.749  0.00  0.00    +0.000 C 
ATOM      7  C   UNL     1       3.547   1.103  18.132  0.00  0.00    +0.000 C 
ATOM      8  C   UNL     1       1.661   2.506  18.920  0.00  0.00    +0.000 C 
ATOM      9  C   UNL     1       1.005   3.859  19.195  0.00  0.00    +0.000 C 
ATOM     10  C   UNL     1       1.548   5.015  18.348  0.00  0.00    +0.000 C 
ATOM     11  C   UNL     1       3.109   5.110  18.372  0.00  0.00    +0.000 C 
ATOM     12  C   UNL     1       3.506   5.396  19.843  0.00  0.00    +0.000 C 
ATOM     13  C   UNL     1       3.607   6.333  17.455  0.00  0.00    +0.000 C 
ENDROOT
BRANCH   6  14
ATOM     14  C   UNL     1       4.073   2.486  20.044  0.00  0.00    +0.000 C 
ATOM     15  O   UNL     1       3.608   2.481  21.178  0.00  0.00    +0.000 OA
BRANCH  14  16
ATOM     16  O   UNL     1       5.405   2.572  19.870  0.00  0.00    +0.000 OA
ATOM     17  H   UNL     1       5.718   2.717  18.962  0.00  0.00    +0.000 HD
ENDBRANCH  14  16
ENDBRANCH   6  14
BRANCH  13  18
ATOM     18  C   UNL     1       3.206   7.715  18.096  0.00  0.00    +0.000 C 
BRANCH  18  19
ATOM     19  C   UNL     1       1.836   8.348  17.827  0.00  0.00    +0.000 C 
BRANCH  19  20
ATOM     20  C   UNL     1       1.410   9.371  18.808  0.00  0.00    +0.000 C 
ATOM     21  C   UNL     1       1.221  10.673  18.656  0.00  0.00    +0.000 C 
ATOM     22  C   UNL     1       0.778  11.286  19.924  0.00  0.00    +0.000 C 
ATOM     23  O   UNL     1       0.761  10.200  20.852  0.00  0.00    +0.000 OA
ATOM     24  C   UNL     1       1.138   9.059  20.213  0.00  0.00    +0.000 C 
ATOM     25  O   UNL     1       1.226   7.956  20.723  0.00  0.00    +0.000 OA
ENDBRANCH  19  20
ENDBRANCH  18  19
ENDBRANCH  13  18
TORSDOF 5
ENDMDL
