MODEL 1
REMARK VINA RESULT:      -6.4      0.000      0.000
REMARK  Name = 
REMARK  13 active torsions:
REMARK  status: ('A' for Active; 'I' for Inactive)
REMARK    1  A    between atoms: C_1  and  C_2
REMARK    2  A    between atoms: C_2  and  C_3
REMARK    3  A    between atoms: C_3  and  C_4
REMARK    4  A    between atoms: C_4  and  C_5
REMARK    5  A    between atoms: C_5  and  C_6
REMARK    6  A    between atoms: C_6  and  C_7
REMARK    7  A    between atoms: C_7  and  C_8
REMARK    8  A    between atoms: C_8  and  C_9
REMARK    9  A    between atoms: C_9  and  C_10
REMARK   10  A    between atoms: C_15  and  O_16
REMARK   11  A    between atoms: O_16  and  C_17
REMARK   12  A    between atoms: C_18  and  O_19
REMARK   13  A    between atoms: C_20  and  O_21
REMARK                            x       y       z     vdW  Elec       q    Type
REMARK                         _______ _______ _______ _____ _____    ______ ____
ROOT
ATOM      1  C   UNL     1       3.679   2.896  18.107  0.00  0.00    +0.000 C 
ATOM      2  O   UNL     1       4.136   3.587  19.273  0.00  0.00    +0.000 OA
ATOM      3  C   UNL     1       5.532   3.877  19.204  0.00  0.00    +0.000 C 
ATOM      4  C   UNL     1       5.843   4.685  17.945  0.00  0.00    +0.000 C 
ATOM      5  O   UNL     1       7.243   4.945  17.843  0.00  0.00    +0.000 OA
ATOM      6  C   UNL     1       7.550   5.735  16.683  0.00  0.00    +0.000 C 
ATOM      7  C   UNL     1       7.147   4.933  15.421  0.00  0.00    +0.000 C 
ATOM      8  C   UNL     1       5.629   4.656  15.456  0.00  0.00    +0.000 C 
ATOM      9  C   UNL     1       5.322   3.886  16.752  0.00  0.00    +0.000 C 
ATOM     10  O   UNL     1       3.918   3.653  16.916  0.00  0.00    +0.000 OA
ENDROOT
BRANCH   6  11
ATOM     11  O   UNL     1       6.869   6.992  16.719  0.00  0.00    +0.000 OA
ATOM     12  C   UNL     1       7.579   7.982  17.452  0.00  0.00    +0.000 C 
ENDBRANCH   6  11
BRANCH   7  13
ATOM     13  O   UNL     1       7.540   5.589  14.212  0.00  0.00    +0.000 OA
ATOM     14  H   UNL     1       8.405   6.010  14.383  0.00  0.00    +0.000 HD
ENDBRANCH   7  13
BRANCH   8  15
ATOM     15  O   UNL     1       5.252   3.918  14.283  0.00  0.00    +0.000 OA
ATOM     16  H   UNL     1       5.626   3.024  14.342  0.00  0.00    +0.000 HD
ENDBRANCH   8  15
BRANCH   1  17
ATOM     17  C   UNL     1       2.174   2.668  18.268  0.00  0.00    +0.000 C 
BRANCH  17  18
ATOM     18  C   UNL     1       1.776   2.295  19.698  0.00  0.00    +0.000 C 
BRANCH  18  19
ATOM     19  C   UNL     1       0.747   3.280  20.255  0.00  0.00    +0.000 C 
BRANCH  19  20
ATOM     20  C   UNL     1       0.965   4.687  19.699  0.00  0.00    +0.000 C 
BRANCH  20  21
ATOM     21  C   UNL     1       1.840   5.523  20.632  0.00  0.00    +0.000 C 
BRANCH  21  22
ATOM     22  C   UNL     1       2.246   6.840  19.970  0.00  0.00    +0.000 C 
BRANCH  22  23
ATOM     23  C   UNL     1       2.742   6.606  18.545  0.00  0.00    +0.000 C 
BRANCH  23  25
ATOM     24  C   UNL     1       1.727   8.819  17.923  0.00  0.00    +0.000 C 
ATOM     25  C   UNL     1       2.945   7.927  17.801  0.00  0.00    +0.000 C 
ENDBRANCH  23  25
ENDBRANCH  22  23
ENDBRANCH  21  22
ENDBRANCH  20  21
ENDBRANCH  19  20
ENDBRANCH  18  19
ENDBRANCH  17  18
ENDBRANCH   1  17
TORSDOF 11
ENDMDL
MODEL 2
REMARK VINA RESULT:      -6.4      2.430      6.557
REMARK  Name = 
REMARK  13 active torsions:
REMARK  status: ('A' for Active; 'I' for Inactive)
REMARK    1  A    between atoms: C_1  and  C_2
REMARK    2  A    between atoms: C_2  and  C_3
REMARK    3  A    between atoms: C_3  and  C_4
REMARK    4  A    between atoms: C_4  and  C_5
REMARK    5  A    between atoms: C_5  and  C_6
REMARK    6  A    between atoms: C_6  and  C_7
REMARK    7  A    between atoms: C_7  and  C_8
REMARK    8  A    between atoms: C_8  and  C_9
REMARK    9  A    between atoms: C_9  and  C_10
REMARK   10  A    between atoms: C_15  and  O_16
REMARK   11  A    between atoms: O_16  and  C_17
REMARK   12  A    between atoms: C_18  and  O_19
REMARK   13  A    between atoms: C_20  and  O_21
REMARK                            x       y       z     vdW  Elec       q    Type
REMARK                         _______ _______ _______ _____ _____    ______ ____
ROOT
ATOM      1  C   UNL     1       5.410   5.463  16.812  0.00  0.00    +0.000 C 
ATOM      2  O   UNL     1       4.799   6.566  17.486  0.00  0.00    +0.000 OA
ATOM      3  C   UNL     1       3.393   6.378  17.646  0.00  0.00    +0.000 C 
ATOM      4  C   UNL     1       3.116   5.073  18.390  0.00  0.00    +0.000 C 
ATOM      5  O   UNL     1       1.711   4.852  18.519  0.00  0.00    +0.000 OA
ATOM      6  C   UNL     1       1.431   3.646  19.248  0.00  0.00    +0.000 C 
ATOM      7  C   UNL     1       2.005   2.447  18.455  0.00  0.00    +0.000 C 
ATOM      8  C   UNL     1       3.534   2.611  18.318  0.00  0.00    +0.000 C 
ATOM      9  C   UNL     1       3.801   3.951  17.612  0.00  0.00    +0.000 C 
ATOM     10  O   UNL     1       5.202   4.233  17.513  0.00  0.00    +0.000 OA
ENDROOT
BRANCH   6  11
ATOM     11  O   UNL     1       1.992   3.695  20.563  0.00  0.00    +0.000 OA
ATOM     12  C   UNL     1       1.313   2.851  21.483  0.00  0.00    +0.000 C 
ENDBRANCH   6  11
BRANCH   7  13
ATOM     13  O   UNL     1       1.655   1.190  19.041  0.00  0.00    +0.000 OA
ATOM     14  H   UNL     1       0.693   1.211  19.211  0.00  0.00    +0.000 HD
ENDBRANCH   7  13
BRANCH   8  15
ATOM     15  O   UNL     1       4.069   1.496  17.589  0.00  0.00    +0.000 OA
ATOM     16  H   UNL     1       3.333   0.978  17.224  0.00  0.00    +0.000 HD
ENDBRANCH   8  15
BRANCH   1  17
ATOM     17  C   UNL     1       6.910   5.750  16.725  0.00  0.00    +0.000 C 
BRANCH  17  18
ATOM     18  C   UNL     1       7.611   5.677  18.084  0.00  0.00    +0.000 C 
BRANCH  18  19
ATOM     19  C   UNL     1       8.025   7.070  18.563  0.00  0.00    +0.000 C 
BRANCH  19  20
ATOM     20  C   UNL     1       7.925   8.099  17.437  0.00  0.00    +0.000 C 
BRANCH  20  21
ATOM     21  C   UNL     1       8.071   9.523  17.972  0.00  0.00    +0.000 C 
BRANCH  21  22
ATOM     22  C   UNL     1       9.241   9.623  18.951  0.00  0.00    +0.000 C 
BRANCH  22  23
ATOM     23  C   UNL     1       9.433  11.060  19.430  0.00  0.00    +0.000 C 
BRANCH  23  25
ATOM     24  C   UNL     1      10.849  12.096  17.631  0.00  0.00    +0.000 C 
ATOM     25  C   UNL     1      10.818  11.591  19.059  0.00  0.00    +0.000 C 
ENDBRANCH  23  25
ENDBRANCH  22  23
ENDBRANCH  21  22
ENDBRANCH  20  21
ENDBRANCH  19  20
ENDBRANCH  18  19
ENDBRANCH  17  18
ENDBRANCH   1  17
TORSDOF 11
ENDMDL
MODEL 3
REMARK VINA RESULT:      -6.4      2.889      6.752
REMARK  Name = 
REMARK  13 active torsions:
REMARK  status: ('A' for Active; 'I' for Inactive)
REMARK    1  A    between atoms: C_1  and  C_2
REMARK    2  A    between atoms: C_2  and  C_3
REMARK    3  A    between atoms: C_3  and  C_4
REMARK    4  A    between atoms: C_4  and  C_5
REMARK    5  A    between atoms: C_5  and  C_6
REMARK    6  A    between atoms: C_6  and  C_7
REMARK    7  A    between atoms: C_7  and  C_8
REMARK    8  A    between atoms: C_8  and  C_9
REMARK    9  A    between atoms: C_9  and  C_10
REMARK   10  A    between atoms: C_15  and  O_16
REMARK   11  A    between atoms: O_16  and  C_17
REMARK   12  A    between atoms: C_18  and  O_19
REMARK   13  A    between atoms: C_20  and  O_21
REMARK                            x       y       z     vdW  Elec       q    Type
REMARK                         _______ _______ _______ _____ _____    ______ ____
ROOT
ATOM      1  C   UNL     1       4.673   5.921  16.880  0.00  0.00    +0.000 C 
ATOM      2  O   UNL     1       5.648   5.667  17.895  0.00  0.00    +0.000 OA
ATOM      3  C   UNL     1       5.061   5.621  19.196  0.00  0.00    +0.000 C 
ATOM      4  C   UNL     1       3.953   4.569  19.239  0.00  0.00    +0.000 C 
ATOM      5  O   UNL     1       3.329   4.544  20.523  0.00  0.00    +0.000 OA
ATOM      6  C   UNL     1       2.308   3.535  20.593  0.00  0.00    +0.000 C 
ATOM      7  C   UNL     1       1.205   3.878  19.562  0.00  0.00    +0.000 C 
ATOM      8  C   UNL     1       1.815   3.881  18.144  0.00  0.00    +0.000 C 
ATOM      9  C   UNL     1       2.961   4.908  18.128  0.00  0.00    +0.000 C 
ATOM     10  O   UNL     1       3.647   4.924  16.870  0.00  0.00    +0.000 OA
ENDROOT
BRANCH   6  11
ATOM     11  O   UNL     1       2.848   2.235  20.339  0.00  0.00    +0.000 OA
ATOM     12  C   UNL     1       4.179   2.089  20.815  0.00  0.00    +0.000 C 
ENDBRANCH   6  11
BRANCH   7  13
ATOM     13  O   UNL     1       0.081   2.999  19.656  0.00  0.00    +0.000 OA
ATOM     14  H   UNL     1      -0.634   3.494  20.101  0.00  0.00    +0.000 HD
ENDBRANCH   7  13
BRANCH   8  15
ATOM     15  O   UNL     1       0.792   4.192  17.186  0.00  0.00    +0.000 OA
ATOM     16  H   UNL     1      -0.074   4.122  17.619  0.00  0.00    +0.000 HD
ENDBRANCH   8  15
BRANCH   1  17
ATOM     17  C   UNL     1       5.399   5.914  15.533  0.00  0.00    +0.000 C 
BRANCH  17  18
ATOM     18  C   UNL     1       6.874   5.525  15.651  0.00  0.00    +0.000 C 
BRANCH  18  19
ATOM     19  C   UNL     1       7.209   4.355  14.724  0.00  0.00    +0.000 C 
BRANCH  19  20
ATOM     20  C   UNL     1       6.049   4.045  13.778  0.00  0.00    +0.000 C 
BRANCH  20  21
ATOM     21  C   UNL     1       6.554   3.682  12.382  0.00  0.00    +0.000 C 
BRANCH  21  22
ATOM     22  C   UNL     1       5.529   2.832  11.632  0.00  0.00    +0.000 C 
BRANCH  22  23
ATOM     23  C   UNL     1       4.139   3.462  11.700  0.00  0.00    +0.000 C 
BRANCH  23  25
ATOM     24  C   UNL     1       2.960   4.224   9.617  0.00  0.00    +0.000 C 
ATOM     25  C   UNL     1       3.277   3.042  10.510  0.00  0.00    +0.000 C 
ENDBRANCH  23  25
ENDBRANCH  22  23
ENDBRANCH  21  22
ENDBRANCH  20  21
ENDBRANCH  19  20
ENDBRANCH  18  19
ENDBRANCH  17  18
ENDBRANCH   1  17
TORSDOF 11
ENDMDL
MODEL 4
REMARK VINA RESULT:      -6.3      1.658      3.832
REMARK  Name = 
REMARK  13 active torsions:
REMARK  status: ('A' for Active; 'I' for Inactive)
REMARK    1  A    between atoms: C_1  and  C_2
REMARK    2  A    between atoms: C_2  and  C_3
REMARK    3  A    between atoms: C_3  and  C_4
REMARK    4  A    between atoms: C_4  and  C_5
REMARK    5  A    between atoms: C_5  and  C_6
REMARK    6  A    between atoms: C_6  and  C_7
REMARK    7  A    between atoms: C_7  and  C_8
REMARK    8  A    between atoms: C_8  and  C_9
REMARK    9  A    between atoms: C_9  and  C_10
REMARK   10  A    between atoms: C_15  and  O_16
REMARK   11  A    between atoms: O_16  and  C_17
REMARK   12  A    between atoms: C_18  and  O_19
REMARK   13  A    between atoms: C_20  and  O_21
REMARK                            x       y       z     vdW  Elec       q    Type
REMARK                         _______ _______ _______ _____ _____    ______ ____
ROOT
ATOM      1  C   UNL     1       2.866   6.734  19.580  0.00  0.00    +0.000 C 
ATOM      2  O   UNL     1       2.256   7.023  18.319  0.00  0.00    +0.000 OA
ATOM      3  C   UNL     1       3.222   7.382  17.332  0.00  0.00    +0.000 C 
ATOM      4  C   UNL     1       4.262   6.272  17.183  0.00  0.00    +0.000 C 
ATOM      5  O   UNL     1       5.259   6.637  16.228  0.00  0.00    +0.000 OA
ATOM      6  C   UNL     1       6.227   5.590  16.049  0.00  0.00    +0.000 C 
ATOM      7  C   UNL     1       6.955   5.357  17.396  0.00  0.00    +0.000 C 
ATOM      8  C   UNL     1       5.928   4.919  18.462  0.00  0.00    +0.000 C 
ATOM      9  C   UNL     1       4.860   6.021  18.566  0.00  0.00    +0.000 C 
ATOM     10  O   UNL     1       3.813   5.666  19.477  0.00  0.00    +0.000 OA
ENDROOT
BRANCH   6  11
ATOM     11  O   UNL     1       5.604   4.383  15.599  0.00  0.00    +0.000 OA
ATOM     12  C   UNL     1       5.849   4.118  14.223  0.00  0.00    +0.000 C 
ENDBRANCH   6  11
BRANCH   7  13
ATOM     13  O   UNL     1       8.031   4.421  17.276  0.00  0.00    +0.000 OA
ATOM     14  H   UNL     1       7.918   3.962  16.422  0.00  0.00    +0.000 HD
ENDBRANCH   7  13
BRANCH   8  15
ATOM     15  O   UNL     1       6.603   4.696  19.709  0.00  0.00    +0.000 OA
ATOM     16  H   UNL     1       5.950   4.424  20.375  0.00  0.00    +0.000 HD
ENDBRANCH   8  15
BRANCH   1  17
ATOM     17  C   UNL     1       1.752   6.330  20.548  0.00  0.00    +0.000 C 
BRANCH  17  18
ATOM     18  C   UNL     1       1.403   4.842  20.472  0.00  0.00    +0.000 C 
BRANCH  18  19
ATOM     19  C   UNL     1       2.189   4.040  21.510  0.00  0.00    +0.000 C 
BRANCH  19  20
ATOM     20  C   UNL     1       2.457   2.615  21.027  0.00  0.00    +0.000 C 
BRANCH  20  21
ATOM     21  C   UNL     1       3.915   2.438  20.604  0.00  0.00    +0.000 C 
BRANCH  21  22
ATOM     22  C   UNL     1       4.009   1.886  19.182  0.00  0.00    +0.000 C 
BRANCH  22  23
ATOM     23  C   UNL     1       2.650   1.931  18.485  0.00  0.00    +0.000 C 
BRANCH  23  25
ATOM     24  C   UNL     1       1.464   3.863  17.403  0.00  0.00    +0.000 C 
ATOM     25  C   UNL     1       2.652   2.927  17.325  0.00  0.00    +0.000 C 
ENDBRANCH  23  25
ENDBRANCH  22  23
ENDBRANCH  21  22
ENDBRANCH  20  21
ENDBRANCH  19  20
ENDBRANCH  18  19
ENDBRANCH  17  18
ENDBRANCH   1  17
TORSDOF 11
ENDMDL
MODEL 5
REMARK VINA RESULT:      -6.3      3.380      6.965
REMARK  Name = 
REMARK  13 active torsions:
REMARK  status: ('A' for Active; 'I' for Inactive)
REMARK    1  A    between atoms: C_1  and  C_2
REMARK    2  A    between atoms: C_2  and  C_3
REMARK    3  A    between atoms: C_3  and  C_4
REMARK    4  A    between atoms: C_4  and  C_5
REMARK    5  A    between atoms: C_5  and  C_6
REMARK    6  A    between atoms: C_6  and  C_7
REMARK    7  A    between atoms: C_7  and  C_8
REMARK    8  A    between atoms: C_8  and  C_9
REMARK    9  A    between atoms: C_9  and  C_10
REMARK   10  A    between atoms: C_15  and  O_16
REMARK   11  A    between atoms: O_16  and  C_17
REMARK   12  A    between atoms: C_18  and  O_19
REMARK   13  A    between atoms: C_20  and  O_21
REMARK                            x       y       z     vdW  Elec       q    Type
REMARK                         _______ _______ _______ _____ _____    ______ ____
ROOT
ATOM      1  C   UNL     1       5.275   5.398  16.675  0.00  0.00    +0.000 C 
ATOM      2  O   UNL     1       5.241   4.034  17.104  0.00  0.00    +0.000 OA
ATOM      3  C   UNL     1       4.981   3.925  18.504  0.00  0.00    +0.000 C 
ATOM      4  C   UNL     1       3.672   4.632  18.854  0.00  0.00    +0.000 C 
ATOM      5  O   UNL     1       3.422   4.566  20.258  0.00  0.00    +0.000 OA
ATOM      6  C   UNL     1       2.176   5.196  20.602  0.00  0.00    +0.000 C 
ATOM      7  C   UNL     1       2.263   6.695  20.228  0.00  0.00    +0.000 C 
ATOM      8  C   UNL     1       2.494   6.831  18.708  0.00  0.00    +0.000 C 
ATOM      9  C   UNL     1       3.787   6.073  18.361  0.00  0.00    +0.000 C 
ATOM     10  O   UNL     1       4.043   6.071  16.952  0.00  0.00    +0.000 OA
ENDROOT
BRANCH   6  11
ATOM     11  O   UNL     1       1.079   4.572  19.928  0.00  0.00    +0.000 OA
ATOM     12  C   UNL     1       0.845   3.241  20.372  0.00  0.00    +0.000 C 
ENDBRANCH   6  11
BRANCH   7  13
ATOM     13  O   UNL     1       1.113   7.430  20.660  0.00  0.00    +0.000 OA
ATOM     14  H   UNL     1       1.421   8.321  20.914  0.00  0.00    +0.000 HD
ENDBRANCH   7  13
BRANCH   8  15
ATOM     15  O   UNL     1       2.568   8.221  18.359  0.00  0.00    +0.000 OA
ATOM     16  H   UNL     1       1.879   8.703  18.846  0.00  0.00    +0.000 HD
ENDBRANCH   8  15
BRANCH   1  17
ATOM     17  C   UNL     1       5.525   5.398  15.165  0.00  0.00    +0.000 C 
BRANCH  17  18
ATOM     18  C   UNL     1       6.886   4.812  14.784  0.00  0.00    +0.000 C 
BRANCH  18  19
ATOM     19  C   UNL     1       6.840   4.181  13.391  0.00  0.00    +0.000 C 
BRANCH  19  20
ATOM     20  C   UNL     1       5.401   3.975  12.919  0.00  0.00    +0.000 C 
BRANCH  20  21
ATOM     21  C   UNL     1       5.314   2.865  11.873  0.00  0.00    +0.000 C 
BRANCH  21  22
ATOM     22  C   UNL     1       3.942   2.854  11.198  0.00  0.00    +0.000 C 
BRANCH  22  23
ATOM     23  C   UNL     1       3.660   4.188  10.509  0.00  0.00    +0.000 C 
BRANCH  23  25
ATOM     24  C   UNL     1       1.988   5.202   8.932  0.00  0.00    +0.000 C 
ATOM     25  C   UNL     1       2.851   3.993   9.226  0.00  0.00    +0.000 C 
ENDBRANCH  23  25
ENDBRANCH  22  23
ENDBRANCH  21  22
ENDBRANCH  20  21
ENDBRANCH  19  20
ENDBRANCH  18  19
ENDBRANCH  17  18
ENDBRANCH   1  17
TORSDOF 11
ENDMDL
MODEL 6
REMARK VINA RESULT:      -6.2      2.894      6.948
REMARK  Name = 
REMARK  13 active torsions:
REMARK  status: ('A' for Active; 'I' for Inactive)
REMARK    1  A    between atoms: C_1  and  C_2
REMARK    2  A    between atoms: C_2  and  C_3
REMARK    3  A    between atoms: C_3  and  C_4
REMARK    4  A    between atoms: C_4  and  C_5
REMARK    5  A    between atoms: C_5  and  C_6
REMARK    6  A    between atoms: C_6  and  C_7
REMARK    7  A    between atoms: C_7  and  C_8
REMARK    8  A    between atoms: C_8  and  C_9
REMARK    9  A    between atoms: C_9  and  C_10
REMARK   10  A    between atoms: C_15  and  O_16
REMARK   11  A    between atoms: O_16  and  C_17
REMARK   12  A    between atoms: C_18  and  O_19
REMARK   13  A    between atoms: C_20  and  O_21
REMARK                            x       y       z     vdW  Elec       q    Type
REMARK                         _______ _______ _______ _____ _____    ______ ____
ROOT
ATOM      1  C   UNL     1       5.895   6.161  16.860  0.00  0.00    +0.000 C 
ATOM      2  O   UNL     1       5.191   7.188  17.564  0.00  0.00    +0.000 OA
ATOM      3  C   UNL     1       3.779   6.982  17.530  0.00  0.00    +0.000 C 
ATOM      4  C   UNL     1       3.432   5.606  18.098  0.00  0.00    +0.000 C 
ATOM      5  O   UNL     1       2.025   5.371  18.031  0.00  0.00    +0.000 OA
ATOM      6  C   UNL     1       1.676   4.095  18.593  0.00  0.00    +0.000 C 
ATOM      7  C   UNL     1       2.360   2.985  17.759  0.00  0.00    +0.000 C 
ATOM      8  C   UNL     1       3.892   3.165  17.827  0.00  0.00    +0.000 C 
ATOM      9  C   UNL     1       4.223   4.572  17.299  0.00  0.00    +0.000 C 
ATOM     10  O   UNL     1       5.622   4.865  17.402  0.00  0.00    +0.000 OA
ENDROOT
BRANCH   6  11
ATOM     11  O   UNL     1       2.073   4.010  19.965  0.00  0.00    +0.000 OA
ATOM     12  C   UNL     1       1.045   3.502  20.805  0.00  0.00    +0.000 C 
ENDBRANCH   6  11
BRANCH   7  13
ATOM     13  O   UNL     1       1.959   1.674  18.167  0.00  0.00    +0.000 OA
ATOM     14  H   UNL     1       2.598   1.376  18.844  0.00  0.00    +0.000 HD
ENDBRANCH   7  13
BRANCH   8  15
ATOM     15  O   UNL     1       4.527   2.133  17.059  0.00  0.00    +0.000 OA
ATOM     16  H   UNL     1       5.070   1.589  17.654  0.00  0.00    +0.000 HD
ENDBRANCH   8  15
BRANCH   1  17
ATOM     17  C   UNL     1       7.390   6.458  16.988  0.00  0.00    +0.000 C 
BRANCH  17  18
ATOM     18  C   UNL     1       7.710   7.443  18.114  0.00  0.00    +0.000 C 
BRANCH  18  19
ATOM     19  C   UNL     1       8.060   8.823  17.554  0.00  0.00    +0.000 C 
BRANCH  19  20
ATOM     20  C   UNL     1       8.817   9.666  18.580  0.00  0.00    +0.000 C 
BRANCH  20  21
ATOM     21  C   UNL     1       8.915  11.124  18.135  0.00  0.00    +0.000 C 
BRANCH  21  22
ATOM     22  C   UNL     1      10.374  11.565  18.018  0.00  0.00    +0.000 C 
BRANCH  22  23
ATOM     23  C   UNL     1      11.114  11.368  19.340  0.00  0.00    +0.000 C 
BRANCH  23  25
ATOM     24  C   UNL     1      10.013  12.406  21.346  0.00  0.00    +0.000 C 
ATOM     25  C   UNL     1      11.012  12.610  20.226  0.00  0.00    +0.000 C 
ENDBRANCH  23  25
ENDBRANCH  22  23
ENDBRANCH  21  22
ENDBRANCH  20  21
ENDBRANCH  19  20
ENDBRANCH  18  19
ENDBRANCH  17  18
ENDBRANCH   1  17
TORSDOF 11
ENDMDL
MODEL 7
REMARK VINA RESULT:      -6.0      4.458      7.321
REMARK  Name = 
REMARK  13 active torsions:
REMARK  status: ('A' for Active; 'I' for Inactive)
REMARK    1  A    between atoms: C_1  and  C_2
REMARK    2  A    between atoms: C_2  and  C_3
REMARK    3  A    between atoms: C_3  and  C_4
REMARK    4  A    between atoms: C_4  and  C_5
REMARK    5  A    between atoms: C_5  and  C_6
REMARK    6  A    between atoms: C_6  and  C_7
REMARK    7  A    between atoms: C_7  and  C_8
REMARK    8  A    between atoms: C_8  and  C_9
REMARK    9  A    between atoms: C_9  and  C_10
REMARK   10  A    between atoms: C_15  and  O_16
REMARK   11  A    between atoms: O_16  and  C_17
REMARK   12  A    between atoms: C_18  and  O_19
REMARK   13  A    between atoms: C_20  and  O_21
REMARK                            x       y       z     vdW  Elec       q    Type
REMARK                         _______ _______ _______ _____ _____    ______ ____
ROOT
ATOM      1  C   UNL     1       1.928   7.657  20.311  0.00  0.00    +0.000 C 
ATOM      2  O   UNL     1       0.824   7.529  21.210  0.00  0.00    +0.000 OA
ATOM      3  C   UNL     1       0.363   8.799  21.670  0.00  0.00    +0.000 C 
ATOM      4  C   UNL     1      -0.010   9.687  20.484  0.00  0.00    +0.000 C 
ATOM      5  O   UNL     1      -0.433  10.976  20.931  0.00  0.00    +0.000 OA
ATOM      6  C   UNL     1      -0.822  11.813  19.830  0.00  0.00    +0.000 C 
ATOM      7  C   UNL     1       0.410  12.032  18.918  0.00  0.00    +0.000 C 
ATOM      8  C   UNL     1       0.889  10.671  18.371  0.00  0.00    +0.000 C 
ATOM      9  C   UNL     1       1.214   9.770  19.575  0.00  0.00    +0.000 C 
ATOM     10  O   UNL     1       1.590   8.449  19.167  0.00  0.00    +0.000 OA
ENDROOT
BRANCH   6  11
ATOM     11  O   UNL     1      -1.898  11.228  19.090  0.00  0.00    +0.000 OA
ATOM     12  C   UNL     1      -3.104  11.974  19.189  0.00  0.00    +0.000 C 
ENDBRANCH   6  11
BRANCH   7  13
ATOM     13  O   UNL     1       0.148  12.966  17.866  0.00  0.00    +0.000 OA
ATOM     14  H   UNL     1       0.510  13.828  18.150  0.00  0.00    +0.000 HD
ENDBRANCH   7  13
BRANCH   8  15
ATOM     15  O   UNL     1       2.027  10.873  17.520  0.00  0.00    +0.000 OA
ATOM     16  H   UNL     1       2.071  10.146  16.878  0.00  0.00    +0.000 HD
ENDBRANCH   8  15
BRANCH   1  17
ATOM     17  C   UNL     1       2.317   6.250  19.855  0.00  0.00    +0.000 C 
BRANCH  17  18
ATOM     18  C   UNL     1       1.980   5.172  20.888  0.00  0.00    +0.000 C 
BRANCH  18  19
ATOM     19  C   UNL     1       0.908   4.219  20.357  0.00  0.00    +0.000 C 
BRANCH  19  20
ATOM     20  C   UNL     1       1.435   2.788  20.256  0.00  0.00    +0.000 C 
BRANCH  20  21
ATOM     21  C   UNL     1       1.242   2.223  18.850  0.00  0.00    +0.000 C 
BRANCH  21  22
ATOM     22  C   UNL     1       1.911   3.115  17.804  0.00  0.00    +0.000 C 
BRANCH  22  23
ATOM     23  C   UNL     1       3.371   2.716  17.597  0.00  0.00    +0.000 C 
BRANCH  23  25
ATOM     24  C   UNL     1       5.025   3.888  19.081  0.00  0.00    +0.000 C 
ATOM     25  C   UNL     1       4.304   3.918  17.749  0.00  0.00    +0.000 C 
ENDBRANCH  23  25
ENDBRANCH  22  23
ENDBRANCH  21  22
ENDBRANCH  20  21
ENDBRANCH  19  20
ENDBRANCH  18  19
ENDBRANCH  17  18
ENDBRANCH   1  17
TORSDOF 11
ENDMDL
MODEL 8
REMARK VINA RESULT:      -6.0      3.233      7.255
REMARK  Name = 
REMARK  13 active torsions:
REMARK  status: ('A' for Active; 'I' for Inactive)
REMARK    1  A    between atoms: C_1  and  C_2
REMARK    2  A    between atoms: C_2  and  C_3
REMARK    3  A    between atoms: C_3  and  C_4
REMARK    4  A    between atoms: C_4  and  C_5
REMARK    5  A    between atoms: C_5  and  C_6
REMARK    6  A    between atoms: C_6  and  C_7
REMARK    7  A    between atoms: C_7  and  C_8
REMARK    8  A    between atoms: C_8  and  C_9
REMARK    9  A    between atoms: C_9  and  C_10
REMARK   10  A    between atoms: C_15  and  O_16
REMARK   11  A    between atoms: O_16  and  C_17
REMARK   12  A    between atoms: C_18  and  O_19
REMARK   13  A    between atoms: C_20  and  O_21
REMARK                            x       y       z     vdW  Elec       q    Type
REMARK                         _______ _______ _______ _____ _____    ______ ____
ROOT
ATOM      1  C   UNL     1       6.095   5.708  17.533  0.00  0.00    +0.000 C 
ATOM      2  O   UNL     1       5.252   6.862  17.499  0.00  0.00    +0.000 OA
ATOM      3  C   UNL     1       3.872   6.510  17.418  0.00  0.00    +0.000 C 
ATOM      4  C   UNL     1       3.489   5.599  18.584  0.00  0.00    +0.000 C 
ATOM      5  O   UNL     1       2.120   5.205  18.490  0.00  0.00    +0.000 OA
ATOM      6  C   UNL     1       1.733   4.376  19.598  0.00  0.00    +0.000 C 
ATOM      7  C   UNL     1       2.579   3.080  19.564  0.00  0.00    +0.000 C 
ATOM      8  C   UNL     1       4.073   3.443  19.703  0.00  0.00    +0.000 C 
ATOM      9  C   UNL     1       4.433   4.399  18.552  0.00  0.00    +0.000 C 
ATOM     10  O   UNL     1       5.786   4.859  18.643  0.00  0.00    +0.000 OA
ENDROOT
BRANCH   6  11
ATOM     11  O   UNL     1       1.911   5.061  20.842  0.00  0.00    +0.000 OA
ATOM     12  C   UNL     1       1.379   6.379  20.825  0.00  0.00    +0.000 C 
ENDBRANCH   6  11
BRANCH   7  13
ATOM     13  O   UNL     1       2.166   2.135  20.555  0.00  0.00    +0.000 OA
ATOM     14  H   UNL     1       2.314   2.551  21.427  0.00  0.00    +0.000 HD
ENDBRANCH   7  13
BRANCH   8  15
ATOM     15  O   UNL     1       4.859   2.242  19.677  0.00  0.00    +0.000 OA
ATOM     16  H   UNL     1       4.630   1.734  18.882  0.00  0.00    +0.000 HD
ENDBRANCH   8  15
BRANCH   1  17
ATOM     17  C   UNL     1       7.540   6.196  17.655  0.00  0.00    +0.000 C 
BRANCH  17  18
ATOM     18  C   UNL     1       7.687   7.699  17.405  0.00  0.00    +0.000 C 
BRANCH  18  19
ATOM     19  C   UNL     1       8.417   8.379  18.564  0.00  0.00    +0.000 C 
BRANCH  19  20
ATOM     20  C   UNL     1       8.708   9.847  18.254  0.00  0.00    +0.000 C 
BRANCH  20  21
ATOM     21  C   UNL     1       9.538  10.494  19.363  0.00  0.00    +0.000 C 
BRANCH  21  22
ATOM     22  C   UNL     1      10.642  11.374  18.778  0.00  0.00    +0.000 C 
BRANCH  22  23
ATOM     23  C   UNL     1      11.518  11.960  19.883  0.00  0.00    +0.000 C 
BRANCH  23  25
ATOM     24  C   UNL     1      10.832  14.310  20.448  0.00  0.00    +0.000 C 
ATOM     25  C   UNL     1      11.788  13.447  19.651  0.00  0.00    +0.000 C 
ENDBRANCH  23  25
ENDBRANCH  22  23
ENDBRANCH  21  22
ENDBRANCH  20  21
ENDBRANCH  19  20
ENDBRANCH  18  19
ENDBRANCH  17  18
ENDBRANCH   1  17
TORSDOF 11
ENDMDL
MODEL 9
REMARK VINA RESULT:      -6.0      2.983      7.273
REMARK  Name = 
REMARK  13 active torsions:
REMARK  status: ('A' for Active; 'I' for Inactive)
REMARK    1  A    between atoms: C_1  and  C_2
REMARK    2  A    between atoms: C_2  and  C_3
REMARK    3  A    between atoms: C_3  and  C_4
REMARK    4  A    between atoms: C_4  and  C_5
REMARK    5  A    between atoms: C_5  and  C_6
REMARK    6  A    between atoms: C_6  and  C_7
REMARK    7  A    between atoms: C_7  and  C_8
REMARK    8  A    between atoms: C_8  and  C_9
REMARK    9  A    between atoms: C_9  and  C_10
REMARK   10  A    between atoms: C_15  and  O_16
REMARK   11  A    between atoms: O_16  and  C_17
REMARK   12  A    between atoms: C_18  and  O_19
REMARK   13  A    between atoms: C_20  and  O_21
REMARK                            x       y       z     vdW  Elec       q    Type
REMARK                         _______ _______ _______ _____ _____    ______ ____
ROOT
ATOM      1  C   UNL     1       5.424   4.014  17.169  0.00  0.00    +0.000 C 
ATOM      2  O   UNL     1       4.492   5.043  16.828  0.00  0.00    +0.000 OA
ATOM      3  C   UNL     1       3.164   4.714  17.236  0.00  0.00    +0.000 C 
ATOM      4  C   UNL     1       3.128   4.431  18.737  0.00  0.00    +0.000 C 
ATOM      5  O   UNL     1       1.813   4.058  19.150  0.00  0.00    +0.000 OA
ATOM      6  C   UNL     1       1.752   3.822  20.566  0.00  0.00    +0.000 C 
ATOM      7  C   UNL     1       2.686   2.636  20.909  0.00  0.00    +0.000 C 
ATOM      8  C   UNL     1       4.135   2.999  20.520  0.00  0.00    +0.000 C 
ATOM      9  C   UNL     1       4.148   3.329  19.017  0.00  0.00    +0.000 C 
ATOM     10  O   UNL     1       5.442   3.761  18.577  0.00  0.00    +0.000 OA
ENDROOT
BRANCH   6  11
ATOM     11  O   UNL     1       2.131   4.990  21.301  0.00  0.00    +0.000 OA
ATOM     12  C   UNL     1       1.679   6.193  20.693  0.00  0.00    +0.000 C 
ENDBRANCH   6  11
BRANCH   7  13
ATOM     13  O   UNL     1       2.585   2.245  22.282  0.00  0.00    +0.000 OA
ATOM     14  H   UNL     1       2.259   1.324  22.293  0.00  0.00    +0.000 HD
ENDBRANCH   7  13
BRANCH   8  15
ATOM     15  O   UNL     1       5.003   1.902  20.843  0.00  0.00    +0.000 OA
ATOM     16  H   UNL     1       4.715   1.512  21.685  0.00  0.00    +0.000 HD
ENDBRANCH   8  15
BRANCH   1  17
ATOM     17  C   UNL     1       6.811   4.482  16.721  0.00  0.00    +0.000 C 
BRANCH  17  18
ATOM     18  C   UNL     1       6.860   4.878  15.244  0.00  0.00    +0.000 C 
BRANCH  18  19
ATOM     19  C   UNL     1       6.426   3.714  14.350  0.00  0.00    +0.000 C 
BRANCH  19  20
ATOM     20  C   UNL     1       5.401   4.164  13.309  0.00  0.00    +0.000 C 
BRANCH  20  21
ATOM     21  C   UNL     1       5.493   3.320  12.039  0.00  0.00    +0.000 C 
BRANCH  21  22
ATOM     22  C   UNL     1       6.947   3.145  11.602  0.00  0.00    +0.000 C 
BRANCH  22  23
ATOM     23  C   UNL     1       7.244   1.687  11.257  0.00  0.00    +0.000 C 
BRANCH  23  25
ATOM     24  C   UNL     1       6.132  -0.565  11.328  0.00  0.00    +0.000 C 
ATOM     25  C   UNL     1       5.957   0.902  10.997  0.00  0.00    +0.000 C 
ENDBRANCH  23  25
ENDBRANCH  22  23
ENDBRANCH  21  22
ENDBRANCH  20  21
ENDBRANCH  19  20
ENDBRANCH  18  19
ENDBRANCH  17  18
ENDBRANCH   1  17
TORSDOF 11
ENDMDL
