MODEL 1
REMARK VINA RESULT:      -7.1      0.000      0.000
REMARK  Name = 
REMARK  0 active torsions:
REMARK  status: ('A' for Active; 'I' for Inactive)
REMARK                            x       y       z     vdW  Elec       q    Type
REMARK                         _______ _______ _______ _____ _____    ______ ____
ROOT
ATOM      1  O   UNL     1       1.485   8.638  19.580  0.00  0.00    +0.000 OA
ATOM      2  C   UNL     1       2.231   7.808  19.095  0.00  0.00    +0.000 C 
ATOM      3  C   UNL     1       2.967   7.988  17.836  0.00  0.00    +0.000 C 
ATOM      4  C   UNL     1       3.664   6.868  17.670  0.00  0.00    +0.000 C 
ATOM      5  C   UNL     1       4.631   6.470  16.679  0.00  0.00    +0.000 C 
ATOM      6  C   UNL     1       5.289   5.308  16.890  0.00  0.00    +0.000 C 
ATOM      7  C   UNL     1       5.089   4.487  18.174  0.00  0.00    +0.000 C 
ATOM      8  C   UNL     1       4.684   5.426  19.321  0.00  0.00    +0.000 C 
ATOM      9  C   UNL     1       3.351   5.888  18.750  0.00  0.00    +0.000 C 
ATOM     10  O   UNL     1       2.530   6.595  19.653  0.00  0.00    +0.000 OA
ATOM     11  C   UNL     1       2.738   4.590  18.140  0.00  0.00    +0.000 C 
ATOM     12  C   UNL     1       1.498   4.039  18.840  0.00  0.00    +0.000 C 
ATOM     13  C   UNL     1       1.335   2.581  18.439  0.00  0.00    +0.000 C 
ATOM     14  C   UNL     1       2.491   1.784  19.034  0.00  0.00    +0.000 C 
ATOM     15  C   UNL     1       3.835   2.532  18.983  0.00  0.00    +0.000 C 
ATOM     16  N   UNL     1       3.885   3.630  18.005  0.00  0.00    +0.000 NA
ENDROOT
TORSDOF 0
ENDMDL
MODEL 2
REMARK VINA RESULT:      -7.1      1.603      3.582
REMARK  Name = 
REMARK  0 active torsions:
REMARK  status: ('A' for Active; 'I' for Inactive)
REMARK                            x       y       z     vdW  Elec       q    Type
REMARK                         _______ _______ _______ _____ _____    ______ ____
ROOT
ATOM      1  O   UNL     1       1.538   7.313  20.934  0.00  0.00    +0.000 OA
ATOM      2  C   UNL     1       1.818   6.280  20.355  0.00  0.00    +0.000 C 
ATOM      3  C   UNL     1       1.479   4.936  20.842  0.00  0.00    +0.000 C 
ATOM      4  C   UNL     1       1.949   4.097  19.925  0.00  0.00    +0.000 C 
ATOM      5  C   UNL     1       1.861   2.665  19.790  0.00  0.00    +0.000 C 
ATOM      6  C   UNL     1       2.315   2.125  18.637  0.00  0.00    +0.000 C 
ATOM      7  C   UNL     1       2.817   2.999  17.476  0.00  0.00    +0.000 C 
ATOM      8  C   UNL     1       2.115   4.366  17.528  0.00  0.00    +0.000 C 
ATOM      9  C   UNL     1       2.683   4.839  18.859  0.00  0.00    +0.000 C 
ATOM     10  O   UNL     1       2.460   6.201  19.149  0.00  0.00    +0.000 OA
ATOM     11  C   UNL     1       4.173   4.383  18.811  0.00  0.00    +0.000 C 
ATOM     12  C   UNL     1       5.214   5.497  18.722  0.00  0.00    +0.000 C 
ATOM     13  C   UNL     1       6.513   4.892  18.214  0.00  0.00    +0.000 C 
ATOM     14  C   UNL     1       6.308   4.451  16.769  0.00  0.00    +0.000 C 
ATOM     15  C   UNL     1       4.925   3.824  16.515  0.00  0.00    +0.000 C 
ATOM     16  N   UNL     1       4.241   3.346  17.727  0.00  0.00    +0.000 NA
ENDROOT
TORSDOF 0
ENDMDL
MODEL 3
REMARK VINA RESULT:      -7.1      2.642      3.937
REMARK  Name = 
REMARK  0 active torsions:
REMARK  status: ('A' for Active; 'I' for Inactive)
REMARK                            x       y       z     vdW  Elec       q    Type
REMARK                         _______ _______ _______ _____ _____    ______ ____
ROOT
ATOM      1  O   UNL     1       5.896   3.992  13.759  0.00  0.00    +0.000 OA
ATOM      2  C   UNL     1       5.883   4.247  14.949  0.00  0.00    +0.000 C 
ATOM      3  C   UNL     1       7.086   4.430  15.772  0.00  0.00    +0.000 C 
ATOM      4  C   UNL     1       6.642   4.698  16.995  0.00  0.00    +0.000 C 
ATOM      5  C   UNL     1       7.323   5.050  18.216  0.00  0.00    +0.000 C 
ATOM      6  C   UNL     1       6.557   5.425  19.264  0.00  0.00    +0.000 C 
ATOM      7  C   UNL     1       5.031   5.563  19.142  0.00  0.00    +0.000 C 
ATOM      8  C   UNL     1       4.664   5.904  17.689  0.00  0.00    +0.000 C 
ATOM      9  C   UNL     1       5.153   4.615  17.044  0.00  0.00    +0.000 C 
ATOM     10  O   UNL     1       4.757   4.433  15.703  0.00  0.00    +0.000 OA
ATOM     11  C   UNL     1       4.708   3.506  18.046  0.00  0.00    +0.000 C 
ATOM     12  C   UNL     1       3.613   2.560  17.558  0.00  0.00    +0.000 C 
ATOM     13  C   UNL     1       2.987   1.891  18.772  0.00  0.00    +0.000 C 
ATOM     14  C   UNL     1       2.241   2.950  19.576  0.00  0.00    +0.000 C 
ATOM     15  C   UNL     1       2.979   4.300  19.638  0.00  0.00    +0.000 C 
ATOM     16  N   UNL     1       4.417   4.222  19.335  0.00  0.00    +0.000 NA
ENDROOT
TORSDOF 0
ENDMDL
MODEL 4
REMARK VINA RESULT:      -7.1      2.369      4.582
REMARK  Name = 
REMARK  0 active torsions:
REMARK  status: ('A' for Active; 'I' for Inactive)
REMARK                            x       y       z     vdW  Elec       q    Type
REMARK                         _______ _______ _______ _____ _____    ______ ____
ROOT
ATOM      1  O   UNL     1       5.201   1.344  20.616  0.00  0.00    +0.000 OA
ATOM      2  C   UNL     1       4.649   2.308  20.119  0.00  0.00    +0.000 C 
ATOM      3  C   UNL     1       3.200   2.551  20.166  0.00  0.00    +0.000 C 
ATOM      4  C   UNL     1       3.011   3.699  19.523  0.00  0.00    +0.000 C 
ATOM      5  C   UNL     1       1.835   4.502  19.303  0.00  0.00    +0.000 C 
ATOM      6  C   UNL     1       2.014   5.717  18.739  0.00  0.00    +0.000 C 
ATOM      7  C   UNL     1       3.415   6.266  18.428  0.00  0.00    +0.000 C 
ATOM      8  C   UNL     1       4.431   5.653  19.404  0.00  0.00    +0.000 C 
ATOM      9  C   UNL     1       4.297   4.203  18.959  0.00  0.00    +0.000 C 
ATOM     10  O   UNL     1       5.282   3.331  19.468  0.00  0.00    +0.000 OA
ATOM     11  C   UNL     1       4.204   4.299  17.405  0.00  0.00    +0.000 C 
ATOM     12  C   UNL     1       5.391   3.740  16.625  0.00  0.00    +0.000 C 
ATOM     13  C   UNL     1       5.358   4.330  15.224  0.00  0.00    +0.000 C 
ATOM     14  C   UNL     1       5.642   5.825  15.322  0.00  0.00    +0.000 C 
ATOM     15  C   UNL     1       4.974   6.492  16.538  0.00  0.00    +0.000 C 
ATOM     16  N   UNL     1       3.853   5.730  17.111  0.00  0.00    +0.000 NA
ENDROOT
TORSDOF 0
ENDMDL
MODEL 5
REMARK VINA RESULT:      -7.0      2.538      3.566
REMARK  Name = 
REMARK  0 active torsions:
REMARK  status: ('A' for Active; 'I' for Inactive)
REMARK                            x       y       z     vdW  Elec       q    Type
REMARK                         _______ _______ _______ _____ _____    ______ ____
ROOT
ATOM      1  O   UNL     1       8.257   5.332  20.658  0.00  0.00    +0.000 OA
ATOM      2  C   UNL     1       7.505   5.408  19.704  0.00  0.00    +0.000 C 
ATOM      3  C   UNL     1       7.620   6.409  18.634  0.00  0.00    +0.000 C 
ATOM      4  C   UNL     1       6.626   6.145  17.793  0.00  0.00    +0.000 C 
ATOM      5  C   UNL     1       6.258   6.716  16.522  0.00  0.00    +0.000 C 
ATOM      6  C   UNL     1       5.271   6.102  15.832  0.00  0.00    +0.000 C 
ATOM      7  C   UNL     1       4.627   4.798  16.330  0.00  0.00    +0.000 C 
ATOM      8  C   UNL     1       5.641   4.023  17.185  0.00  0.00    +0.000 C 
ATOM      9  C   UNL     1       5.777   5.035  18.314  0.00  0.00    +0.000 C 
ATOM     10  O   UNL     1       6.458   4.564  19.455  0.00  0.00    +0.000 OA
ATOM     11  C   UNL     1       4.317   5.533  18.544  0.00  0.00    +0.000 C 
ATOM     12  C   UNL     1       3.670   5.131  19.867  0.00  0.00    +0.000 C 
ATOM     13  C   UNL     1       2.163   5.273  19.721  0.00  0.00    +0.000 C 
ATOM     14  C   UNL     1       1.674   4.225  18.727  0.00  0.00    +0.000 C 
ATOM     15  C   UNL     1       2.626   4.026  17.534  0.00  0.00    +0.000 C 
ATOM     16  N   UNL     1       3.559   5.141  17.307  0.00  0.00    +0.000 NA
ENDROOT
TORSDOF 0
ENDMDL
MODEL 6
REMARK VINA RESULT:      -7.0      2.210      4.274
REMARK  Name = 
REMARK  0 active torsions:
REMARK  status: ('A' for Active; 'I' for Inactive)
REMARK                            x       y       z     vdW  Elec       q    Type
REMARK                         _______ _______ _______ _____ _____    ______ ____
ROOT
ATOM      1  O   UNL     1       7.461   5.958  15.911  0.00  0.00    +0.000 OA
ATOM      2  C   UNL     1       6.477   5.564  16.508  0.00  0.00    +0.000 C 
ATOM      3  C   UNL     1       5.758   4.321  16.195  0.00  0.00    +0.000 C 
ATOM      4  C   UNL     1       4.763   4.256  17.074  0.00  0.00    +0.000 C 
ATOM      5  C   UNL     1       3.767   3.247  17.333  0.00  0.00    +0.000 C 
ATOM      6  C   UNL     1       2.986   3.416  18.424  0.00  0.00    +0.000 C 
ATOM      7  C   UNL     1       3.206   4.581  19.403  0.00  0.00    +0.000 C 
ATOM      8  C   UNL     1       4.684   4.999  19.373  0.00  0.00    +0.000 C 
ATOM      9  C   UNL     1       4.735   5.478  17.929  0.00  0.00    +0.000 C 
ATOM     10  O   UNL     1       5.901   6.190  17.580  0.00  0.00    +0.000 OA
ATOM     11  C   UNL     1       3.386   6.237  17.741  0.00  0.00    +0.000 C 
ATOM     12  C   UNL     1       3.487   7.749  17.554  0.00  0.00    +0.000 C 
ATOM     13  C   UNL     1       2.128   8.357  17.864  0.00  0.00    +0.000 C 
ATOM     14  C   UNL     1       1.847   8.179  19.352  0.00  0.00    +0.000 C 
ATOM     15  C   UNL     1       2.311   6.817  19.900  0.00  0.00    +0.000 C 
ATOM     16  N   UNL     1       2.508   5.782  18.872  0.00  0.00    +0.000 NA
ENDROOT
TORSDOF 0
ENDMDL
MODEL 7
REMARK VINA RESULT:      -7.0      2.267      4.787
REMARK  Name = 
REMARK  0 active torsions:
REMARK  status: ('A' for Active; 'I' for Inactive)
REMARK                            x       y       z     vdW  Elec       q    Type
REMARK                         _______ _______ _______ _____ _____    ______ ____
ROOT
ATOM      1  O   UNL     1       5.265   1.304  20.636  0.00  0.00    +0.000 OA
ATOM      2  C   UNL     1       4.643   2.133  19.997  0.00  0.00    +0.000 C 
ATOM      3  C   UNL     1       3.356   1.877  19.337  0.00  0.00    +0.000 C 
ATOM      4  C   UNL     1       3.016   3.027  18.764  0.00  0.00    +0.000 C 
ATOM      5  C   UNL     1       1.837   3.437  18.044  0.00  0.00    +0.000 C 
ATOM      6  C   UNL     1       1.733   4.747  17.725  0.00  0.00    +0.000 C 
ATOM      7  C   UNL     1       2.776   5.777  18.187  0.00  0.00    +0.000 C 
ATOM      8  C   UNL     1       3.424   5.295  19.494  0.00  0.00    +0.000 C 
ATOM      9  C   UNL     1       4.093   4.043  18.945  0.00  0.00    +0.000 C 
ATOM     10  O   UNL     1       5.021   3.435  19.815  0.00  0.00    +0.000 OA
ATOM     11  C   UNL     1       4.647   4.496  17.559  0.00  0.00    +0.000 C 
ATOM     12  C   UNL     1       6.167   4.565  17.434  0.00  0.00    +0.000 C 
ATOM     13  C   UNL     1       6.506   5.449  16.244  0.00  0.00    +0.000 C 
ATOM     14  C   UNL     1       6.088   6.879  16.569  0.00  0.00    +0.000 C 
ATOM     15  C   UNL     1       4.756   6.964  17.337  0.00  0.00    +0.000 C 
ATOM     16  N   UNL     1       3.912   5.763  17.227  0.00  0.00    +0.000 NA
ENDROOT
TORSDOF 0
ENDMDL
MODEL 8
REMARK VINA RESULT:      -6.9      2.178      4.136
REMARK  Name = 
REMARK  0 active torsions:
REMARK  status: ('A' for Active; 'I' for Inactive)
REMARK                            x       y       z     vdW  Elec       q    Type
REMARK                         _______ _______ _______ _____ _____    ______ ____
ROOT
ATOM      1  O   UNL     1       2.117   1.827  19.021  0.00  0.00    +0.000 OA
ATOM      2  C   UNL     1       2.556   2.916  18.702  0.00  0.00    +0.000 C 
ATOM      3  C   UNL     1       1.736   4.122  18.527  0.00  0.00    +0.000 C 
ATOM      4  C   UNL     1       2.589   5.085  18.191  0.00  0.00    +0.000 C 
ATOM      5  C   UNL     1       2.413   6.498  17.967  0.00  0.00    +0.000 C 
ATOM      6  C   UNL     1       3.529   7.240  17.795  0.00  0.00    +0.000 C 
ATOM      7  C   UNL     1       4.934   6.629  17.926  0.00  0.00    +0.000 C 
ATOM      8  C   UNL     1       4.880   5.427  18.882  0.00  0.00    +0.000 C 
ATOM      9  C   UNL     1       3.969   4.538  18.047  0.00  0.00    +0.000 C 
ATOM     10  O   UNL     1       3.876   3.202  18.487  0.00  0.00    +0.000 OA
ATOM     11  C   UNL     1       4.483   4.746  16.589  0.00  0.00    +0.000 C 
ATOM     12  C   UNL     1       5.159   3.542  15.938  0.00  0.00    +0.000 C 
ATOM     13  C   UNL     1       5.993   4.041  14.768  0.00  0.00    +0.000 C 
ATOM     14  C   UNL     1       7.148   4.870  15.318  0.00  0.00    +0.000 C 
ATOM     15  C   UNL     1       6.747   5.755  16.512  0.00  0.00    +0.000 C 
ATOM     16  N   UNL     1       5.301   6.005  16.627  0.00  0.00    +0.000 NA
ENDROOT
TORSDOF 0
ENDMDL
MODEL 9
REMARK VINA RESULT:      -6.9      2.346      3.477
REMARK  Name = 
REMARK  0 active torsions:
REMARK  status: ('A' for Active; 'I' for Inactive)
REMARK                            x       y       z     vdW  Elec       q    Type
REMARK                         _______ _______ _______ _____ _____    ______ ____
ROOT
ATOM      1  O   UNL     1       7.486   4.330  18.253  0.00  0.00    +0.000 OA
ATOM      2  C   UNL     1       6.312   4.650  18.240  0.00  0.00    +0.000 C 
ATOM      3  C   UNL     1       5.830   6.031  18.105  0.00  0.00    +0.000 C 
ATOM      4  C   UNL     1       4.504   5.948  18.127  0.00  0.00    +0.000 C 
ATOM      5  C   UNL     1       3.470   6.938  17.957  0.00  0.00    +0.000 C 
ATOM      6  C   UNL     1       2.197   6.492  17.873  0.00  0.00    +0.000 C 
ATOM      7  C   UNL     1       1.864   4.992  17.864  0.00  0.00    +0.000 C 
ATOM      8  C   UNL     1       3.052   4.210  17.281  0.00  0.00    +0.000 C 
ATOM      9  C   UNL     1       4.069   4.541  18.365  0.00  0.00    +0.000 C 
ATOM     10  O   UNL     1       5.257   3.783  18.316  0.00  0.00    +0.000 OA
ATOM     11  C   UNL     1       3.248   4.446  19.687  0.00  0.00    +0.000 C 
ATOM     12  C   UNL     1       3.611   3.294  20.621  0.00  0.00    +0.000 C 
ATOM     13  C   UNL     1       2.447   3.070  21.574  0.00  0.00    +0.000 C 
ATOM     14  C   UNL     1       1.260   2.547  20.772  0.00  0.00    +0.000 C 
ATOM     15  C   UNL     1       1.112   3.220  19.395  0.00  0.00    +0.000 C 
ATOM     16  N   UNL     1       1.806   4.511  19.270  0.00  0.00    +0.000 NA
ENDROOT
TORSDOF 0
ENDMDL
