MODEL 1
REMARK VINA RESULT:      -7.2      0.000      0.000
REMARK  Name = 
REMARK  10 active torsions:
REMARK  status: ('A' for Active; 'I' for Inactive)
REMARK    1  A    between atoms: C_1  and  C_2
REMARK    2  A    between atoms: C_2  and  O_3
REMARK    3  A    between atoms: O_3  and  C_4
REMARK    4  A    between atoms: C_6  and  C_7
REMARK    5  A    between atoms: C_7  and  O_8
REMARK    6  A    between atoms: C_9  and  O_10
REMARK    7  A    between atoms: C_11  and  O_12
REMARK    8  A    between atoms: C_13  and  N_14
REMARK    9  A    between atoms: N_17  and  C_18
REMARK   10  A    between atoms: N_17  and  N_19
REMARK                            x       y       z     vdW  Elec       q    Type
REMARK                         _______ _______ _______ _____ _____    ______ ____
ROOT
ATOM      1  C   UNL     1       4.177   4.820  18.645  0.00  0.00    +0.000 C 
ATOM      2  O   UNL     1       3.639   4.671  19.951  0.00  0.00    +0.000 OA
ATOM      3  C   UNL     1       2.489   3.815  19.988  0.00  0.00    +0.000 C 
ATOM      4  C   UNL     1       2.789   2.410  19.462  0.00  0.00    +0.000 C 
ATOM      5  C   UNL     1       3.590   2.390  18.142  0.00  0.00    +0.000 C 
ATOM      6  C   UNL     1       4.696   3.471  18.084  0.00  0.00    +0.000 C 
ENDROOT
BRANCH   6   7
ATOM      7  N   UNL     1       5.236   3.699  16.718  0.00  0.00    +0.000 N 
ATOM      8  C   UNL     1       6.327   4.475  16.418  0.00  0.00    +0.000 C 
ATOM      9  O   UNL     1       6.956   4.999  17.344  0.00  0.00    +0.000 OA
ATOM     10  N   UNL     1       6.644   4.617  15.074  0.00  0.00    +0.000 N 
ATOM     11  C   UNL     1       5.938   4.062  13.923  0.00  0.00    +0.000 C 
ATOM     12  H   UNL     1       4.763   3.185  15.995  0.00  0.00    +0.000 HD
BRANCH  10  13
ATOM     13  N   UNL     1       7.765   5.435  14.818  0.00  0.00    +0.000 NA
ATOM     14  O   UNL     1       8.032   5.568  13.616  0.00  0.00    +0.000 OA
ENDBRANCH  10  13
ENDBRANCH   6   7
BRANCH   4  15
ATOM     15  O   UNL     1       1.544   1.697  19.316  0.00  0.00    +0.000 OA
ATOM     16  H   UNL     1       0.975   1.913  20.071  0.00  0.00    +0.000 HD
ENDBRANCH   4  15
BRANCH   5  17
ATOM     17  O   UNL     1       4.146   1.065  18.041  0.00  0.00    +0.000 OA
ATOM     18  H   UNL     1       4.772   1.037  17.284  0.00  0.00    +0.000 HD
ENDBRANCH   5  17
BRANCH   1  19
ATOM     19  O   UNL     1       3.242   5.420  17.730  0.00  0.00    +0.000 OA
BRANCH  19  21
ATOM     20  C   UNL     1       2.437   7.632  18.280  0.00  0.00    +0.000 C 
ATOM     21  C   UNL     1       3.498   6.820  17.563  0.00  0.00    +0.000 C 
ENDBRANCH  19  21
ENDBRANCH   1  19
BRANCH   3  22
ATOM     22  C   UNL     1       2.044   3.755  21.457  0.00  0.00    +0.000 C 
BRANCH  22  23
ATOM     23  O   UNL     1       2.370   2.474  22.003  0.00  0.00    +0.000 OA
ATOM     24  H   UNL     1       3.054   2.107  21.412  0.00  0.00    +0.000 HD
ENDBRANCH  22  23
ENDBRANCH   3  22
TORSDOF 8
ENDMDL
MODEL 2
REMARK VINA RESULT:      -6.7      1.196      1.248
REMARK  Name = 
REMARK  10 active torsions:
REMARK  status: ('A' for Active; 'I' for Inactive)
REMARK    1  A    between atoms: C_1  and  C_2
REMARK    2  A    between atoms: C_2  and  O_3
REMARK    3  A    between atoms: O_3  and  C_4
REMARK    4  A    between atoms: C_6  and  C_7
REMARK    5  A    between atoms: C_7  and  O_8
REMARK    6  A    between atoms: C_9  and  O_10
REMARK    7  A    between atoms: C_11  and  O_12
REMARK    8  A    between atoms: C_13  and  N_14
REMARK    9  A    between atoms: N_17  and  C_18
REMARK   10  A    between atoms: N_17  and  N_19
REMARK                            x       y       z     vdW  Elec       q    Type
REMARK                         _______ _______ _______ _____ _____    ______ ____
ROOT
ATOM      1  C   UNL     1       3.311   5.109  19.536  0.00  0.00    +0.000 C 
ATOM      2  O   UNL     1       2.782   4.428  20.663  0.00  0.00    +0.000 OA
ATOM      3  C   UNL     1       1.815   3.429  20.309  0.00  0.00    +0.000 C 
ATOM      4  C   UNL     1       2.389   2.367  19.369  0.00  0.00    +0.000 C 
ATOM      5  C   UNL     1       3.209   2.944  18.194  0.00  0.00    +0.000 C 
ATOM      6  C   UNL     1       4.091   4.149  18.601  0.00  0.00    +0.000 C 
ENDROOT
BRANCH   6   7
ATOM      7  N   UNL     1       4.609   4.926  17.445  0.00  0.00    +0.000 N 
ATOM      8  C   UNL     1       5.921   4.969  17.045  0.00  0.00    +0.000 C 
ATOM      9  O   UNL     1       6.750   4.279  17.650  0.00  0.00    +0.000 OA
ATOM     10  N   UNL     1       6.223   5.800  15.975  0.00  0.00    +0.000 N 
ATOM     11  C   UNL     1       5.315   6.668  15.229  0.00  0.00    +0.000 C 
ATOM     12  H   UNL     1       3.900   5.400  16.914  0.00  0.00    +0.000 HD
BRANCH  10  13
ATOM     13  N   UNL     1       7.586   5.820  15.612  0.00  0.00    +0.000 NA
ATOM     14  O   UNL     1       7.807   5.459  14.448  0.00  0.00    +0.000 OA
ENDBRANCH  10  13
ENDBRANCH   6   7
BRANCH   4  15
ATOM     15  O   UNL     1       1.307   1.548  18.883  0.00  0.00    +0.000 OA
ATOM     16  H   UNL     1       0.556   1.638  19.491  0.00  0.00    +0.000 HD
ENDBRANCH   4  15
BRANCH   5  17
ATOM     17  O   UNL     1       4.010   1.851  17.703  0.00  0.00    +0.000 OA
ATOM     18  H   UNL     1       3.472   1.029  17.717  0.00  0.00    +0.000 HD
ENDBRANCH   5  17
BRANCH   1  19
ATOM     19  O   UNL     1       2.301   5.821  18.798  0.00  0.00    +0.000 OA
BRANCH  19  21
ATOM     20  C   UNL     1       2.490   8.024  17.821  0.00  0.00    +0.000 C 
ATOM     21  C   UNL     1       2.323   7.223  19.098  0.00  0.00    +0.000 C 
ENDBRANCH  19  21
ENDBRANCH   1  19
BRANCH   3  22
ATOM     22  C   UNL     1       1.355   2.788  21.627  0.00  0.00    +0.000 C 
BRANCH  22  23
ATOM     23  O   UNL     1       2.492   2.283  22.334  0.00  0.00    +0.000 OA
ATOM     24  H   UNL     1       2.595   1.361  22.035  0.00  0.00    +0.000 HD
ENDBRANCH  22  23
ENDBRANCH   3  22
TORSDOF 8
ENDMDL
MODEL 3
REMARK VINA RESULT:      -6.7      1.393      1.432
REMARK  Name = 
REMARK  10 active torsions:
REMARK  status: ('A' for Active; 'I' for Inactive)
REMARK    1  A    between atoms: C_1  and  C_2
REMARK    2  A    between atoms: C_2  and  O_3
REMARK    3  A    between atoms: O_3  and  C_4
REMARK    4  A    between atoms: C_6  and  C_7
REMARK    5  A    between atoms: C_7  and  O_8
REMARK    6  A    between atoms: C_9  and  O_10
REMARK    7  A    between atoms: C_11  and  O_12
REMARK    8  A    between atoms: C_13  and  N_14
REMARK    9  A    between atoms: N_17  and  C_18
REMARK   10  A    between atoms: N_17  and  N_19
REMARK                            x       y       z     vdW  Elec       q    Type
REMARK                         _______ _______ _______ _____ _____    ______ ____
ROOT
ATOM      1  C   UNL     1       3.686   4.718  19.365  0.00  0.00    +0.000 C 
ATOM      2  O   UNL     1       2.901   4.222  20.438  0.00  0.00    +0.000 OA
ATOM      3  C   UNL     1       1.856   3.338  20.005  0.00  0.00    +0.000 C 
ATOM      4  C   UNL     1       2.396   2.125  19.243  0.00  0.00    +0.000 C 
ATOM      5  C   UNL     1       3.457   2.474  18.177  0.00  0.00    +0.000 C 
ATOM      6  C   UNL     1       4.441   3.578  18.634  0.00  0.00    +0.000 C 
ENDROOT
BRANCH   6   7
ATOM      7  N   UNL     1       5.234   4.167  17.523  0.00  0.00    +0.000 N 
ATOM      8  C   UNL     1       6.204   5.126  17.667  0.00  0.00    +0.000 C 
ATOM      9  O   UNL     1       6.493   5.515  18.805  0.00  0.00    +0.000 OA
ATOM     10  N   UNL     1       6.796   5.597  16.502  0.00  0.00    +0.000 N 
ATOM     11  C   UNL     1       6.493   5.218  15.125  0.00  0.00    +0.000 C 
ATOM     12  H   UNL     1       5.046   3.764  16.622  0.00  0.00    +0.000 HD
BRANCH  10  13
ATOM     13  N   UNL     1       7.777   6.592  16.702  0.00  0.00    +0.000 NA
ATOM     14  O   UNL     1       7.322   7.739  16.807  0.00  0.00    +0.000 OA
ENDBRANCH  10  13
ENDBRANCH   6   7
BRANCH   4  15
ATOM     15  O   UNL     1       1.286   1.423  18.649  0.00  0.00    +0.000 OA
ATOM     16  H   UNL     1       1.067   1.851  17.807  0.00  0.00    +0.000 HD
ENDBRANCH   4  15
BRANCH   5  17
ATOM     17  O   UNL     1       4.147   1.241  17.894  0.00  0.00    +0.000 OA
ATOM     18  H   UNL     1       4.515   0.881  18.732  0.00  0.00    +0.000 HD
ENDBRANCH   5  17
BRANCH   1  19
ATOM     19  O   UNL     1       2.914   5.493  18.429  0.00  0.00    +0.000 OA
BRANCH  19  21
ATOM     20  C   UNL     1       2.918   7.830  17.816  0.00  0.00    +0.000 C 
ATOM     21  C   UNL     1       2.674   6.818  18.918  0.00  0.00    +0.000 C 
ENDBRANCH  19  21
ENDBRANCH   1  19
BRANCH   3  22
ATOM     22  C   UNL     1       1.117   2.890  21.275  0.00  0.00    +0.000 C 
BRANCH  22  23
ATOM     23  O   UNL     1       2.069   2.523  22.277  0.00  0.00    +0.000 OA
ATOM     24  H   UNL     1       1.699   2.850  23.118  0.00  0.00    +0.000 HD
ENDBRANCH  22  23
ENDBRANCH   3  22
TORSDOF 8
ENDMDL
MODEL 4
REMARK VINA RESULT:      -6.1      2.592      6.341
REMARK  Name = 
REMARK  10 active torsions:
REMARK  status: ('A' for Active; 'I' for Inactive)
REMARK    1  A    between atoms: C_1  and  C_2
REMARK    2  A    between atoms: C_2  and  O_3
REMARK    3  A    between atoms: O_3  and  C_4
REMARK    4  A    between atoms: C_6  and  C_7
REMARK    5  A    between atoms: C_7  and  O_8
REMARK    6  A    between atoms: C_9  and  O_10
REMARK    7  A    between atoms: C_11  and  O_12
REMARK    8  A    between atoms: C_13  and  N_14
REMARK    9  A    between atoms: N_17  and  C_18
REMARK   10  A    between atoms: N_17  and  N_19
REMARK                            x       y       z     vdW  Elec       q    Type
REMARK                         _______ _______ _______ _____ _____    ______ ____
ROOT
ATOM      1  C   UNL     1       4.778   3.577  17.078  0.00  0.00    +0.000 C 
ATOM      2  O   UNL     1       5.729   3.475  16.028  0.00  0.00    +0.000 OA
ATOM      3  C   UNL     1       6.275   4.745  15.644  0.00  0.00    +0.000 C 
ATOM      4  C   UNL     1       6.964   5.461  16.808  0.00  0.00    +0.000 C 
ATOM      5  C   UNL     1       6.149   5.458  18.119  0.00  0.00    +0.000 C 
ATOM      6  C   UNL     1       5.420   4.118  18.381  0.00  0.00    +0.000 C 
ENDROOT
BRANCH   6   7
ATOM      7  N   UNL     1       4.371   4.204  19.430  0.00  0.00    +0.000 N 
ATOM      8  C   UNL     1       4.008   3.183  20.271  0.00  0.00    +0.000 C 
ATOM      9  O   UNL     1       4.619   2.110  20.203  0.00  0.00    +0.000 OA
ATOM     10  N   UNL     1       2.962   3.437  21.149  0.00  0.00    +0.000 N 
ATOM     11  C   UNL     1       2.170   4.657  21.271  0.00  0.00    +0.000 C 
ATOM     12  H   UNL     1       3.958   5.115  19.528  0.00  0.00    +0.000 HD
BRANCH  10  13
ATOM     13  N   UNL     1       2.618   2.351  21.982  0.00  0.00    +0.000 NA
ATOM     14  O   UNL     1       1.426   2.326  22.316  0.00  0.00    +0.000 OA
ENDBRANCH  10  13
ENDBRANCH   6   7
BRANCH   4  15
ATOM     15  O   UNL     1       7.273   6.809  16.401  0.00  0.00    +0.000 OA
ATOM     16  H   UNL     1       6.867   7.422  17.034  0.00  0.00    +0.000 HD
ENDBRANCH   4  15
BRANCH   5  17
ATOM     17  O   UNL     1       7.091   5.756  19.167  0.00  0.00    +0.000 OA
ATOM     18  H   UNL     1       7.996   5.525  18.859  0.00  0.00    +0.000 HD
ENDBRANCH   5  17
BRANCH   1  19
ATOM     19  O   UNL     1       3.636   4.374  16.711  0.00  0.00    +0.000 OA
BRANCH  19  21
ATOM     20  C   UNL     1       1.424   4.442  17.682  0.00  0.00    +0.000 C 
ATOM     21  C   UNL     1       2.415   3.639  16.862  0.00  0.00    +0.000 C 
ENDBRANCH  19  21
ENDBRANCH   1  19
BRANCH   3  22
ATOM     22  C   UNL     1       7.281   4.458  14.519  0.00  0.00    +0.000 C 
BRANCH  22  23
ATOM     23  O   UNL     1       7.971   5.662  14.176  0.00  0.00    +0.000 OA
ATOM     24  H   UNL     1       8.501   5.443  13.387  0.00  0.00    +0.000 HD
ENDBRANCH  22  23
ENDBRANCH   3  22
TORSDOF 8
ENDMDL
MODEL 5
REMARK VINA RESULT:      -6.1      1.597      1.880
REMARK  Name = 
REMARK  10 active torsions:
REMARK  status: ('A' for Active; 'I' for Inactive)
REMARK    1  A    between atoms: C_1  and  C_2
REMARK    2  A    between atoms: C_2  and  O_3
REMARK    3  A    between atoms: O_3  and  C_4
REMARK    4  A    between atoms: C_6  and  C_7
REMARK    5  A    between atoms: C_7  and  O_8
REMARK    6  A    between atoms: C_9  and  O_10
REMARK    7  A    between atoms: C_11  and  O_12
REMARK    8  A    between atoms: C_13  and  N_14
REMARK    9  A    between atoms: N_17  and  C_18
REMARK   10  A    between atoms: N_17  and  N_19
REMARK                            x       y       z     vdW  Elec       q    Type
REMARK                         _______ _______ _______ _____ _____    ______ ____
ROOT
ATOM      1  C   UNL     1       3.203   5.544  19.809  0.00  0.00    +0.000 C 
ATOM      2  O   UNL     1       2.293   4.840  20.639  0.00  0.00    +0.000 OA
ATOM      3  C   UNL     1       1.828   3.618  20.049  0.00  0.00    +0.000 C 
ATOM      4  C   UNL     1       2.972   2.656  19.718  0.00  0.00    +0.000 C 
ATOM      5  C   UNL     1       4.169   3.325  19.008  0.00  0.00    +0.000 C 
ATOM      6  C   UNL     1       4.501   4.731  19.563  0.00  0.00    +0.000 C 
ENDROOT
BRANCH   6   7
ATOM      7  N   UNL     1       5.401   5.522  18.685  0.00  0.00    +0.000 N 
ATOM      8  C   UNL     1       5.569   5.320  17.338  0.00  0.00    +0.000 C 
ATOM      9  O   UNL     1       4.894   4.448  16.779  0.00  0.00    +0.000 OA
ATOM     10  N   UNL     1       6.502   6.124  16.696  0.00  0.00    +0.000 N 
ATOM     11  C   UNL     1       7.358   7.149  17.285  0.00  0.00    +0.000 C 
ATOM     12  H   UNL     1       5.864   6.285  19.146  0.00  0.00    +0.000 HD
BRANCH  10  13
ATOM     13  N   UNL     1       6.647   5.868  15.316  0.00  0.00    +0.000 NA
ATOM     14  O   UNL     1       7.775   5.475  14.989  0.00  0.00    +0.000 OA
ENDBRANCH  10  13
ENDBRANCH   6   7
BRANCH   4  15
ATOM     15  O   UNL     1       2.448   1.572  18.926  0.00  0.00    +0.000 OA
ATOM     16  H   UNL     1       2.316   1.889  18.019  0.00  0.00    +0.000 HD
ENDBRANCH   4  15
BRANCH   5  17
ATOM     17  O   UNL     1       5.278   2.420  19.175  0.00  0.00    +0.000 OA
ATOM     18  H   UNL     1       5.883   2.780  19.862  0.00  0.00    +0.000 HD
ENDBRANCH   5  17
BRANCH   1  19
ATOM     19  O   UNL     1       2.613   5.941  18.557  0.00  0.00    +0.000 OA
BRANCH  19  21
ATOM     20  C   UNL     1       3.089   8.138  17.669  0.00  0.00    +0.000 C 
ATOM     21  C   UNL     1       2.204   7.314  18.583  0.00  0.00    +0.000 C 
ENDBRANCH  19  21
ENDBRANCH   1  19
BRANCH   3  22
ATOM     22  C   UNL     1       0.871   2.983  21.070  0.00  0.00    +0.000 C 
BRANCH  22  23
ATOM     23  O   UNL     1       1.614   2.541  22.209  0.00  0.00    +0.000 OA
ATOM     24  H   UNL     1       2.509   2.910  22.095  0.00  0.00    +0.000 HD
ENDBRANCH  22  23
ENDBRANCH   3  22
TORSDOF 8
ENDMDL
MODEL 6
REMARK VINA RESULT:      -6.0      1.879      2.339
REMARK  Name = 
REMARK  10 active torsions:
REMARK  status: ('A' for Active; 'I' for Inactive)
REMARK    1  A    between atoms: C_1  and  C_2
REMARK    2  A    between atoms: C_2  and  O_3
REMARK    3  A    between atoms: O_3  and  C_4
REMARK    4  A    between atoms: C_6  and  C_7
REMARK    5  A    between atoms: C_7  and  O_8
REMARK    6  A    between atoms: C_9  and  O_10
REMARK    7  A    between atoms: C_11  and  O_12
REMARK    8  A    between atoms: C_13  and  N_14
REMARK    9  A    between atoms: N_17  and  C_18
REMARK   10  A    between atoms: N_17  and  N_19
REMARK                            x       y       z     vdW  Elec       q    Type
REMARK                         _______ _______ _______ _____ _____    ______ ____
ROOT
ATOM      1  C   UNL     1       4.701   3.719  18.892  0.00  0.00    +0.000 C 
ATOM      2  O   UNL     1       4.220   2.855  19.911  0.00  0.00    +0.000 OA
ATOM      3  C   UNL     1       3.020   3.337  20.532  0.00  0.00    +0.000 C 
ATOM      4  C   UNL     1       1.879   3.530  19.529  0.00  0.00    +0.000 C 
ATOM      5  C   UNL     1       2.297   4.261  18.235  0.00  0.00    +0.000 C 
ATOM      6  C   UNL     1       3.694   3.836  17.719  0.00  0.00    +0.000 C 
ENDROOT
BRANCH   6   7
ATOM      7  N   UNL     1       4.257   4.757  16.697  0.00  0.00    +0.000 N 
ATOM      8  C   UNL     1       5.286   4.454  15.842  0.00  0.00    +0.000 C 
ATOM      9  O   UNL     1       5.768   3.316  15.871  0.00  0.00    +0.000 OA
ATOM     10  N   UNL     1       5.715   5.468  14.995  0.00  0.00    +0.000 N 
ATOM     11  C   UNL     1       5.225   6.841  14.919  0.00  0.00    +0.000 C 
ATOM     12  H   UNL     1       3.783   5.641  16.631  0.00  0.00    +0.000 HD
BRANCH  10  13
ATOM     13  N   UNL     1       6.783   5.111  14.145  0.00  0.00    +0.000 NA
ATOM     14  O   UNL     1       7.882   5.562  14.494  0.00  0.00    +0.000 OA
ENDBRANCH  10  13
ENDBRANCH   6   7
BRANCH   4  15
ATOM     15  O   UNL     1       0.802   4.228  20.186  0.00  0.00    +0.000 OA
ATOM     16  H   UNL     1       0.202   3.573  20.574  0.00  0.00    +0.000 HD
ENDBRANCH   4  15
BRANCH   5  17
ATOM     17  O   UNL     1       1.270   3.966  17.270  0.00  0.00    +0.000 OA
ATOM     18  H   UNL     1       0.392   4.147  17.671  0.00  0.00    +0.000 HD
ENDBRANCH   5  17
BRANCH   1  19
ATOM     19  O   UNL     1       5.045   5.023  19.394  0.00  0.00    +0.000 OA
BRANCH  19  21
ATOM     20  C   UNL     1       6.921   6.213  18.442  0.00  0.00    +0.000 C 
ATOM     21  C   UNL     1       6.465   5.197  19.471  0.00  0.00    +0.000 C 
ENDBRANCH  19  21
ENDBRANCH   1  19
BRANCH   3  22
ATOM     22  C   UNL     1       2.633   2.292  21.590  0.00  0.00    +0.000 C 
BRANCH  22  23
ATOM     23  O   UNL     1       1.515   2.768  22.345  0.00  0.00    +0.000 OA
ATOM     24  H   UNL     1       1.837   2.853  23.261  0.00  0.00    +0.000 HD
ENDBRANCH  22  23
ENDBRANCH   3  22
TORSDOF 8
ENDMDL
MODEL 7
REMARK VINA RESULT:      -5.9      1.804      1.909
REMARK  Name = 
REMARK  10 active torsions:
REMARK  status: ('A' for Active; 'I' for Inactive)
REMARK    1  A    between atoms: C_1  and  C_2
REMARK    2  A    between atoms: C_2  and  O_3
REMARK    3  A    between atoms: O_3  and  C_4
REMARK    4  A    between atoms: C_6  and  C_7
REMARK    5  A    between atoms: C_7  and  O_8
REMARK    6  A    between atoms: C_9  and  O_10
REMARK    7  A    between atoms: C_11  and  O_12
REMARK    8  A    between atoms: C_13  and  N_14
REMARK    9  A    between atoms: N_17  and  C_18
REMARK   10  A    between atoms: N_17  and  N_19
REMARK                            x       y       z     vdW  Elec       q    Type
REMARK                         _______ _______ _______ _____ _____    ______ ____
ROOT
ATOM      1  C   UNL     1       3.189   5.074  19.763  0.00  0.00    +0.000 C 
ATOM      2  O   UNL     1       2.641   4.308  20.825  0.00  0.00    +0.000 OA
ATOM      3  C   UNL     1       1.687   3.334  20.377  0.00  0.00    +0.000 C 
ATOM      4  C   UNL     1       2.287   2.347  19.373  0.00  0.00    +0.000 C 
ATOM      5  C   UNL     1       3.127   3.014  18.262  0.00  0.00    +0.000 C 
ATOM      6  C   UNL     1       3.993   4.190  18.775  0.00  0.00    +0.000 C 
ENDROOT
BRANCH   6   7
ATOM      7  N   UNL     1       4.530   5.053  17.691  0.00  0.00    +0.000 N 
ATOM      8  C   UNL     1       5.605   5.897  17.811  0.00  0.00    +0.000 C 
ATOM      9  O   UNL     1       6.222   5.925  18.882  0.00  0.00    +0.000 OA
ATOM     10  N   UNL     1       5.921   6.670  16.701  0.00  0.00    +0.000 N 
ATOM     11  C   UNL     1       5.229   6.720  15.417  0.00  0.00    +0.000 C 
ATOM     12  H   UNL     1       4.070   4.938  16.805  0.00  0.00    +0.000 HD
BRANCH  10  13
ATOM     13  N   UNL     1       7.025   7.530  16.880  0.00  0.00    +0.000 NA
ATOM     14  O   UNL     1       8.099   7.072  16.468  0.00  0.00    +0.000 OA
ENDBRANCH  10  13
ENDBRANCH   6   7
BRANCH   4  15
ATOM     15  O   UNL     1       1.220   1.562  18.805  0.00  0.00    +0.000 OA
ATOM     16  H   UNL     1       0.599   2.162  18.361  0.00  0.00    +0.000 HD
ENDBRANCH   4  15
BRANCH   5  17
ATOM     17  O   UNL     1       3.944   1.965  17.707  0.00  0.00    +0.000 OA
ATOM     18  H   UNL     1       4.783   1.909  18.216  0.00  0.00    +0.000 HD
ENDBRANCH   5  17
BRANCH   1  19
ATOM     19  O   UNL     1       2.189   5.834  19.059  0.00  0.00    +0.000 OA
BRANCH  19  21
ATOM     20  C   UNL     1       1.669   7.645  20.573  0.00  0.00    +0.000 C 
ATOM     21  C   UNL     1       2.349   7.241  19.280  0.00  0.00    +0.000 C 
ENDBRANCH  19  21
ENDBRANCH   1  19
BRANCH   3  22
ATOM     22  C   UNL     1       1.205   2.594  21.634  0.00  0.00    +0.000 C 
BRANCH  22  23
ATOM     23  O   UNL     1       2.333   2.091  22.354  0.00  0.00    +0.000 OA
ATOM     24  H   UNL     1       2.068   2.102  23.293  0.00  0.00    +0.000 HD
ENDBRANCH  22  23
ENDBRANCH   3  22
TORSDOF 8
ENDMDL
MODEL 8
REMARK VINA RESULT:      -5.8      1.440      1.482
REMARK  Name = 
REMARK  10 active torsions:
REMARK  status: ('A' for Active; 'I' for Inactive)
REMARK    1  A    between atoms: C_1  and  C_2
REMARK    2  A    between atoms: C_2  and  O_3
REMARK    3  A    between atoms: O_3  and  C_4
REMARK    4  A    between atoms: C_6  and  C_7
REMARK    5  A    between atoms: C_7  and  O_8
REMARK    6  A    between atoms: C_9  and  O_10
REMARK    7  A    between atoms: C_11  and  O_12
REMARK    8  A    between atoms: C_13  and  N_14
REMARK    9  A    between atoms: N_17  and  C_18
REMARK   10  A    between atoms: N_17  and  N_19
REMARK                            x       y       z     vdW  Elec       q    Type
REMARK                         _______ _______ _______ _____ _____    ______ ____
ROOT
ATOM      1  C   UNL     1       3.810   4.670  19.555  0.00  0.00    +0.000 C 
ATOM      2  O   UNL     1       2.929   4.209  20.567  0.00  0.00    +0.000 OA
ATOM      3  C   UNL     1       1.871   3.386  20.055  0.00  0.00    +0.000 C 
ATOM      4  C   UNL     1       2.396   2.151  19.318  0.00  0.00    +0.000 C 
ATOM      5  C   UNL     1       3.543   2.450  18.329  0.00  0.00    +0.000 C 
ATOM      6  C   UNL     1       4.552   3.496  18.863  0.00  0.00    +0.000 C 
ENDROOT
BRANCH   6   7
ATOM      7  N   UNL     1       5.448   4.050  17.815  0.00  0.00    +0.000 N 
ATOM      8  C   UNL     1       5.165   4.089  16.473  0.00  0.00    +0.000 C 
ATOM      9  O   UNL     1       4.064   3.681  16.085  0.00  0.00    +0.000 OA
ATOM     10  N   UNL     1       6.155   4.591  15.639  0.00  0.00    +0.000 N 
ATOM     11  C   UNL     1       7.486   5.061  16.009  0.00  0.00    +0.000 C 
ATOM     12  H   UNL     1       6.294   4.461  18.169  0.00  0.00    +0.000 HD
BRANCH  10  13
ATOM     13  N   UNL     1       5.821   4.598  14.268  0.00  0.00    +0.000 NA
ATOM     14  O   UNL     1       6.370   3.706  13.607  0.00  0.00    +0.000 OA
ENDBRANCH  10  13
ENDBRANCH   6   7
BRANCH   4  15
ATOM     15  O   UNL     1       1.292   1.514  18.643  0.00  0.00    +0.000 OA
ATOM     16  H   UNL     1       1.459   1.541  17.688  0.00  0.00    +0.000 HD
ENDBRANCH   4  15
BRANCH   5  17
ATOM     17  O   UNL     1       4.185   1.184  18.080  0.00  0.00    +0.000 OA
ATOM     18  H   UNL     1       4.549   1.184  17.167  0.00  0.00    +0.000 HD
ENDBRANCH   5  17
BRANCH   1  19
ATOM     19  O   UNL     1       3.145   5.492  18.578  0.00  0.00    +0.000 OA
BRANCH  19  21
ATOM     20  C   UNL     1       2.519   7.760  18.026  0.00  0.00    +0.000 C 
ATOM     21  C   UNL     1       2.751   6.752  19.134  0.00  0.00    +0.000 C 
ENDBRANCH  19  21
ENDBRANCH   1  19
BRANCH   3  22
ATOM     22  C   UNL     1       1.025   2.968  21.267  0.00  0.00    +0.000 C 
BRANCH  22  23
ATOM     23  O   UNL     1       1.887   2.551  22.330  0.00  0.00    +0.000 OA
ATOM     24  H   UNL     1       1.372   1.899  22.841  0.00  0.00    +0.000 HD
ENDBRANCH  22  23
ENDBRANCH   3  22
TORSDOF 8
ENDMDL
MODEL 9
REMARK VINA RESULT:      -5.5      2.512      6.408
REMARK  Name = 
REMARK  10 active torsions:
REMARK  status: ('A' for Active; 'I' for Inactive)
REMARK    1  A    between atoms: C_1  and  C_2
REMARK    2  A    between atoms: C_2  and  O_3
REMARK    3  A    between atoms: O_3  and  C_4
REMARK    4  A    between atoms: C_6  and  C_7
REMARK    5  A    between atoms: C_7  and  O_8
REMARK    6  A    between atoms: C_9  and  O_10
REMARK    7  A    between atoms: C_11  and  O_12
REMARK    8  A    between atoms: C_13  and  N_14
REMARK    9  A    between atoms: N_17  and  C_18
REMARK   10  A    between atoms: N_17  and  N_19
REMARK                            x       y       z     vdW  Elec       q    Type
REMARK                         _______ _______ _______ _____ _____    ______ ____
ROOT
ATOM      1  C   UNL     1       4.563   3.605  17.252  0.00  0.00    +0.000 C 
ATOM      2  O   UNL     1       5.566   3.536  16.250  0.00  0.00    +0.000 OA
ATOM      3  C   UNL     1       5.441   4.569  15.262  0.00  0.00    +0.000 C 
ATOM      4  C   UNL     1       5.510   5.971  15.872  0.00  0.00    +0.000 C 
ATOM      5  C   UNL     1       4.640   6.151  17.135  0.00  0.00    +0.000 C 
ATOM      6  C   UNL     1       4.662   4.918  18.071  0.00  0.00    +0.000 C 
ENDROOT
BRANCH   6   7
ATOM      7  N   UNL     1       3.583   4.926  19.092  0.00  0.00    +0.000 N 
ATOM      8  C   UNL     1       3.529   4.106  20.191  0.00  0.00    +0.000 C 
ATOM      9  O   UNL     1       4.464   3.323  20.396  0.00  0.00    +0.000 OA
ATOM     10  N   UNL     1       2.408   4.220  21.003  0.00  0.00    +0.000 N 
ATOM     11  C   UNL     1       1.251   5.091  20.817  0.00  0.00    +0.000 C 
ATOM     12  H   UNL     1       2.887   5.637  18.954  0.00  0.00    +0.000 HD
BRANCH  10  13
ATOM     13  N   UNL     1       2.394   3.346  22.111  0.00  0.00    +0.000 NA
ATOM     14  O   UNL     1       1.458   2.535  22.106  0.00  0.00    +0.000 OA
ENDBRANCH  10  13
ENDBRANCH   6   7
BRANCH   4  15
ATOM     15  O   UNL     1       5.146   6.931  14.860  0.00  0.00    +0.000 OA
ATOM     16  H   UNL     1       5.346   7.821  15.193  0.00  0.00    +0.000 HD
ENDBRANCH   4  15
BRANCH   5  17
ATOM     17  O   UNL     1       5.152   7.322  17.799  0.00  0.00    +0.000 OA
ATOM     18  H   UNL     1       6.129   7.344  17.702  0.00  0.00    +0.000 HD
ENDBRANCH   5  17
BRANCH   1  19
ATOM     19  O   UNL     1       3.237   3.444  16.716  0.00  0.00    +0.000 OA
BRANCH  19  21
ATOM     20  C   UNL     1       3.513   1.398  17.973  0.00  0.00    +0.000 C 
ATOM     21  C   UNL     1       2.530   2.386  17.376  0.00  0.00    +0.000 C 
ENDBRANCH  19  21
ENDBRANCH   1  19
BRANCH   3  22
ATOM     22  C   UNL     1       6.595   4.358  14.270  0.00  0.00    +0.000 C 
BRANCH  22  23
ATOM     23  O   UNL     1       7.598   5.354  14.485  0.00  0.00    +0.000 OA
ATOM     24  H   UNL     1       7.469   6.011  13.776  0.00  0.00    +0.000 HD
ENDBRANCH  22  23
ENDBRANCH   3  22
TORSDOF 8
ENDMDL
