MODEL 1
REMARK VINA RESULT:      -8.2      0.000      0.000
REMARK  Name = 
REMARK  6 active torsions:
REMARK  status: ('A' for Active; 'I' for Inactive)
REMARK    1  A    between atoms: C_2  and  C_3
REMARK    2  A    between atoms: C_4  and  C_5
REMARK    3  A    between atoms: N_10  and  C_11
REMARK    4  A    between atoms: C_14  and  O_15
REMARK    5  A    between atoms: C_16  and  N_17
REMARK    6  A    between atoms: C_18  and  C_20
REMARK                            x       y       z     vdW  Elec       q    Type
REMARK                         _______ _______ _______ _____ _____    ______ ____
ROOT
ATOM      1  C   UNL     1       6.811   6.557  16.731  0.00  0.00    +0.000 A 
ATOM      2  C   UNL     1       7.284   5.898  15.602  0.00  0.00    +0.000 A 
ATOM      3  C   UNL     1       6.876   4.603  15.330  0.00  0.00    +0.000 A 
ATOM      4  C   UNL     1       5.985   3.926  16.184  0.00  0.00    +0.000 A 
ATOM      5  C   UNL     1       5.480   4.577  17.362  0.00  0.00    +0.000 A 
ATOM      6  C   UNL     1       5.926   5.902  17.603  0.00  0.00    +0.000 A 
ENDROOT
BRANCH   1   9
ATOM      7  O   UNL     1       8.513   7.293  18.738  0.00  0.00    +0.000 OA
ATOM      8  C   UNL     1       8.073   8.183  18.021  0.00  0.00    +0.000 C 
ATOM      9  N   UNL     1       7.237   7.885  16.990  0.00  0.00    +0.000 N 
ATOM     10  H   UNL     1       6.850   8.643  16.407  0.00  0.00    +0.000 HD
BRANCH   8  11
ATOM     11  C   UNL     1       8.438   9.597  18.283  0.00  0.00    +0.000 C 
ATOM     12  C   UNL     1       9.360   9.957  19.192  0.00  0.00    +0.000 C 
BRANCH  12  13
ATOM     13  C   UNL     1       9.688  11.376  19.415  0.00  0.00    +0.000 A 
ATOM     14  C   UNL     1      10.163  11.922  20.591  0.00  0.00    +0.000 A 
ATOM     15  C   UNL     1      10.323  13.267  20.342  0.00  0.00    +0.000 A 
ATOM     16  C   UNL     1       9.934  13.465  19.032  0.00  0.00    +0.000 A 
ATOM     17  O   UNL     1       9.560  12.320  18.505  0.00  0.00    +0.000 OA
ENDBRANCH  12  13
ENDBRANCH   8  11
ENDBRANCH   1   9
BRANCH   5  18
ATOM     18  N   UNL     1       4.569   4.013  18.345  0.00  0.00    +0.000 N 
ATOM     19  C   UNL     1       3.312   3.489  18.167  0.00  0.00    +0.000 C 
ATOM     20  O   UNL     1       2.773   3.470  17.080  0.00  0.00    +0.000 OA
ATOM     21  H   UNL     1       4.913   3.999  19.317  0.00  0.00    +0.000 HD
BRANCH  19  22
ATOM     22  C   UNL     1       2.518   2.900  19.313  0.00  0.00    +0.000 C 
ATOM     23  C   UNL     1       1.309   3.699  19.773  0.00  0.00    +0.000 C 
ATOM     24  C   UNL     1       0.969   2.896  21.010  0.00  0.00    +0.000 C 
ATOM     25  C   UNL     1       2.352   2.712  21.632  0.00  0.00    +0.000 C 
ATOM     26  N   UNL     1       3.322   2.701  20.521  0.00  0.00    +0.000 NA
ATOM     27  H   UNL     1       3.846   1.798  20.471  0.00  0.00    +0.000 HD
ENDBRANCH  19  22
ENDBRANCH   5  18
BRANCH   4  28
ATOM     28  O   UNL     1       5.657   2.669  15.840  0.00  0.00    +0.000 OA
ATOM     29  H   UNL     1       5.023   2.459  15.140  0.00  0.00    +0.000 HD
ENDBRANCH   4  28
TORSDOF 6
ENDMDL
MODEL 2
REMARK VINA RESULT:      -8.0      1.070      1.233
REMARK  Name = 
REMARK  6 active torsions:
REMARK  status: ('A' for Active; 'I' for Inactive)
REMARK    1  A    between atoms: C_2  and  C_3
REMARK    2  A    between atoms: C_4  and  C_5
REMARK    3  A    between atoms: N_10  and  C_11
REMARK    4  A    between atoms: C_14  and  O_15
REMARK    5  A    between atoms: C_16  and  N_17
REMARK    6  A    between atoms: C_18  and  C_20
REMARK                            x       y       z     vdW  Elec       q    Type
REMARK                         _______ _______ _______ _____ _____    ______ ____
ROOT
ATOM      1  C   UNL     1       6.868   6.794  16.893  0.00  0.00    +0.000 A 
ATOM      2  C   UNL     1       7.407   5.940  15.938  0.00  0.00    +0.000 A 
ATOM      3  C   UNL     1       6.866   4.679  15.748  0.00  0.00    +0.000 A 
ATOM      4  C   UNL     1       5.771   4.234  16.512  0.00  0.00    +0.000 A 
ATOM      5  C   UNL     1       5.192   5.092  17.511  0.00  0.00    +0.000 A 
ATOM      6  C   UNL     1       5.779   6.373  17.673  0.00  0.00    +0.000 A 
ENDROOT
BRANCH   1   9
ATOM      7  O   UNL     1       8.563   7.497  18.918  0.00  0.00    +0.000 OA
ATOM      8  C   UNL     1       8.256   8.369  18.115  0.00  0.00    +0.000 C 
ATOM      9  N   UNL     1       7.433   8.083  17.070  0.00  0.00    +0.000 N 
ATOM     10  H   UNL     1       7.159   8.830  16.413  0.00  0.00    +0.000 HD
BRANCH   8  11
ATOM     11  C   UNL     1       8.771   9.750  18.286  0.00  0.00    +0.000 C 
ATOM     12  C   UNL     1       9.277  10.204  19.445  0.00  0.00    +0.000 C 
BRANCH  12  13
ATOM     13  C   UNL     1       9.776  11.585  19.563  0.00  0.00    +0.000 A 
ATOM     14  C   UNL     1      11.004  11.961  20.073  0.00  0.00    +0.000 A 
ATOM     15  C   UNL     1      11.037  13.335  19.991  0.00  0.00    +0.000 A 
ATOM     16  C   UNL     1       9.830  13.718  19.442  0.00  0.00    +0.000 A 
ATOM     17  O   UNL     1       9.099  12.654  19.198  0.00  0.00    +0.000 OA
ENDBRANCH  12  13
ENDBRANCH   8  11
ENDBRANCH   1   9
BRANCH   5  18
ATOM     18  N   UNL     1       4.074   4.777  18.385  0.00  0.00    +0.000 N 
ATOM     19  C   UNL     1       4.022   3.922  19.459  0.00  0.00    +0.000 C 
ATOM     20  O   UNL     1       4.980   3.261  19.799  0.00  0.00    +0.000 OA
ATOM     21  H   UNL     1       3.190   5.266  18.175  0.00  0.00    +0.000 HD
BRANCH  19  22
ATOM     22  C   UNL     1       2.768   3.751  20.289  0.00  0.00    +0.000 C 
ATOM     23  C   UNL     1       2.758   2.579  21.257  0.00  0.00    +0.000 C 
ATOM     24  C   UNL     1       1.309   2.659  21.688  0.00  0.00    +0.000 C 
ATOM     25  C   UNL     1       0.612   2.863  20.344  0.00  0.00    +0.000 C 
ATOM     26  N   UNL     1       1.563   3.580  19.474  0.00  0.00    +0.000 NA
ATOM     27  H   UNL     1       1.189   4.507  19.169  0.00  0.00    +0.000 HD
ENDBRANCH  19  22
ENDBRANCH   5  18
BRANCH   4  28
ATOM     28  O   UNL     1       5.324   2.992  16.260  0.00  0.00    +0.000 OA
ATOM     29  H   UNL     1       5.909   2.251  16.049  0.00  0.00    +0.000 HD
ENDBRANCH   4  28
TORSDOF 6
ENDMDL
MODEL 3
REMARK VINA RESULT:      -7.6      1.094      1.119
REMARK  Name = 
REMARK  6 active torsions:
REMARK  status: ('A' for Active; 'I' for Inactive)
REMARK    1  A    between atoms: C_2  and  C_3
REMARK    2  A    between atoms: C_4  and  C_5
REMARK    3  A    between atoms: N_10  and  C_11
REMARK    4  A    between atoms: C_14  and  O_15
REMARK    5  A    between atoms: C_16  and  N_17
REMARK    6  A    between atoms: C_18  and  C_20
REMARK                            x       y       z     vdW  Elec       q    Type
REMARK                         _______ _______ _______ _____ _____    ______ ____
ROOT
ATOM      1  C   UNL     1       7.509   6.295  17.972  0.00  0.00    +0.000 A 
ATOM      2  C   UNL     1       7.776   5.957  16.650  0.00  0.00    +0.000 A 
ATOM      3  C   UNL     1       7.048   4.957  16.027  0.00  0.00    +0.000 A 
ATOM      4  C   UNL     1       6.033   4.262  16.711  0.00  0.00    +0.000 A 
ATOM      5  C   UNL     1       5.735   4.584  18.081  0.00  0.00    +0.000 A 
ATOM      6  C   UNL     1       6.506   5.613  18.679  0.00  0.00    +0.000 A 
ENDROOT
BRANCH   1   9
ATOM      7  O   UNL     1       7.410   8.937  17.283  0.00  0.00    +0.000 OA
ATOM      8  C   UNL     1       8.178   8.621  18.182  0.00  0.00    +0.000 C 
ATOM      9  N   UNL     1       8.262   7.325  18.590  0.00  0.00    +0.000 N 
ATOM     10  H   UNL     1       8.931   7.064  19.331  0.00  0.00    +0.000 HD
BRANCH   8  11
ATOM     11  C   UNL     1       9.034   9.649  18.824  0.00  0.00    +0.000 C 
ATOM     12  C   UNL     1       9.289  10.843  18.263  0.00  0.00    +0.000 C 
BRANCH  12  13
ATOM     13  C   UNL     1      10.146  11.830  18.942  0.00  0.00    +0.000 A 
ATOM     14  C   UNL     1      11.458  11.634  19.328  0.00  0.00    +0.000 A 
ATOM     15  C   UNL     1      11.853  12.813  19.920  0.00  0.00    +0.000 A 
ATOM     16  C   UNL     1      10.761  13.656  19.866  0.00  0.00    +0.000 A 
ATOM     17  O   UNL     1       9.759  13.043  19.278  0.00  0.00    +0.000 OA
ENDBRANCH  12  13
ENDBRANCH   8  11
ENDBRANCH   1   9
BRANCH   5  18
ATOM     18  N   UNL     1       4.732   3.954  18.924  0.00  0.00    +0.000 N 
ATOM     19  C   UNL     1       3.390   3.769  18.692  0.00  0.00    +0.000 C 
ATOM     20  O   UNL     1       2.851   4.177  17.684  0.00  0.00    +0.000 OA
ATOM     21  H   UNL     1       5.073   3.588  19.826  0.00  0.00    +0.000 HD
BRANCH  19  22
ATOM     22  C   UNL     1       2.499   3.045  19.677  0.00  0.00    +0.000 C 
ATOM     23  C   UNL     1       1.313   3.831  20.214  0.00  0.00    +0.000 C 
ATOM     24  C   UNL     1       0.855   2.850  21.271  0.00  0.00    +0.000 C 
ATOM     25  C   UNL     1       2.187   2.466  21.915  0.00  0.00    +0.000 C 
ATOM     26  N   UNL     1       3.218   2.584  20.867  0.00  0.00    +0.000 NA
ATOM     27  H   UNL     1       3.690   1.670  20.681  0.00  0.00    +0.000 HD
ENDBRANCH  19  22
ENDBRANCH   5  18
BRANCH   4  28
ATOM     28  O   UNL     1       5.390   3.302  16.025  0.00  0.00    +0.000 OA
ATOM     29  H   UNL     1       5.344   3.281  15.058  0.00  0.00    +0.000 HD
ENDBRANCH   4  28
TORSDOF 6
ENDMDL
MODEL 4
REMARK VINA RESULT:      -7.5      1.497      1.637
REMARK  Name = 
REMARK  6 active torsions:
REMARK  status: ('A' for Active; 'I' for Inactive)
REMARK    1  A    between atoms: C_2  and  C_3
REMARK    2  A    between atoms: C_4  and  C_5
REMARK    3  A    between atoms: N_10  and  C_11
REMARK    4  A    between atoms: C_14  and  O_15
REMARK    5  A    between atoms: C_16  and  N_17
REMARK    6  A    between atoms: C_18  and  C_20
REMARK                            x       y       z     vdW  Elec       q    Type
REMARK                         _______ _______ _______ _____ _____    ______ ____
ROOT
ATOM      1  C   UNL     1       7.498   6.329  18.113  0.00  0.00    +0.000 A 
ATOM      2  C   UNL     1       7.780   5.829  16.847  0.00  0.00    +0.000 A 
ATOM      3  C   UNL     1       7.011   4.806  16.317  0.00  0.00    +0.000 A 
ATOM      4  C   UNL     1       5.938   4.252  17.040  0.00  0.00    +0.000 A 
ATOM      5  C   UNL     1       5.623   4.744  18.354  0.00  0.00    +0.000 A 
ATOM      6  C   UNL     1       6.438   5.790  18.859  0.00  0.00    +0.000 A 
ENDROOT
BRANCH   1   9
ATOM      7  O   UNL     1       7.374   8.939  17.312  0.00  0.00    +0.000 OA
ATOM      8  C   UNL     1       8.194   8.656  18.177  0.00  0.00    +0.000 C 
ATOM      9  N   UNL     1       8.294   7.380  18.638  0.00  0.00    +0.000 N 
ATOM     10  H   UNL     1       9.005   7.146  19.348  0.00  0.00    +0.000 HD
BRANCH   8  11
ATOM     11  C   UNL     1       9.094   9.704  18.718  0.00  0.00    +0.000 C 
ATOM     12  C   UNL     1       9.123  10.960  18.241  0.00  0.00    +0.000 C 
BRANCH  12  13
ATOM     13  C   UNL     1      10.036  11.965  18.814  0.00  0.00    +0.000 A 
ATOM     14  C   UNL     1      10.932  11.752  19.843  0.00  0.00    +0.000 A 
ATOM     15  C   UNL     1      11.563  12.958  20.045  0.00  0.00    +0.000 A 
ATOM     16  C   UNL     1      11.015  13.838  19.133  0.00  0.00    +0.000 A 
ATOM     17  O   UNL     1      10.107  13.218  18.413  0.00  0.00    +0.000 OA
ENDBRANCH  12  13
ENDBRANCH   8  11
ENDBRANCH   1   9
BRANCH   5  18
ATOM     18  N   UNL     1       4.562   4.271  19.229  0.00  0.00    +0.000 N 
ATOM     19  C   UNL     1       3.448   4.934  19.683  0.00  0.00    +0.000 C 
ATOM     20  O   UNL     1       3.231   6.094  19.401  0.00  0.00    +0.000 OA
ATOM     21  H   UNL     1       4.653   3.297  19.555  0.00  0.00    +0.000 HD
BRANCH  19  22
ATOM     22  C   UNL     1       2.417   4.260  20.563  0.00  0.00    +0.000 C 
ATOM     23  C   UNL     1       2.839   2.949  21.208  0.00  0.00    +0.000 C 
ATOM     24  C   UNL     1       1.499   2.544  21.784  0.00  0.00    +0.000 C 
ATOM     25  C   UNL     1       0.570   2.837  20.607  0.00  0.00    +0.000 C 
ATOM     26  N   UNL     1       1.175   3.950  19.853  0.00  0.00    +0.000 NA
ATOM     27  H   UNL     1       0.548   4.787  19.825  0.00  0.00    +0.000 HD
ENDBRANCH  19  22
ENDBRANCH   5  18
BRANCH   4  28
ATOM     28  O   UNL     1       5.258   3.257  16.445  0.00  0.00    +0.000 OA
ATOM     29  H   UNL     1       4.921   2.486  16.921  0.00  0.00    +0.000 HD
ENDBRANCH   4  28
TORSDOF 6
ENDMDL
MODEL 5
REMARK VINA RESULT:      -7.4      1.119      1.340
REMARK  Name = 
REMARK  6 active torsions:
REMARK  status: ('A' for Active; 'I' for Inactive)
REMARK    1  A    between atoms: C_2  and  C_3
REMARK    2  A    between atoms: C_4  and  C_5
REMARK    3  A    between atoms: N_10  and  C_11
REMARK    4  A    between atoms: C_14  and  O_15
REMARK    5  A    between atoms: C_16  and  N_17
REMARK    6  A    between atoms: C_18  and  C_20
REMARK                            x       y       z     vdW  Elec       q    Type
REMARK                         _______ _______ _______ _____ _____    ______ ____
ROOT
ATOM      1  C   UNL     1       6.887   6.600  16.745  0.00  0.00    +0.000 A 
ATOM      2  C   UNL     1       7.553   5.937  15.721  0.00  0.00    +0.000 A 
ATOM      3  C   UNL     1       7.142   4.673  15.328  0.00  0.00    +0.000 A 
ATOM      4  C   UNL     1       6.055   4.034  15.953  0.00  0.00    +0.000 A 
ATOM      5  C   UNL     1       5.348   4.691  17.019  0.00  0.00    +0.000 A 
ATOM      6  C   UNL     1       5.803   5.982  17.390  0.00  0.00    +0.000 A 
ENDROOT
BRANCH   1   9
ATOM      7  O   UNL     1       8.529   7.139  18.861  0.00  0.00    +0.000 OA
ATOM      8  C   UNL     1       8.124   8.093  18.209  0.00  0.00    +0.000 C 
ATOM      9  N   UNL     1       7.320   7.895  17.130  0.00  0.00    +0.000 N 
ATOM     10  H   UNL     1       6.962   8.706  16.601  0.00  0.00    +0.000 HD
BRANCH   8  11
ATOM     11  C   UNL     1       8.496   9.474  18.603  0.00  0.00    +0.000 C 
ATOM     12  C   UNL     1       9.018  10.364  17.741  0.00  0.00    +0.000 C 
BRANCH  12  13
ATOM     13  C   UNL     1       9.371  11.725  18.181  0.00  0.00    +0.000 A 
ATOM     14  C   UNL     1       8.780  12.895  17.747  0.00  0.00    +0.000 A 
ATOM     15  C   UNL     1       9.424  13.910  18.417  0.00  0.00    +0.000 A 
ATOM     16  C   UNL     1      10.371  13.304  19.218  0.00  0.00    +0.000 A 
ATOM     17  O   UNL     1      10.317  12.001  19.056  0.00  0.00    +0.000 OA
ENDBRANCH  12  13
ENDBRANCH   8  11
ENDBRANCH   1   9
BRANCH   5  18
ATOM     18  N   UNL     1       4.220   4.163  17.770  0.00  0.00    +0.000 N 
ATOM     19  C   UNL     1       4.211   3.475  18.959  0.00  0.00    +0.000 C 
ATOM     20  O   UNL     1       5.236   3.186  19.541  0.00  0.00    +0.000 OA
ATOM     21  H   UNL     1       3.290   4.329  17.356  0.00  0.00    +0.000 HD
BRANCH  19  22
ATOM     22  C   UNL     1       2.924   3.036  19.622  0.00  0.00    +0.000 C 
ATOM     23  C   UNL     1       1.687   3.011  18.738  0.00  0.00    +0.000 C 
ATOM     24  C   UNL     1       0.653   2.742  19.809  0.00  0.00    +0.000 C 
ATOM     25  C   UNL     1       1.095   3.718  20.898  0.00  0.00    +0.000 C 
ATOM     26  N   UNL     1       2.555   3.874  20.765  0.00  0.00    +0.000 NA
ATOM     27  H   UNL     1       3.059   3.565  21.627  0.00  0.00    +0.000 HD
ENDBRANCH  19  22
ENDBRANCH   5  18
BRANCH   4  28
ATOM     28  O   UNL     1       5.740   2.805  15.509  0.00  0.00    +0.000 OA
ATOM     29  H   UNL     1       4.883   2.387  15.670  0.00  0.00    +0.000 HD
ENDBRANCH   4  28
TORSDOF 6
ENDMDL
MODEL 6
REMARK VINA RESULT:      -7.3      5.036      7.089
REMARK  Name = 
REMARK  6 active torsions:
REMARK  status: ('A' for Active; 'I' for Inactive)
REMARK    1  A    between atoms: C_2  and  C_3
REMARK    2  A    between atoms: C_4  and  C_5
REMARK    3  A    between atoms: N_10  and  C_11
REMARK    4  A    between atoms: C_14  and  O_15
REMARK    5  A    between atoms: C_16  and  N_17
REMARK    6  A    between atoms: C_18  and  C_20
REMARK                            x       y       z     vdW  Elec       q    Type
REMARK                         _______ _______ _______ _____ _____    ______ ____
ROOT
ATOM      1  C   UNL     1       3.917   3.617  18.850  0.00  0.00    +0.000 A 
ATOM      2  C   UNL     1       3.974   2.414  19.545  0.00  0.00    +0.000 A 
ATOM      3  C   UNL     1       3.287   2.268  20.739  0.00  0.00    +0.000 A 
ATOM      4  C   UNL     1       2.525   3.323  21.274  0.00  0.00    +0.000 A 
ATOM      5  C   UNL     1       2.449   4.581  20.583  0.00  0.00    +0.000 A 
ATOM      6  C   UNL     1       3.170   4.688  19.365  0.00  0.00    +0.000 A 
ENDROOT
BRANCH   1   9
ATOM      7  O   UNL     1       6.513   4.436  18.620  0.00  0.00    +0.000 OA
ATOM      8  C   UNL     1       5.912   4.179  17.584  0.00  0.00    +0.000 C 
ATOM      9  N   UNL     1       4.623   3.746  17.627  0.00  0.00    +0.000 N 
ATOM     10  H   UNL     1       4.117   3.557  16.748  0.00  0.00    +0.000 HD
BRANCH   8  11
ATOM     11  C   UNL     1       6.584   4.354  16.273  0.00  0.00    +0.000 C 
ATOM     12  C   UNL     1       5.925   4.311  15.102  0.00  0.00    +0.000 C 
BRANCH  12  13
ATOM     13  C   UNL     1       6.638   4.491  13.826  0.00  0.00    +0.000 A 
ATOM     14  C   UNL     1       6.465   3.729  12.687  0.00  0.00    +0.000 A 
ATOM     15  C   UNL     1       7.332   4.249  11.753  0.00  0.00    +0.000 A 
ATOM     16  C   UNL     1       7.986   5.294  12.374  0.00  0.00    +0.000 A 
ATOM     17  O   UNL     1       7.553   5.414  13.609  0.00  0.00    +0.000 OA
ENDBRANCH  12  13
ENDBRANCH   8  11
ENDBRANCH   1   9
BRANCH   5  18
ATOM     18  N   UNL     1       1.720   5.765  21.008  0.00  0.00    +0.000 N 
ATOM     19  C   UNL     1       1.773   7.045  20.513  0.00  0.00    +0.000 C 
ATOM     20  O   UNL     1       2.523   7.353  19.610  0.00  0.00    +0.000 OA
ATOM     21  H   UNL     1       1.065   5.628  21.793  0.00  0.00    +0.000 HD
BRANCH  19  22
ATOM     22  C   UNL     1       0.900   8.154  21.060  0.00  0.00    +0.000 C 
ATOM     23  C   UNL     1       0.540   9.266  20.088  0.00  0.00    +0.000 C 
ATOM     24  C   UNL     1      -0.119  10.213  21.067  0.00  0.00    +0.000 C 
ATOM     25  C   UNL     1       0.871  10.171  22.231  0.00  0.00    +0.000 C 
ATOM     26  N   UNL     1       1.496   8.835  22.211  0.00  0.00    +0.000 NA
ATOM     27  H   UNL     1       1.307   8.304  23.091  0.00  0.00    +0.000 HD
ENDBRANCH  19  22
ENDBRANCH   5  18
BRANCH   4  28
ATOM     28  O   UNL     1       1.904   3.087  22.443  0.00  0.00    +0.000 OA
ATOM     29  H   UNL     1       2.313   2.600  23.172  0.00  0.00    +0.000 HD
ENDBRANCH   4  28
TORSDOF 6
ENDMDL
MODEL 7
REMARK VINA RESULT:      -7.3      4.799      7.510
REMARK  Name = 
REMARK  6 active torsions:
REMARK  status: ('A' for Active; 'I' for Inactive)
REMARK    1  A    between atoms: C_2  and  C_3
REMARK    2  A    between atoms: C_4  and  C_5
REMARK    3  A    between atoms: N_10  and  C_11
REMARK    4  A    between atoms: C_14  and  O_15
REMARK    5  A    between atoms: C_16  and  N_17
REMARK    6  A    between atoms: C_18  and  C_20
REMARK                            x       y       z     vdW  Elec       q    Type
REMARK                         _______ _______ _______ _____ _____    ______ ____
ROOT
ATOM      1  C   UNL     1       1.675   4.912  20.296  0.00  0.00    +0.000 A 
ATOM      2  C   UNL     1       1.182   3.697  20.758  0.00  0.00    +0.000 A 
ATOM      3  C   UNL     1       1.618   2.510  20.192  0.00  0.00    +0.000 A 
ATOM      4  C   UNL     1       2.557   2.505  19.144  0.00  0.00    +0.000 A 
ATOM      5  C   UNL     1       3.083   3.744  18.640  0.00  0.00    +0.000 A 
ATOM      6  C   UNL     1       2.608   4.936  19.247  0.00  0.00    +0.000 A 
ENDROOT
BRANCH   1   9
ATOM      7  O   UNL     1       2.484   7.420  19.571  0.00  0.00    +0.000 OA
ATOM      8  C   UNL     1       1.682   7.334  20.492  0.00  0.00    +0.000 C 
ATOM      9  N   UNL     1       1.221   6.117  20.891  0.00  0.00    +0.000 N 
ATOM     10  H   UNL     1       0.564   6.052  21.684  0.00  0.00    +0.000 HD
BRANCH   8  11
ATOM     11  C   UNL     1       1.218   8.558  21.190  0.00  0.00    +0.000 C 
ATOM     12  C   UNL     1       0.036   9.144  20.931  0.00  0.00    +0.000 C 
BRANCH  12  13
ATOM     13  C   UNL     1      -0.379  10.359  21.653  0.00  0.00    +0.000 A 
ATOM     14  C   UNL     1      -0.916  10.402  22.925  0.00  0.00    +0.000 A 
ATOM     15  C   UNL     1      -1.152  11.733  23.186  0.00  0.00    +0.000 A 
ATOM     16  C   UNL     1      -0.751  12.424  22.061  0.00  0.00    +0.000 A 
ATOM     17  O   UNL     1      -0.295  11.579  21.163  0.00  0.00    +0.000 OA
ENDBRANCH  12  13
ENDBRANCH   8  11
ENDBRANCH   1   9
BRANCH   5  18
ATOM     18  N   UNL     1       4.043   3.907  17.561  0.00  0.00    +0.000 N 
ATOM     19  C   UNL     1       5.395   4.144  17.626  0.00  0.00    +0.000 C 
ATOM     20  O   UNL     1       5.972   4.286  18.684  0.00  0.00    +0.000 OA
ATOM     21  H   UNL     1       3.660   3.830  16.606  0.00  0.00    +0.000 HD
BRANCH  19  22
ATOM     22  C   UNL     1       6.253   4.243  16.383  0.00  0.00    +0.000 C 
ATOM     23  C   UNL     1       6.184   5.558  15.622  0.00  0.00    +0.000 C 
ATOM     24  C   UNL     1       6.982   5.151  14.402  0.00  0.00    +0.000 C 
ATOM     25  C   UNL     1       6.382   3.779  14.101  0.00  0.00    +0.000 C 
ATOM     26  N   UNL     1       5.939   3.214  15.389  0.00  0.00    +0.000 NA
ATOM     27  H   UNL     1       6.435   2.322  15.614  0.00  0.00    +0.000 HD
ENDBRANCH  19  22
ENDBRANCH   5  18
BRANCH   4  28
ATOM     28  O   UNL     1       2.909   1.303  18.655  0.00  0.00    +0.000 OA
ATOM     29  H   UNL     1       2.410   0.845  17.964  0.00  0.00    +0.000 HD
ENDBRANCH   4  28
TORSDOF 6
ENDMDL
MODEL 8
REMARK VINA RESULT:      -7.3      4.931      7.350
REMARK  Name = 
REMARK  6 active torsions:
REMARK  status: ('A' for Active; 'I' for Inactive)
REMARK    1  A    between atoms: C_2  and  C_3
REMARK    2  A    between atoms: C_4  and  C_5
REMARK    3  A    between atoms: N_10  and  C_11
REMARK    4  A    between atoms: C_14  and  O_15
REMARK    5  A    between atoms: C_16  and  N_17
REMARK    6  A    between atoms: C_18  and  C_20
REMARK                            x       y       z     vdW  Elec       q    Type
REMARK                         _______ _______ _______ _____ _____    ______ ____
ROOT
ATOM      1  C   UNL     1       2.675   5.073  20.572  0.00  0.00    +0.000 A 
ATOM      2  C   UNL     1       2.402   3.916  21.293  0.00  0.00    +0.000 A 
ATOM      3  C   UNL     1       3.061   2.736  20.991  0.00  0.00    +0.000 A 
ATOM      4  C   UNL     1       4.011   2.678  19.953  0.00  0.00    +0.000 A 
ATOM      5  C   UNL     1       4.314   3.856  19.186  0.00  0.00    +0.000 A 
ATOM      6  C   UNL     1       3.614   5.041  19.528  0.00  0.00    +0.000 A 
ENDROOT
BRANCH   1   9
ATOM      7  O   UNL     1       2.469   7.254  18.939  0.00  0.00    +0.000 OA
ATOM      8  C   UNL     1       1.947   7.330  20.045  0.00  0.00    +0.000 C 
ATOM      9  N   UNL     1       1.994   6.273  20.900  0.00  0.00    +0.000 N 
ATOM     10  H   UNL     1       1.573   6.354  21.839  0.00  0.00    +0.000 HD
BRANCH   8  11
ATOM     11  C   UNL     1       1.272   8.583  20.463  0.00  0.00    +0.000 C 
ATOM     12  C   UNL     1       0.814   8.785  21.711  0.00  0.00    +0.000 C 
BRANCH  12  13
ATOM     13  C   UNL     1       0.151  10.049  22.077  0.00  0.00    +0.000 A 
ATOM     14  C   UNL     1      -0.842  10.196  23.026  0.00  0.00    +0.000 A 
ATOM     15  C   UNL     1      -1.160  11.536  23.029  0.00  0.00    +0.000 A 
ATOM     16  C   UNL     1      -0.349  12.127  22.081  0.00  0.00    +0.000 A 
ATOM     17  O   UNL     1       0.421  11.216  21.529  0.00  0.00    +0.000 OA
ENDBRANCH  12  13
ENDBRANCH   8  11
ENDBRANCH   1   9
BRANCH   5  18
ATOM     18  N   UNL     1       5.254   3.956  18.082  0.00  0.00    +0.000 N 
ATOM     19  C   UNL     1       5.017   3.911  16.729  0.00  0.00    +0.000 C 
ATOM     20  O   UNL     1       3.904   3.735  16.278  0.00  0.00    +0.000 OA
ATOM     21  H   UNL     1       6.243   4.084  18.347  0.00  0.00    +0.000 HD
BRANCH  19  22
ATOM     22  C   UNL     1       6.127   4.077  15.714  0.00  0.00    +0.000 C 
ATOM     23  C   UNL     1       6.396   5.497  15.240  0.00  0.00    +0.000 C 
ATOM     24  C   UNL     1       7.377   5.180  14.132  0.00  0.00    +0.000 C 
ATOM     25  C   UNL     1       6.682   4.003  13.450  0.00  0.00    +0.000 C 
ATOM     26  N   UNL     1       5.902   3.306  14.490  0.00  0.00    +0.000 NA
ATOM     27  H   UNL     1       6.218   2.317  14.615  0.00  0.00    +0.000 HD
ENDBRANCH  19  22
ENDBRANCH   5  18
BRANCH   4  28
ATOM     28  O   UNL     1       4.588   1.485  19.730  0.00  0.00    +0.000 OA
ATOM     29  H   UNL     1       5.458   1.244  20.078  0.00  0.00    +0.000 HD
ENDBRANCH   4  28
TORSDOF 6
ENDMDL
MODEL 9
REMARK VINA RESULT:      -7.2      7.946     10.234
REMARK  Name = 
REMARK  6 active torsions:
REMARK  status: ('A' for Active; 'I' for Inactive)
REMARK    1  A    between atoms: C_2  and  C_3
REMARK    2  A    between atoms: C_4  and  C_5
REMARK    3  A    between atoms: N_10  and  C_11
REMARK    4  A    between atoms: C_14  and  O_15
REMARK    5  A    between atoms: C_16  and  N_17
REMARK    6  A    between atoms: C_18  and  C_20
REMARK                            x       y       z     vdW  Elec       q    Type
REMARK                         _______ _______ _______ _____ _____    ______ ____
ROOT
ATOM      1  C   UNL     1       0.699  10.499  19.072  0.00  0.00    +0.000 A 
ATOM      2  C   UNL     1       1.503  11.630  18.976  0.00  0.00    +0.000 A 
ATOM      3  C   UNL     1       0.938  12.863  18.693  0.00  0.00    +0.000 A 
ATOM      4  C   UNL     1      -0.448  12.999  18.492  0.00  0.00    +0.000 A 
ATOM      5  C   UNL     1      -1.307  11.849  18.580  0.00  0.00    +0.000 A 
ATOM      6  C   UNL     1      -0.687  10.607  18.870  0.00  0.00    +0.000 A 
ENDROOT
BRANCH   1   9
ATOM      7  O   UNL     1       2.088   8.966  17.288  0.00  0.00    +0.000 OA
ATOM      8  C   UNL     1       1.957   8.525  18.423  0.00  0.00    +0.000 C 
ATOM      9  N   UNL     1       1.295   9.247  19.368  0.00  0.00    +0.000 N 
ATOM     10  H   UNL     1       1.167   8.857  20.314  0.00  0.00    +0.000 HD
BRANCH   8  11
ATOM     11  C   UNL     1       2.509   7.193  18.771  0.00  0.00    +0.000 C 
ATOM     12  C   UNL     1       2.575   6.177  17.894  0.00  0.00    +0.000 C 
BRANCH  12  13
ATOM     13  C   UNL     1       3.133   4.872  18.290  0.00  0.00    +0.000 A 
ATOM     14  C   UNL     1       2.920   3.671  17.642  0.00  0.00    +0.000 A 
ATOM     15  C   UNL     1       3.628   2.730  18.356  0.00  0.00    +0.000 A 
ATOM     16  C   UNL     1       4.227   3.408  19.399  0.00  0.00    +0.000 A 
ATOM     17  O   UNL     1       3.914   4.683  19.334  0.00  0.00    +0.000 OA
ENDBRANCH  12  13
ENDBRANCH   8  11
ENDBRANCH   1   9
BRANCH   5  18
ATOM     18  N   UNL     1      -2.748  11.823  18.387  0.00  0.00    +0.000 N 
ATOM     19  C   UNL     1      -3.472  11.439  17.285  0.00  0.00    +0.000 C 
ATOM     20  O   UNL     1      -2.935  11.080  16.257  0.00  0.00    +0.000 OA
ATOM     21  H   UNL     1      -3.313  12.133  19.193  0.00  0.00    +0.000 HD
BRANCH  19  22
ATOM     22  C   UNL     1      -4.985  11.437  17.280  0.00  0.00    +0.000 C 
ATOM     23  C   UNL     1      -5.660  12.768  17.572  0.00  0.00    +0.000 C 
ATOM     24  C   UNL     1      -7.087  12.276  17.678  0.00  0.00    +0.000 C 
ATOM     25  C   UNL     1      -6.906  11.026  18.538  0.00  0.00    +0.000 C 
ATOM     26  N   UNL     1      -5.558  10.501  18.250  0.00  0.00    +0.000 NA
ATOM     27  H   UNL     1      -5.594   9.535  17.853  0.00  0.00    +0.000 HD
ENDBRANCH  19  22
ENDBRANCH   5  18
BRANCH   4  28
ATOM     28  O   UNL     1      -0.899  14.234  18.212  0.00  0.00    +0.000 OA
ATOM     29  H   UNL     1      -0.681  14.705  17.395  0.00  0.00    +0.000 HD
ENDBRANCH   4  28
TORSDOF 6
ENDMDL
