MODEL 1
REMARK VINA RESULT:      -8.3      0.000      0.000
REMARK  Name = 
REMARK  11 active torsions:
REMARK  status: ('A' for Active; 'I' for Inactive)
REMARK    1  A    between atoms: C_1  and  C_2
REMARK    2  A    between atoms: C_2  and  C_3
REMARK    3  A    between atoms: C_2  and  C_4
REMARK    4  A    between atoms: C_4  and  N_5
REMARK    5  A    between atoms: C_6  and  C_8
REMARK    6  A    between atoms: C_13  and  N_14
REMARK    7  A    between atoms: C_15  and  C_17
REMARK    8  A    between atoms: C_17  and  N_18
REMARK    9  A    between atoms: N_18  and  C_19
REMARK   10  A    between atoms: N_18  and  S_29
REMARK   11  A    between atoms: S_29  and  C_30
REMARK                            x       y       z     vdW  Elec       q    Type
REMARK                         _______ _______ _______ _____ _____    ______ ____
ROOT
ATOM      1  N   UNL     1       2.045   7.990  20.149  0.00  0.00    +0.000 N 
ATOM      2  C   UNL     1       1.016   8.694  20.780  0.00  0.00    +0.000 C 
ATOM      3  O   UNL     1       0.054   8.166  21.350  0.00  0.00    +0.000 OA
ATOM      4  H   UNL     1       2.818   8.512  19.729  0.00  0.00    +0.000 HD
ENDROOT
BRANCH   1  10
ATOM      5  C   UNL     1       2.880   5.934  18.963  0.00  0.00    +0.000 A 
ATOM      6  C   UNL     1       2.847   4.525  18.811  0.00  0.00    +0.000 A 
ATOM      7  C   UNL     1       2.161   3.715  19.705  0.00  0.00    +0.000 A 
ATOM      8  C   UNL     1       1.485   4.301  20.762  0.00  0.00    +0.000 A 
ATOM      9  C   UNL     1       1.460   5.696  20.890  0.00  0.00    +0.000 A 
ATOM     10  C   UNL     1       2.132   6.555  20.000  0.00  0.00    +0.000 A 
BRANCH   5  12
ATOM     11  N   UNL     1       5.013   6.213  17.768  0.00  0.00    +0.000 N 
ATOM     12  C   UNL     1       3.725   6.705  17.991  0.00  0.00    +0.000 C 
ATOM     13  O   UNL     1       3.287   7.742  17.489  0.00  0.00    +0.000 OA
ATOM     14  H   UNL     1       5.397   5.558  18.438  0.00  0.00    +0.000 HD
BRANCH  11  15
ATOM     15  C   UNL     1       5.998   6.862  16.911  0.00  0.00    +0.000 C 
BRANCH  15  17
ATOM     16  C   UNL     1       7.914   8.384  17.742  0.00  0.00    +0.000 C 
ATOM     17  C   UNL     1       7.433   6.954  17.474  0.00  0.00    +0.000 C 
ATOM     18  C   UNL     1       7.635   6.099  18.722  0.00  0.00    +0.000 C 
ENDBRANCH  15  17
ENDBRANCH  11  15
ENDBRANCH   5  12
ENDBRANCH   1  10
BRANCH   2  19
ATOM     19  C   UNL     1       1.108  10.219  20.834  0.00  0.00    +0.000 C 
BRANCH  19  20
ATOM     20  N   UNL     1       0.549  11.067  19.755  0.00  0.00    +0.000 N 
BRANCH  20  21
ATOM     21  C   UNL     1      -0.808  10.910  19.360  0.00  0.00    +0.000 A 
ATOM     22  C   UNL     1      -1.766  11.761  19.916  0.00  0.00    +0.000 A 
ATOM     23  C   UNL     1      -2.988  11.939  19.270  0.00  0.00    +0.000 A 
ATOM     24  C   UNL     1      -3.213  11.287  18.062  0.00  0.00    +0.000 A 
ATOM     25  C   UNL     1      -2.309  10.319  17.615  0.00  0.00    +0.000 A 
ATOM     26  C   UNL     1      -1.118  10.089  18.282  0.00  0.00    +0.000 A 
ATOM     27  O   UNL     1      -2.474   9.698  16.403  0.00  0.00    +0.000 OA
ATOM     28  C   UNL     1      -2.847  10.733  15.494  0.00  0.00    +0.000 C 
ATOM     29  C   UNL     1      -4.176  11.351  15.918  0.00  0.00    +0.000 C 
ATOM     30  O   UNL     1      -4.267  11.718  17.305  0.00  0.00    +0.000 OA
ENDBRANCH  20  21
BRANCH  20  31
ATOM     31  S   UNL     1       1.369  12.473  19.327  0.00  0.00    +0.000 S 
ATOM     32  C   UNL     1       2.527  11.914  18.087  0.00  0.00    +0.000 C 
ATOM     33  O   UNL     1       0.419  13.341  18.660  0.00  0.00    +0.000 OA
ATOM     34  O   UNL     1       2.133  12.947  20.462  0.00  0.00    +0.000 OA
ENDBRANCH  20  31
ENDBRANCH  19  20
ENDBRANCH   2  19
TORSDOF 8
ENDMDL
MODEL 2
REMARK VINA RESULT:      -8.2      1.972      2.987
REMARK  Name = 
REMARK  11 active torsions:
REMARK  status: ('A' for Active; 'I' for Inactive)
REMARK    1  A    between atoms: C_1  and  C_2
REMARK    2  A    between atoms: C_2  and  C_3
REMARK    3  A    between atoms: C_2  and  C_4
REMARK    4  A    between atoms: C_4  and  N_5
REMARK    5  A    between atoms: C_6  and  C_8
REMARK    6  A    between atoms: C_13  and  N_14
REMARK    7  A    between atoms: C_15  and  C_17
REMARK    8  A    between atoms: C_17  and  N_18
REMARK    9  A    between atoms: N_18  and  C_19
REMARK   10  A    between atoms: N_18  and  S_29
REMARK   11  A    between atoms: S_29  and  C_30
REMARK                            x       y       z     vdW  Elec       q    Type
REMARK                         _______ _______ _______ _____ _____    ______ ____
ROOT
ATOM      1  N   UNL     1       2.139   6.845  20.184  0.00  0.00    +0.000 N 
ATOM      2  C   UNL     1       1.991   7.735  19.118  0.00  0.00    +0.000 C 
ATOM      3  O   UNL     1       1.839   7.396  17.938  0.00  0.00    +0.000 OA
ATOM      4  H   UNL     1       2.228   7.218  21.133  0.00  0.00    +0.000 HD
ENDROOT
BRANCH   1  10
ATOM      5  C   UNL     1       3.296   4.719  19.495  0.00  0.00    +0.000 A 
ATOM      6  C   UNL     1       3.255   3.310  19.346  0.00  0.00    +0.000 A 
ATOM      7  C   UNL     1       2.199   2.559  19.844  0.00  0.00    +0.000 A 
ATOM      8  C   UNL     1       1.159   3.206  20.490  0.00  0.00    +0.000 A 
ATOM      9  C   UNL     1       1.158   4.603  20.592  0.00  0.00    +0.000 A 
ATOM     10  C   UNL     1       2.203   5.404  20.092  0.00  0.00    +0.000 A 
BRANCH   5  12
ATOM     11  N   UNL     1       4.493   5.860  17.672  0.00  0.00    +0.000 N 
ATOM     12  C   UNL     1       4.526   5.421  18.998  0.00  0.00    +0.000 C 
ATOM     13  O   UNL     1       5.510   5.526  19.733  0.00  0.00    +0.000 OA
ATOM     14  H   UNL     1       3.792   5.466  17.056  0.00  0.00    +0.000 HD
BRANCH  11  15
ATOM     15  C   UNL     1       5.614   6.501  16.996  0.00  0.00    +0.000 C 
BRANCH  15  17
ATOM     16  C   UNL     1       7.405   4.642  16.864  0.00  0.00    +0.000 C 
ATOM     17  C   UNL     1       6.476   5.588  16.096  0.00  0.00    +0.000 C 
ATOM     18  C   UNL     1       5.647   4.794  15.090  0.00  0.00    +0.000 C 
ENDBRANCH  15  17
ENDBRANCH  11  15
ENDBRANCH   5  12
ENDBRANCH   1  10
BRANCH   2  19
ATOM     19  C   UNL     1       1.944   9.232  19.425  0.00  0.00    +0.000 C 
BRANCH  19  20
ATOM     20  N   UNL     1       0.789   9.843  20.124  0.00  0.00    +0.000 N 
BRANCH  20  21
ATOM     21  C   UNL     1      -0.217  10.516  19.378  0.00  0.00    +0.000 A 
ATOM     22  C   UNL     1      -0.859   9.820  18.350  0.00  0.00    +0.000 A 
ATOM     23  C   UNL     1      -2.101  10.258  17.893  0.00  0.00    +0.000 A 
ATOM     24  C   UNL     1      -2.690  11.364  18.497  0.00  0.00    +0.000 A 
ATOM     25  C   UNL     1      -1.957  12.134  19.405  0.00  0.00    +0.000 A 
ATOM     26  C   UNL     1      -0.697  11.743  19.822  0.00  0.00    +0.000 A 
ATOM     27  O   UNL     1      -2.527  13.197  20.058  0.00  0.00    +0.000 OA
ATOM     28  C   UNL     1      -3.821  12.748  20.458  0.00  0.00    +0.000 C 
ATOM     29  C   UNL     1      -4.663  12.413  19.230  0.00  0.00    +0.000 C 
ATOM     30  O   UNL     1      -4.019  11.575  18.254  0.00  0.00    +0.000 OA
ENDBRANCH  20  21
BRANCH  20  31
ATOM     31  S   UNL     1       0.457   9.364  21.702  0.00  0.00    +0.000 S 
ATOM     32  C   UNL     1      -0.435  10.756  22.379  0.00  0.00    +0.000 C 
ATOM     33  O   UNL     1      -0.477   8.257  21.630  0.00  0.00    +0.000 OA
ATOM     34  O   UNL     1       1.698   9.236  22.437  0.00  0.00    +0.000 OA
ENDBRANCH  20  31
ENDBRANCH  19  20
ENDBRANCH   2  19
TORSDOF 8
ENDMDL
MODEL 3
REMARK VINA RESULT:      -8.1      2.798      5.193
REMARK  Name = 
REMARK  11 active torsions:
REMARK  status: ('A' for Active; 'I' for Inactive)
REMARK    1  A    between atoms: C_1  and  C_2
REMARK    2  A    between atoms: C_2  and  C_3
REMARK    3  A    between atoms: C_2  and  C_4
REMARK    4  A    between atoms: C_4  and  N_5
REMARK    5  A    between atoms: C_6  and  C_8
REMARK    6  A    between atoms: C_13  and  N_14
REMARK    7  A    between atoms: C_15  and  C_17
REMARK    8  A    between atoms: C_17  and  N_18
REMARK    9  A    between atoms: N_18  and  C_19
REMARK   10  A    between atoms: N_18  and  S_29
REMARK   11  A    between atoms: S_29  and  C_30
REMARK                            x       y       z     vdW  Elec       q    Type
REMARK                         _______ _______ _______ _____ _____    ______ ____
ROOT
ATOM      1  N   UNL     1       4.159   6.625  18.118  0.00  0.00    +0.000 N 
ATOM      2  C   UNL     1       2.821   6.571  18.516  0.00  0.00    +0.000 C 
ATOM      3  O   UNL     1       1.990   5.768  18.073  0.00  0.00    +0.000 OA
ATOM      4  H   UNL     1       4.781   7.304  18.564  0.00  0.00    +0.000 HD
ENDROOT
BRANCH   1  10
ATOM      5  C   UNL     1       5.147   4.457  17.310  0.00  0.00    +0.000 A 
ATOM      6  C   UNL     1       5.843   3.743  16.302  0.00  0.00    +0.000 A 
ATOM      7  C   UNL     1       6.110   4.311  15.065  0.00  0.00    +0.000 A 
ATOM      8  C   UNL     1       5.697   5.610  14.817  0.00  0.00    +0.000 A 
ATOM      9  C   UNL     1       5.062   6.347  15.824  0.00  0.00    +0.000 A 
ATOM     10  C   UNL     1       4.780   5.813  17.097  0.00  0.00    +0.000 A 
BRANCH   5  12
ATOM     11  N   UNL     1       3.572   3.120  18.648  0.00  0.00    +0.000 N 
ATOM     12  C   UNL     1       4.834   3.715  18.577  0.00  0.00    +0.000 C 
ATOM     13  O   UNL     1       5.649   3.712  19.501  0.00  0.00    +0.000 OA
ATOM     14  H   UNL     1       2.862   3.428  17.995  0.00  0.00    +0.000 HD
BRANCH  11  15
ATOM     15  C   UNL     1       3.066   2.416  19.820  0.00  0.00    +0.000 C 
BRANCH  15  17
ATOM     16  C   UNL     1       1.206   3.877  20.861  0.00  0.00    +0.000 C 
ATOM     17  C   UNL     1       1.559   2.586  20.116  0.00  0.00    +0.000 C 
ATOM     18  C   UNL     1       0.692   2.456  18.867  0.00  0.00    +0.000 C 
ENDBRANCH  15  17
ENDBRANCH  11  15
ENDBRANCH   5  12
ENDBRANCH   1  10
BRANCH   2  19
ATOM     19  C   UNL     1       2.354   7.518  19.622  0.00  0.00    +0.000 C 
BRANCH  19  20
ATOM     20  N   UNL     1       1.345   8.572  19.364  0.00  0.00    +0.000 N 
BRANCH  20  21
ATOM     21  C   UNL     1       0.530   9.050  20.427  0.00  0.00    +0.000 A 
ATOM     22  C   UNL     1       0.926   8.782  21.739  0.00  0.00    +0.000 A 
ATOM     23  C   UNL     1       0.430   9.564  22.782  0.00  0.00    +0.000 A 
ATOM     24  C   UNL     1      -0.425  10.620  22.484  0.00  0.00    +0.000 A 
ATOM     25  C   UNL     1      -0.931  10.762  21.188  0.00  0.00    +0.000 A 
ATOM     26  C   UNL     1      -0.492   9.952  20.156  0.00  0.00    +0.000 A 
ATOM     27  O   UNL     1      -1.732  11.823  20.851  0.00  0.00    +0.000 OA
ATOM     28  C   UNL     1      -1.129  12.964  21.460  0.00  0.00    +0.000 C 
ATOM     29  C   UNL     1      -1.127  12.809  22.978  0.00  0.00    +0.000 C 
ATOM     30  O   UNL     1      -0.638  11.547  23.466  0.00  0.00    +0.000 OA
ENDBRANCH  20  21
BRANCH  20  31
ATOM     31  S   UNL     1       1.474   9.483  17.956  0.00  0.00    +0.000 S 
ATOM     32  C   UNL     1       1.879  11.117  18.556  0.00  0.00    +0.000 C 
ATOM     33  O   UNL     1       2.634   8.998  17.232  0.00  0.00    +0.000 OA
ATOM     34  O   UNL     1       0.180   9.559  17.311  0.00  0.00    +0.000 OA
ENDBRANCH  20  31
ENDBRANCH  19  20
ENDBRANCH   2  19
TORSDOF 8
ENDMDL
MODEL 4
REMARK VINA RESULT:      -7.9      2.002      2.592
REMARK  Name = 
REMARK  11 active torsions:
REMARK  status: ('A' for Active; 'I' for Inactive)
REMARK    1  A    between atoms: C_1  and  C_2
REMARK    2  A    between atoms: C_2  and  C_3
REMARK    3  A    between atoms: C_2  and  C_4
REMARK    4  A    between atoms: C_4  and  N_5
REMARK    5  A    between atoms: C_6  and  C_8
REMARK    6  A    between atoms: C_13  and  N_14
REMARK    7  A    between atoms: C_15  and  C_17
REMARK    8  A    between atoms: C_17  and  N_18
REMARK    9  A    between atoms: N_18  and  C_19
REMARK   10  A    between atoms: N_18  and  S_29
REMARK   11  A    between atoms: S_29  and  C_30
REMARK                            x       y       z     vdW  Elec       q    Type
REMARK                         _______ _______ _______ _____ _____    ______ ____
ROOT
ATOM      1  N   UNL     1       2.023   6.733  20.189  0.00  0.00    +0.000 N 
ATOM      2  C   UNL     1       1.910   7.618  19.114  0.00  0.00    +0.000 C 
ATOM      3  O   UNL     1       1.757   7.274  17.936  0.00  0.00    +0.000 OA
ATOM      4  H   UNL     1       2.116   7.111  21.135  0.00  0.00    +0.000 HD
ENDROOT
BRANCH   1  10
ATOM      5  C   UNL     1       3.044   4.575  19.393  0.00  0.00    +0.000 A 
ATOM      6  C   UNL     1       2.955   3.166  19.269  0.00  0.00    +0.000 A 
ATOM      7  C   UNL     1       1.952   2.444  19.901  0.00  0.00    +0.000 A 
ATOM      8  C   UNL     1       1.010   3.121  20.659  0.00  0.00    +0.000 A 
ATOM      9  C   UNL     1       1.052   4.518  20.741  0.00  0.00    +0.000 A 
ATOM     10  C   UNL     1       2.045   5.290  20.108  0.00  0.00    +0.000 A 
BRANCH   5  12
ATOM     11  N   UNL     1       4.268   5.186  17.347  0.00  0.00    +0.000 N 
ATOM     12  C   UNL     1       4.219   5.244  18.742  0.00  0.00    +0.000 C 
ATOM     13  O   UNL     1       5.100   5.748  19.441  0.00  0.00    +0.000 OA
ATOM     14  H   UNL     1       3.689   4.499  16.878  0.00  0.00    +0.000 HD
BRANCH  11  15
ATOM     15  C   UNL     1       5.362   5.719  16.545  0.00  0.00    +0.000 C 
BRANCH  15  17
ATOM     16  C   UNL     1       7.062   4.942  14.761  0.00  0.00    +0.000 C 
ATOM     17  C   UNL     1       6.470   4.715  16.155  0.00  0.00    +0.000 C 
ATOM     18  C   UNL     1       7.591   4.641  17.188  0.00  0.00    +0.000 C 
ENDBRANCH  15  17
ENDBRANCH  11  15
ENDBRANCH   5  12
ENDBRANCH   1  10
BRANCH   2  19
ATOM     19  C   UNL     1       1.905   9.119  19.409  0.00  0.00    +0.000 C 
BRANCH  19  20
ATOM     20  N   UNL     1       0.815   9.752  20.188  0.00  0.00    +0.000 N 
BRANCH  20  21
ATOM     21  C   UNL     1      -0.234  10.436  19.515  0.00  0.00    +0.000 A 
ATOM     22  C   UNL     1      -0.004  11.744  19.083  0.00  0.00    +0.000 A 
ATOM     23  C   UNL     1      -0.801  12.288  18.077  0.00  0.00    +0.000 A 
ATOM     24  C   UNL     1      -1.791  11.498  17.501  0.00  0.00    +0.000 A 
ATOM     25  C   UNL     1      -2.106  10.257  18.062  0.00  0.00    +0.000 A 
ATOM     26  C   UNL     1      -1.359   9.732  19.102  0.00  0.00    +0.000 A 
ATOM     27  O   UNL     1      -3.037   9.432  17.486  0.00  0.00    +0.000 OA
ATOM     28  C   UNL     1      -2.774   9.482  16.083  0.00  0.00    +0.000 C 
ATOM     29  C   UNL     1      -2.980  10.902  15.561  0.00  0.00    +0.000 C 
ATOM     30  O   UNL     1      -2.334  11.936  16.324  0.00  0.00    +0.000 OA
ENDBRANCH  20  21
BRANCH  20  31
ATOM     31  S   UNL     1       0.595   9.285  21.790  0.00  0.00    +0.000 S 
ATOM     32  C   UNL     1      -0.343  10.636  22.489  0.00  0.00    +0.000 C 
ATOM     33  O   UNL     1      -0.274   8.124  21.786  0.00  0.00    +0.000 OA
ATOM     34  O   UNL     1       1.877   9.246  22.459  0.00  0.00    +0.000 OA
ENDBRANCH  20  31
ENDBRANCH  19  20
ENDBRANCH   2  19
TORSDOF 8
ENDMDL
MODEL 5
REMARK VINA RESULT:      -7.8      2.409      3.790
REMARK  Name = 
REMARK  11 active torsions:
REMARK  status: ('A' for Active; 'I' for Inactive)
REMARK    1  A    between atoms: C_1  and  C_2
REMARK    2  A    between atoms: C_2  and  C_3
REMARK    3  A    between atoms: C_2  and  C_4
REMARK    4  A    between atoms: C_4  and  N_5
REMARK    5  A    between atoms: C_6  and  C_8
REMARK    6  A    between atoms: C_13  and  N_14
REMARK    7  A    between atoms: C_15  and  C_17
REMARK    8  A    between atoms: C_17  and  N_18
REMARK    9  A    between atoms: N_18  and  C_19
REMARK   10  A    between atoms: N_18  and  S_29
REMARK   11  A    between atoms: S_29  and  C_30
REMARK                            x       y       z     vdW  Elec       q    Type
REMARK                         _______ _______ _______ _____ _____    ______ ____
ROOT
ATOM      1  N   UNL     1       2.551   5.895  19.100  0.00  0.00    +0.000 N 
ATOM      2  C   UNL     1       1.964   6.533  20.195  0.00  0.00    +0.000 C 
ATOM      3  O   UNL     1       1.385   5.950  21.119  0.00  0.00    +0.000 OA
ATOM      4  H   UNL     1       3.036   6.460  18.398  0.00  0.00    +0.000 HD
ENDROOT
BRANCH   1  10
ATOM      5  C   UNL     1       3.714   3.722  18.596  0.00  0.00    +0.000 A 
ATOM      6  C   UNL     1       3.624   2.353  18.237  0.00  0.00    +0.000 A 
ATOM      7  C   UNL     1       2.402   1.698  18.180  0.00  0.00    +0.000 A 
ATOM      8  C   UNL     1       1.245   2.403  18.471  0.00  0.00    +0.000 A 
ATOM      9  C   UNL     1       1.315   3.769  18.769  0.00  0.00    +0.000 A 
ATOM     10  C   UNL     1       2.532   4.476  18.827  0.00  0.00    +0.000 A 
BRANCH   5  12
ATOM     11  N   UNL     1       5.872   4.284  17.554  0.00  0.00    +0.000 N 
ATOM     12  C   UNL     1       5.092   4.306  18.712  0.00  0.00    +0.000 C 
ATOM     13  O   UNL     1       5.493   4.713  19.804  0.00  0.00    +0.000 OA
ATOM     14  H   UNL     1       5.594   3.663  16.803  0.00  0.00    +0.000 HD
BRANCH  11  15
ATOM     15  C   UNL     1       7.253   4.745  17.490  0.00  0.00    +0.000 C 
BRANCH  15  17
ATOM     16  C   UNL     1       6.191   7.049  17.000  0.00  0.00    +0.000 C 
ATOM     17  C   UNL     1       7.455   6.272  17.379  0.00  0.00    +0.000 C 
ATOM     18  C   UNL     1       8.079   6.879  18.632  0.00  0.00    +0.000 C 
ENDBRANCH  15  17
ENDBRANCH  11  15
ENDBRANCH   5  12
ENDBRANCH   1  10
BRANCH   2  19
ATOM     19  C   UNL     1       2.097   8.053  20.305  0.00  0.00    +0.000 C 
BRANCH  19  20
ATOM     20  N   UNL     1       1.059   8.962  19.765  0.00  0.00    +0.000 N 
BRANCH  20  21
ATOM     21  C   UNL     1       0.112   9.559  20.643  0.00  0.00    +0.000 A 
ATOM     22  C   UNL     1       0.043   9.097  21.959  0.00  0.00    +0.000 A 
ATOM     23  C   UNL     1      -0.529   9.902  22.942  0.00  0.00    +0.000 A 
ATOM     24  C   UNL     1      -0.990  11.168  22.594  0.00  0.00    +0.000 A 
ATOM     25  C   UNL     1      -1.058  11.537  21.247  0.00  0.00    +0.000 A 
ATOM     26  C   UNL     1      -0.548  10.719  20.254  0.00  0.00    +0.000 A 
ATOM     27  O   UNL     1      -1.456  12.795  20.874  0.00  0.00    +0.000 OA
ATOM     28  C   UNL     1      -0.799  13.685  21.777  0.00  0.00    +0.000 C 
ATOM     29  C   UNL     1      -1.266  13.421  23.206  0.00  0.00    +0.000 C 
ATOM     30  O   UNL     1      -1.249  12.042  23.613  0.00  0.00    +0.000 OA
ENDBRANCH  20  21
BRANCH  20  31
ATOM     31  S   UNL     1       1.277   9.613  18.229  0.00  0.00    +0.000 S 
ATOM     32  C   UNL     1      -0.384   9.709  17.580  0.00  0.00    +0.000 C 
ATOM     33  O   UNL     1       1.746  10.975  18.400  0.00  0.00    +0.000 OA
ATOM     34  O   UNL     1       2.017   8.675  17.411  0.00  0.00    +0.000 OA
ENDBRANCH  20  31
ENDBRANCH  19  20
ENDBRANCH   2  19
TORSDOF 8
ENDMDL
MODEL 6
REMARK VINA RESULT:      -7.8      2.845      8.380
REMARK  Name = 
REMARK  11 active torsions:
REMARK  status: ('A' for Active; 'I' for Inactive)
REMARK    1  A    between atoms: C_1  and  C_2
REMARK    2  A    between atoms: C_2  and  C_3
REMARK    3  A    between atoms: C_2  and  C_4
REMARK    4  A    between atoms: C_4  and  N_5
REMARK    5  A    between atoms: C_6  and  C_8
REMARK    6  A    between atoms: C_13  and  N_14
REMARK    7  A    between atoms: C_15  and  C_17
REMARK    8  A    between atoms: C_17  and  N_18
REMARK    9  A    between atoms: N_18  and  C_19
REMARK   10  A    between atoms: N_18  and  S_29
REMARK   11  A    between atoms: S_29  and  C_30
REMARK                            x       y       z     vdW  Elec       q    Type
REMARK                         _______ _______ _______ _____ _____    ______ ____
ROOT
ATOM      1  N   UNL     1       0.228   7.583  21.021  0.00  0.00    +0.000 N 
ATOM      2  C   UNL     1       1.505   7.134  20.675  0.00  0.00    +0.000 C 
ATOM      3  O   UNL     1       2.521   7.839  20.683  0.00  0.00    +0.000 OA
ATOM      4  H   UNL     1      -0.550   6.918  21.016  0.00  0.00    +0.000 HD
ENDROOT
BRANCH   1  10
ATOM      5  C   UNL     1      -0.342   9.957  20.415  0.00  0.00    +0.000 A 
ATOM      6  C   UNL     1      -0.599  11.287  20.833  0.00  0.00    +0.000 A 
ATOM      7  C   UNL     1      -0.735  11.611  22.176  0.00  0.00    +0.000 A 
ATOM      8  C   UNL     1      -0.604  10.611  23.127  0.00  0.00    +0.000 A 
ATOM      9  C   UNL     1      -0.291   9.305  22.730  0.00  0.00    +0.000 A 
ATOM     10  C   UNL     1      -0.134   8.935  21.380  0.00  0.00    +0.000 A 
BRANCH   5  12
ATOM     11  N   UNL     1      -1.479   9.972  18.232  0.00  0.00    +0.000 N 
ATOM     12  C   UNL     1      -0.302   9.705  18.936  0.00  0.00    +0.000 C 
ATOM     13  O   UNL     1       0.713   9.229  18.424  0.00  0.00    +0.000 OA
ATOM     14  H   UNL     1      -2.340  10.055  18.758  0.00  0.00    +0.000 HD
BRANCH  11  15
ATOM     15  C   UNL     1      -1.651   9.726  16.806  0.00  0.00    +0.000 C 
BRANCH  15  17
ATOM     16  C   UNL     1      -3.101  10.117  14.702  0.00  0.00    +0.000 C 
ATOM     17  C   UNL     1      -2.667  10.634  16.078  0.00  0.00    +0.000 C 
ATOM     18  C   UNL     1      -3.898  10.944  16.925  0.00  0.00    +0.000 C 
ENDBRANCH  15  17
ENDBRANCH  11  15
ENDBRANCH   5  12
ENDBRANCH   1  10
BRANCH   2  19
ATOM     19  C   UNL     1       1.684   5.656  20.327  0.00  0.00    +0.000 C 
BRANCH  19  20
ATOM     20  N   UNL     1       2.289   5.232  19.041  0.00  0.00    +0.000 N 
BRANCH  20  21
ATOM     21  C   UNL     1       3.596   5.668  18.694  0.00  0.00    +0.000 A 
ATOM     22  C   UNL     1       4.659   5.315  19.530  0.00  0.00    +0.000 A 
ATOM     23  C   UNL     1       5.961   5.337  19.034  0.00  0.00    +0.000 A 
ATOM     24  C   UNL     1       6.171   5.680  17.703  0.00  0.00    +0.000 A 
ATOM     25  C   UNL     1       5.113   6.185  16.939  0.00  0.00    +0.000 A 
ATOM     26  C   UNL     1       3.824   6.225  17.441  0.00  0.00    +0.000 A 
ATOM     27  O   UNL     1       5.274   6.481  15.610  0.00  0.00    +0.000 OA
ATOM     28  C   UNL     1       6.029   5.397  15.068  0.00  0.00    +0.000 C 
ATOM     29  C   UNL     1       7.403   5.332  15.730  0.00  0.00    +0.000 C 
ATOM     30  O   UNL     1       7.395   5.391  17.167  0.00  0.00    +0.000 OA
ENDBRANCH  20  21
BRANCH  20  31
ATOM     31  S   UNL     1       1.622   3.915  18.233  0.00  0.00    +0.000 S 
ATOM     32  C   UNL     1       0.573   3.160  19.467  0.00  0.00    +0.000 C 
ATOM     33  O   UNL     1       0.751   4.439  17.199  0.00  0.00    +0.000 OA
ATOM     34  O   UNL     1       2.670   2.970  17.908  0.00  0.00    +0.000 OA
ENDBRANCH  20  31
ENDBRANCH  19  20
ENDBRANCH   2  19
TORSDOF 8
ENDMDL
MODEL 7
REMARK VINA RESULT:      -7.6      2.665      3.457
REMARK  Name = 
REMARK  11 active torsions:
REMARK  status: ('A' for Active; 'I' for Inactive)
REMARK    1  A    between atoms: C_1  and  C_2
REMARK    2  A    between atoms: C_2  and  C_3
REMARK    3  A    between atoms: C_2  and  C_4
REMARK    4  A    between atoms: C_4  and  N_5
REMARK    5  A    between atoms: C_6  and  C_8
REMARK    6  A    between atoms: C_13  and  N_14
REMARK    7  A    between atoms: C_15  and  C_17
REMARK    8  A    between atoms: C_17  and  N_18
REMARK    9  A    between atoms: N_18  and  C_19
REMARK   10  A    between atoms: N_18  and  S_29
REMARK   11  A    between atoms: S_29  and  C_30
REMARK                            x       y       z     vdW  Elec       q    Type
REMARK                         _______ _______ _______ _____ _____    ______ ____
ROOT
ATOM      1  N   UNL     1       2.166   7.457  20.289  0.00  0.00    +0.000 N 
ATOM      2  C   UNL     1       1.197   8.212  20.954  0.00  0.00    +0.000 C 
ATOM      3  O   UNL     1       0.145   7.752  21.415  0.00  0.00    +0.000 OA
ATOM      4  H   UNL     1       3.021   7.919  19.969  0.00  0.00    +0.000 HD
ENDROOT
BRANCH   1  10
ATOM      5  C   UNL     1       2.686   5.485  18.815  0.00  0.00    +0.000 A 
ATOM      6  C   UNL     1       2.488   4.115  18.508  0.00  0.00    +0.000 A 
ATOM      7  C   UNL     1       1.780   3.277  19.358  0.00  0.00    +0.000 A 
ATOM      8  C   UNL     1       1.246   3.797  20.526  0.00  0.00    +0.000 A 
ATOM      9  C   UNL     1       1.384   5.162  20.811  0.00  0.00    +0.000 A 
ATOM     10  C   UNL     1       2.084   6.049  19.973  0.00  0.00    +0.000 A 
BRANCH   5  12
ATOM     11  N   UNL     1       4.509   5.559  17.162  0.00  0.00    +0.000 N 
ATOM     12  C   UNL     1       3.543   6.278  17.871  0.00  0.00    +0.000 C 
ATOM     13  O   UNL     1       3.408   7.501  17.803  0.00  0.00    +0.000 OA
ATOM     14  H   UNL     1       4.761   4.638  17.500  0.00  0.00    +0.000 HD
BRANCH  11  15
ATOM     15  C   UNL     1       5.473   6.164  16.252  0.00  0.00    +0.000 C 
BRANCH  15  17
ATOM     16  C   UNL     1       7.369   7.199  17.671  0.00  0.00    +0.000 C 
ATOM     17  C   UNL     1       6.953   6.099  16.689  0.00  0.00    +0.000 C 
ATOM     18  C   UNL     1       7.347   4.734  17.246  0.00  0.00    +0.000 C 
ENDBRANCH  15  17
ENDBRANCH  11  15
ENDBRANCH   5  12
ENDBRANCH   1  10
BRANCH   2  19
ATOM     19  C   UNL     1       1.473   9.696  21.195  0.00  0.00    +0.000 C 
BRANCH  19  20
ATOM     20  N   UNL     1       0.526  10.743  20.744  0.00  0.00    +0.000 N 
BRANCH  20  21
ATOM     21  C   UNL     1      -0.021  11.658  21.684  0.00  0.00    +0.000 A 
ATOM     22  C   UNL     1       0.393  12.992  21.632  0.00  0.00    +0.000 A 
ATOM     23  C   UNL     1      -0.398  13.982  22.214  0.00  0.00    +0.000 A 
ATOM     24  C   UNL     1      -1.603  13.620  22.806  0.00  0.00    +0.000 A 
ATOM     25  C   UNL     1      -1.912  12.268  22.988  0.00  0.00    +0.000 A 
ATOM     26  C   UNL     1      -1.103  11.273  22.468  0.00  0.00    +0.000 A 
ATOM     27  O   UNL     1      -3.115  11.879  23.518  0.00  0.00    +0.000 OA
ATOM     28  C   UNL     1      -4.093  12.707  22.890  0.00  0.00    +0.000 C 
ATOM     29  C   UNL     1      -3.847  14.171  23.244  0.00  0.00    +0.000 C 
ATOM     30  O   UNL     1      -2.492  14.623  23.079  0.00  0.00    +0.000 OA
ENDBRANCH  20  21
BRANCH  20  31
ATOM     31  S   UNL     1       0.454  11.112  19.104  0.00  0.00    +0.000 S 
ATOM     32  C   UNL     1       1.891  12.143  18.848  0.00  0.00    +0.000 C 
ATOM     33  O   UNL     1       0.682   9.880  18.374  0.00  0.00    +0.000 OA
ATOM     34  O   UNL     1      -0.719  11.918  18.843  0.00  0.00    +0.000 OA
ENDBRANCH  20  31
ENDBRANCH  19  20
ENDBRANCH   2  19
TORSDOF 8
ENDMDL
MODEL 8
REMARK VINA RESULT:      -7.6      0.761      1.147
REMARK  Name = 
REMARK  11 active torsions:
REMARK  status: ('A' for Active; 'I' for Inactive)
REMARK    1  A    between atoms: C_1  and  C_2
REMARK    2  A    between atoms: C_2  and  C_3
REMARK    3  A    between atoms: C_2  and  C_4
REMARK    4  A    between atoms: C_4  and  N_5
REMARK    5  A    between atoms: C_6  and  C_8
REMARK    6  A    between atoms: C_13  and  N_14
REMARK    7  A    between atoms: C_15  and  C_17
REMARK    8  A    between atoms: C_17  and  N_18
REMARK    9  A    between atoms: N_18  and  C_19
REMARK   10  A    between atoms: N_18  and  S_29
REMARK   11  A    between atoms: S_29  and  C_30
REMARK                            x       y       z     vdW  Elec       q    Type
REMARK                         _______ _______ _______ _____ _____    ______ ____
ROOT
ATOM      1  N   UNL     1       2.035   7.915  20.009  0.00  0.00    +0.000 N 
ATOM      2  C   UNL     1       1.079   8.674  20.688  0.00  0.00    +0.000 C 
ATOM      3  O   UNL     1       0.162   8.199  21.368  0.00  0.00    +0.000 OA
ATOM      4  H   UNL     1       2.778   8.397  19.496  0.00  0.00    +0.000 HD
ENDROOT
BRANCH   1  10
ATOM      5  C   UNL     1       2.865   5.780  18.967  0.00  0.00    +0.000 A 
ATOM      6  C   UNL     1       2.795   4.367  18.879  0.00  0.00    +0.000 A 
ATOM      7  C   UNL     1       2.039   3.622  19.773  0.00  0.00    +0.000 A 
ATOM      8  C   UNL     1       1.327   4.278  20.764  0.00  0.00    +0.000 A 
ATOM      9  C   UNL     1       1.340   5.677  20.825  0.00  0.00    +0.000 A 
ATOM     10  C   UNL     1       2.085   6.472  19.933  0.00  0.00    +0.000 A 
BRANCH   5  12
ATOM     11  N   UNL     1       5.075   5.958  17.899  0.00  0.00    +0.000 N 
ATOM     12  C   UNL     1       3.783   6.478  18.006  0.00  0.00    +0.000 C 
ATOM     13  O   UNL     1       3.396   7.487  17.413  0.00  0.00    +0.000 OA
ATOM     14  H   UNL     1       5.404   5.342  18.632  0.00  0.00    +0.000 HD
BRANCH  11  15
ATOM     15  C   UNL     1       6.123   6.539  17.069  0.00  0.00    +0.000 C 
BRANCH  15  17
ATOM     16  C   UNL     1       7.458   4.381  16.583  0.00  0.00    +0.000 C 
ATOM     17  C   UNL     1       6.744   5.606  16.006  0.00  0.00    +0.000 C 
ATOM     18  C   UNL     1       5.739   5.167  14.945  0.00  0.00    +0.000 C 
ENDBRANCH  15  17
ENDBRANCH  11  15
ENDBRANCH   5  12
ENDBRANCH   1  10
BRANCH   2  19
ATOM     19  C   UNL     1       1.202  10.198  20.650  0.00  0.00    +0.000 C 
BRANCH  19  20
ATOM     20  N   UNL     1       0.606  10.995  19.552  0.00  0.00    +0.000 N 
BRANCH  20  21
ATOM     21  C   UNL     1      -0.768  10.833  19.222  0.00  0.00    +0.000 A 
ATOM     22  C   UNL     1      -1.701  11.677  19.830  0.00  0.00    +0.000 A 
ATOM     23  C   UNL     1      -2.954  11.853  19.245  0.00  0.00    +0.000 A 
ATOM     24  C   UNL     1      -3.235  11.207  18.045  0.00  0.00    +0.000 A 
ATOM     25  C   UNL     1      -2.349  10.246  17.548  0.00  0.00    +0.000 A 
ATOM     26  C   UNL     1      -1.126  10.017  18.155  0.00  0.00    +0.000 A 
ATOM     27  O   UNL     1      -2.570   9.631  16.342  0.00  0.00    +0.000 OA
ATOM     28  C   UNL     1      -2.992  10.670  15.459  0.00  0.00    +0.000 C 
ATOM     29  C   UNL     1      -4.302  11.279  15.951  0.00  0.00    +0.000 C 
ATOM     30  O   UNL     1      -4.326  11.638  17.343  0.00  0.00    +0.000 OA
ENDBRANCH  20  21
BRANCH  20  31
ATOM     31  S   UNL     1       1.421  12.366  19.017  0.00  0.00    +0.000 S 
ATOM     32  C   UNL     1       2.583  11.717  17.825  0.00  0.00    +0.000 C 
ATOM     33  O   UNL     1       0.469  13.176  18.283  0.00  0.00    +0.000 OA
ATOM     34  O   UNL     1       2.182  12.930  20.112  0.00  0.00    +0.000 OA
ENDBRANCH  20  31
ENDBRANCH  19  20
ENDBRANCH   2  19
TORSDOF 8
ENDMDL
MODEL 9
REMARK VINA RESULT:      -7.6      2.721      8.141
REMARK  Name = 
REMARK  11 active torsions:
REMARK  status: ('A' for Active; 'I' for Inactive)
REMARK    1  A    between atoms: C_1  and  C_2
REMARK    2  A    between atoms: C_2  and  C_3
REMARK    3  A    between atoms: C_2  and  C_4
REMARK    4  A    between atoms: C_4  and  N_5
REMARK    5  A    between atoms: C_6  and  C_8
REMARK    6  A    between atoms: C_13  and  N_14
REMARK    7  A    between atoms: C_15  and  C_17
REMARK    8  A    between atoms: C_17  and  N_18
REMARK    9  A    between atoms: N_18  and  C_19
REMARK   10  A    between atoms: N_18  and  S_29
REMARK   11  A    between atoms: S_29  and  C_30
REMARK                            x       y       z     vdW  Elec       q    Type
REMARK                         _______ _______ _______ _____ _____    ______ ____
ROOT
ATOM      1  N   UNL     1       1.973   8.772  18.973  0.00  0.00    +0.000 N 
ATOM      2  C   UNL     1       2.579   7.529  18.774  0.00  0.00    +0.000 C 
ATOM      3  O   UNL     1       2.449   6.558  19.529  0.00  0.00    +0.000 OA
ATOM      4  H   UNL     1       2.113   9.509  18.277  0.00  0.00    +0.000 HD
ENDROOT
BRANCH   1  10
ATOM      5  C   UNL     1      -0.004   9.963  19.973  0.00  0.00    +0.000 A 
ATOM      6  C   UNL     1      -0.707  10.386  21.129  0.00  0.00    +0.000 A 
ATOM      7  C   UNL     1      -0.337   9.961  22.398  0.00  0.00    +0.000 A 
ATOM      8  C   UNL     1       0.751   9.116  22.535  0.00  0.00    +0.000 A 
ATOM      9  C   UNL     1       1.490   8.739  21.406  0.00  0.00    +0.000 A 
ATOM     10  C   UNL     1       1.157   9.154  20.103  0.00  0.00    +0.000 A 
BRANCH   5  12
ATOM     11  N   UNL     1      -1.700  11.195  18.683  0.00  0.00    +0.000 N 
ATOM     12  C   UNL     1      -0.544  10.411  18.646  0.00  0.00    +0.000 C 
ATOM     13  O   UNL     1      -0.003  10.032  17.606  0.00  0.00    +0.000 OA
ATOM     14  H   UNL     1      -2.248  11.198  19.534  0.00  0.00    +0.000 HD
BRANCH  11  15
ATOM     15  C   UNL     1      -2.405  11.667  17.497  0.00  0.00    +0.000 C 
BRANCH  15  17
ATOM     16  C   UNL     1      -2.855  10.168  15.441  0.00  0.00    +0.000 C 
ATOM     17  C   UNL     1      -3.341  10.646  16.813  0.00  0.00    +0.000 C 
ATOM     18  C   UNL     1      -3.655   9.444  17.698  0.00  0.00    +0.000 C 
ENDBRANCH  15  17
ENDBRANCH  11  15
ENDBRANCH   5  12
ENDBRANCH   1  10
BRANCH   2  19
ATOM     19  C   UNL     1       3.407   7.320  17.506  0.00  0.00    +0.000 C 
BRANCH  19  20
ATOM     20  N   UNL     1       4.517   6.339  17.459  0.00  0.00    +0.000 N 
BRANCH  20  21
ATOM     21  C   UNL     1       4.312   5.013  17.929  0.00  0.00    +0.000 A 
ATOM     22  C   UNL     1       4.953   4.620  19.107  0.00  0.00    +0.000 A 
ATOM     23  C   UNL     1       4.466   3.528  19.824  0.00  0.00    +0.000 A 
ATOM     24  C   UNL     1       3.329   2.872  19.364  0.00  0.00    +0.000 A 
ATOM     25  C   UNL     1       2.808   3.182  18.104  0.00  0.00    +0.000 A 
ATOM     26  C   UNL     1       3.322   4.226  17.355  0.00  0.00    +0.000 A 
ATOM     27  O   UNL     1       1.658   2.593  17.646  0.00  0.00    +0.000 OA
ATOM     28  C   UNL     1       0.761   2.596  18.756  0.00  0.00    +0.000 C 
ATOM     29  C   UNL     1       1.330   1.752  19.893  0.00  0.00    +0.000 C 
ATOM     30  O   UNL     1       2.700   2.026  20.235  0.00  0.00    +0.000 OA
ENDBRANCH  20  21
BRANCH  20  31
ATOM     31  S   UNL     1       5.837   6.662  16.466  0.00  0.00    +0.000 S 
ATOM     32  C   UNL     1       6.693   5.096  16.394  0.00  0.00    +0.000 C 
ATOM     33  O   UNL     1       5.322   6.926  15.136  0.00  0.00    +0.000 OA
ATOM     34  O   UNL     1       6.710   7.613  17.122  0.00  0.00    +0.000 OA
ENDBRANCH  20  31
ENDBRANCH  19  20
ENDBRANCH   2  19
TORSDOF 8
ENDMDL
