MODEL 1
REMARK VINA RESULT:      -6.1      0.000      0.000
REMARK  Name = 
REMARK  12 active torsions:
REMARK  status: ('A' for Active; 'I' for Inactive)
REMARK    1  A    between atoms: C_1  and  C_2
REMARK    2  A    between atoms: C_2  and  O_3
REMARK    3  A    between atoms: O_3  and  C_4
REMARK    4  A    between atoms: C_5  and  S_6
REMARK    5  A    between atoms: S_6  and  N_9
REMARK    6  A    between atoms: N_9  and  C_10
REMARK    7  A    between atoms: N_9  and  C_11
REMARK    8  A    between atoms: C_13  and  S_14
REMARK    9  A    between atoms: S_14  and  N_17
REMARK   10  A    between atoms: N_17  and  C_18
REMARK   11  A    between atoms: N_17  and  C_19
REMARK   12  A    between atoms: C_23  and  C_24
REMARK                            x       y       z     vdW  Elec       q    Type
REMARK                         _______ _______ _______ _____ _____    ______ ____
ROOT
ATOM      1  C   UNL     1      -4.358  12.209  19.209  0.00  0.00    +0.000 A 
ATOM      2  C   UNL     1      -3.990  12.616  20.503  0.00  0.00    +0.000 A 
ATOM      3  C   UNL     1      -2.709  12.350  20.976  0.00  0.00    +0.000 A 
ATOM      4  C   UNL     1      -1.784  11.672  20.170  0.00  0.00    +0.000 A 
ATOM      5  C   UNL     1      -2.147  11.191  18.885  0.00  0.00    +0.000 A 
ATOM      6  C   UNL     1      -1.361  10.359  18.045  0.00  0.00    +0.000 A 
ATOM      7  C   UNL     1      -1.768   9.993  16.766  0.00  0.00    +0.000 A 
ATOM      8  C   UNL     1      -2.952  10.505  16.304  0.00  0.00    +0.000 A 
ATOM      9  C   UNL     1      -3.463  10.214  14.927  0.00  0.00    +0.000 C 
ATOM     10  N   UNL     1      -3.745  11.252  17.094  0.00  0.00    +0.000 NA
ATOM     11  C   UNL     1      -3.421  11.550  18.374  0.00  0.00    +0.000 A 
ENDROOT
BRANCH   2  12
ATOM     12  S   UNL     1      -5.188  13.392  21.575  0.00  0.00    +0.000 S 
ATOM     13  O   UNL     1      -5.606  14.631  20.955  0.00  0.00    +0.000 OA
ATOM     14  O   UNL     1      -6.122  12.354  21.959  0.00  0.00    +0.000 OA
BRANCH  12  15
ATOM     15  N   UNL     1      -4.297  13.827  22.988  0.00  0.00    +0.000 NA
ATOM     16  C   UNL     1      -4.279  15.272  23.316  0.00  0.00    +0.000 C 
ATOM     17  C   UNL     1      -4.582  13.009  24.189  0.00  0.00    +0.000 C 
ENDBRANCH  12  15
ENDBRANCH   2  12
BRANCH   4  18
ATOM     18  S   UNL     1      -0.131  11.513  20.864  0.00  0.00    +0.000 S 
ATOM     19  O   UNL     1       0.802  11.702  19.773  0.00  0.00    +0.000 OA
ATOM     20  O   UNL     1      -0.019  12.325  22.053  0.00  0.00    +0.000 OA
BRANCH  18  21
ATOM     21  N   UNL     1      -0.062   9.869  21.305  0.00  0.00    +0.000 NA
ATOM     22  C   UNL     1       1.027   9.048  20.755  0.00  0.00    +0.000 C 
ATOM     23  C   UNL     1      -0.403   9.523  22.694  0.00  0.00    +0.000 C 
ENDBRANCH  18  21
ENDBRANCH   4  18
BRANCH   1  24
ATOM     24  O   UNL     1      -5.662  12.493  18.836  0.00  0.00    +0.000 OA
BRANCH  24  26
ATOM     25  C   UNL     1      -6.796  10.396  19.280  0.00  0.00    +0.000 C 
ATOM     26  C   UNL     1      -6.413  11.428  18.236  0.00  0.00    +0.000 C 
ENDBRANCH  24  26
ENDBRANCH   1  24
TORSDOF 6
ENDMDL
MODEL 2
REMARK VINA RESULT:      -6.0      0.747      1.004
REMARK  Name = 
REMARK  12 active torsions:
REMARK  status: ('A' for Active; 'I' for Inactive)
REMARK    1  A    between atoms: C_1  and  C_2
REMARK    2  A    between atoms: C_2  and  O_3
REMARK    3  A    between atoms: O_3  and  C_4
REMARK    4  A    between atoms: C_5  and  S_6
REMARK    5  A    between atoms: S_6  and  N_9
REMARK    6  A    between atoms: N_9  and  C_10
REMARK    7  A    between atoms: N_9  and  C_11
REMARK    8  A    between atoms: C_13  and  S_14
REMARK    9  A    between atoms: S_14  and  N_17
REMARK   10  A    between atoms: N_17  and  C_18
REMARK   11  A    between atoms: N_17  and  C_19
REMARK   12  A    between atoms: C_23  and  C_24
REMARK                            x       y       z     vdW  Elec       q    Type
REMARK                         _______ _______ _______ _____ _____    ______ ____
ROOT
ATOM      1  C   UNL     1      -3.945  12.263  19.518  0.00  0.00    +0.000 A 
ATOM      2  C   UNL     1      -3.552  12.819  20.747  0.00  0.00    +0.000 A 
ATOM      3  C   UNL     1      -2.241  12.672  21.188  0.00  0.00    +0.000 A 
ATOM      4  C   UNL     1      -1.310  11.965  20.414  0.00  0.00    +0.000 A 
ATOM      5  C   UNL     1      -1.694  11.337  19.201  0.00  0.00    +0.000 A 
ATOM      6  C   UNL     1      -0.893  10.466  18.416  0.00  0.00    +0.000 A 
ATOM      7  C   UNL     1      -1.326   9.949  17.199  0.00  0.00    +0.000 A 
ATOM      8  C   UNL     1      -2.555  10.347  16.740  0.00  0.00    +0.000 A 
ATOM      9  C   UNL     1      -3.101   9.889  15.423  0.00  0.00    +0.000 C 
ATOM     10  N   UNL     1      -3.360  11.128  17.485  0.00  0.00    +0.000 NA
ATOM     11  C   UNL     1      -3.005  11.572  18.713  0.00  0.00    +0.000 A 
ENDROOT
BRANCH   2  12
ATOM     12  S   UNL     1      -4.752  13.635  21.788  0.00  0.00    +0.000 S 
ATOM     13  O   UNL     1      -5.366  14.695  21.015  0.00  0.00    +0.000 OA
ATOM     14  O   UNL     1      -5.518  12.586  22.426  0.00  0.00    +0.000 OA
BRANCH  12  15
ATOM     15  N   UNL     1      -3.816  14.406  23.016  0.00  0.00    +0.000 NA
ATOM     16  C   UNL     1      -4.079  15.850  23.214  0.00  0.00    +0.000 C 
ATOM     17  C   UNL     1      -3.765  13.689  24.311  0.00  0.00    +0.000 C 
ENDBRANCH  12  15
ENDBRANCH   2  12
BRANCH   4  18
ATOM     18  S   UNL     1       0.375  11.968  21.048  0.00  0.00    +0.000 S 
ATOM     19  O   UNL     1       1.250  11.777  19.910  0.00  0.00    +0.000 OA
ATOM     20  O   UNL     1       0.568  13.102  21.920  0.00  0.00    +0.000 OA
BRANCH  18  21
ATOM     21  N   UNL     1       0.433  10.538  21.972  0.00  0.00    +0.000 NA
ATOM     22  C   UNL     1      -0.621  10.315  22.973  0.00  0.00    +0.000 C 
ATOM     23  C   UNL     1       0.855   9.304  21.290  0.00  0.00    +0.000 C 
ENDBRANCH  18  21
ENDBRANCH   4  18
BRANCH   1  24
ATOM     24  O   UNL     1      -5.277  12.436  19.176  0.00  0.00    +0.000 OA
BRANCH  24  26
ATOM     25  C   UNL     1      -7.487  11.632  19.767  0.00  0.00    +0.000 C 
ATOM     26  C   UNL     1      -6.117  11.275  19.223  0.00  0.00    +0.000 C 
ENDBRANCH  24  26
ENDBRANCH   1  24
TORSDOF 6
ENDMDL
MODEL 3
REMARK VINA RESULT:      -5.9      2.273      4.287
REMARK  Name = 
REMARK  12 active torsions:
REMARK  status: ('A' for Active; 'I' for Inactive)
REMARK    1  A    between atoms: C_1  and  C_2
REMARK    2  A    between atoms: C_2  and  O_3
REMARK    3  A    between atoms: O_3  and  C_4
REMARK    4  A    between atoms: C_5  and  S_6
REMARK    5  A    between atoms: S_6  and  N_9
REMARK    6  A    between atoms: N_9  and  C_10
REMARK    7  A    between atoms: N_9  and  C_11
REMARK    8  A    between atoms: C_13  and  S_14
REMARK    9  A    between atoms: S_14  and  N_17
REMARK   10  A    between atoms: N_17  and  C_18
REMARK   11  A    between atoms: N_17  and  C_19
REMARK   12  A    between atoms: C_23  and  C_24
REMARK                            x       y       z     vdW  Elec       q    Type
REMARK                         _______ _______ _______ _____ _____    ______ ____
ROOT
ATOM      1  C   UNL     1      -3.215  11.195  18.244  0.00  0.00    +0.000 A 
ATOM      2  C   UNL     1      -4.212  11.969  18.863  0.00  0.00    +0.000 A 
ATOM      3  C   UNL     1      -3.926  12.662  20.034  0.00  0.00    +0.000 A 
ATOM      4  C   UNL     1      -2.647  12.589  20.605  0.00  0.00    +0.000 A 
ATOM      5  C   UNL     1      -1.640  11.764  20.039  0.00  0.00    +0.000 A 
ATOM      6  C   UNL     1      -0.369  11.481  20.606  0.00  0.00    +0.000 A 
ATOM      7  C   UNL     1       0.587  10.717  19.946  0.00  0.00    +0.000 A 
ATOM      8  C   UNL     1       0.288  10.271  18.685  0.00  0.00    +0.000 A 
ATOM      9  C   UNL     1       1.260   9.479  17.867  0.00  0.00    +0.000 C 
ATOM     10  N   UNL     1      -0.927  10.477  18.142  0.00  0.00    +0.000 NA
ATOM     11  C   UNL     1      -1.911  11.138  18.795  0.00  0.00    +0.000 A 
ENDROOT
BRANCH   2  12
ATOM     12  S   UNL     1      -5.871  11.991  18.202  0.00  0.00    +0.000 S 
ATOM     13  O   UNL     1      -5.868  12.821  17.015  0.00  0.00    +0.000 OA
ATOM     14  O   UNL     1      -6.325  10.616  18.195  0.00  0.00    +0.000 OA
BRANCH  12  15
ATOM     15  N   UNL     1      -6.804  12.832  19.385  0.00  0.00    +0.000 NA
ATOM     16  C   UNL     1      -7.727  13.866  18.860  0.00  0.00    +0.000 C 
ATOM     17  C   UNL     1      -7.478  11.972  20.384  0.00  0.00    +0.000 C 
ENDBRANCH  12  15
ENDBRANCH   2  12
BRANCH   4  18
ATOM     18  S   UNL     1      -2.386  13.639  22.043  0.00  0.00    +0.000 S 
ATOM     19  O   UNL     1      -2.079  12.761  23.152  0.00  0.00    +0.000 OA
ATOM     20  O   UNL     1      -1.483  14.714  21.707  0.00  0.00    +0.000 OA
BRANCH  18  21
ATOM     21  N   UNL     1      -3.938  14.284  22.327  0.00  0.00    +0.000 NA
ATOM     22  C   UNL     1      -4.727  13.728  23.436  0.00  0.00    +0.000 C 
ATOM     23  C   UNL     1      -4.110  15.736  22.164  0.00  0.00    +0.000 C 
ENDBRANCH  18  21
ENDBRANCH   4  18
BRANCH   1  24
ATOM     24  O   UNL     1      -3.602  10.518  17.098  0.00  0.00    +0.000 OA
BRANCH  24  26
ATOM     25  C   UNL     1      -2.925  10.006  14.827  0.00  0.00    +0.000 C 
ATOM     26  C   UNL     1      -3.217  11.094  15.842  0.00  0.00    +0.000 C 
ENDBRANCH  24  26
ENDBRANCH   1  24
TORSDOF 6
ENDMDL
MODEL 4
REMARK VINA RESULT:      -5.9      1.562      2.034
REMARK  Name = 
REMARK  12 active torsions:
REMARK  status: ('A' for Active; 'I' for Inactive)
REMARK    1  A    between atoms: C_1  and  C_2
REMARK    2  A    between atoms: C_2  and  O_3
REMARK    3  A    between atoms: O_3  and  C_4
REMARK    4  A    between atoms: C_5  and  S_6
REMARK    5  A    between atoms: S_6  and  N_9
REMARK    6  A    between atoms: N_9  and  C_10
REMARK    7  A    between atoms: N_9  and  C_11
REMARK    8  A    between atoms: C_13  and  S_14
REMARK    9  A    between atoms: S_14  and  N_17
REMARK   10  A    between atoms: N_17  and  C_18
REMARK   11  A    between atoms: N_17  and  C_19
REMARK   12  A    between atoms: C_23  and  C_24
REMARK                            x       y       z     vdW  Elec       q    Type
REMARK                         _______ _______ _______ _____ _____    ______ ____
ROOT
ATOM      1  C   UNL     1      -4.372  12.228  19.646  0.00  0.00    +0.000 A 
ATOM      2  C   UNL     1      -3.901  12.700  20.883  0.00  0.00    +0.000 A 
ATOM      3  C   UNL     1      -2.546  12.620  21.186  0.00  0.00    +0.000 A 
ATOM      4  C   UNL     1      -1.646  12.065  20.265  0.00  0.00    +0.000 A 
ATOM      5  C   UNL     1      -2.101  11.521  19.036  0.00  0.00    +0.000 A 
ATOM      6  C   UNL     1      -1.321  10.793  18.099  0.00  0.00    +0.000 A 
ATOM      7  C   UNL     1      -1.834  10.356  16.881  0.00  0.00    +0.000 A 
ATOM      8  C   UNL     1      -3.127  10.693  16.577  0.00  0.00    +0.000 A 
ATOM      9  C   UNL     1      -3.765  10.315  15.277  0.00  0.00    +0.000 C 
ATOM     10  N   UNL     1      -3.909  11.335  17.466  0.00  0.00    +0.000 NA
ATOM     11  C   UNL     1      -3.468  11.692  18.694  0.00  0.00    +0.000 A 
ENDROOT
BRANCH   2  12
ATOM     12  S   UNL     1      -5.048  13.318  22.104  0.00  0.00    +0.000 S 
ATOM     13  O   UNL     1      -5.465  14.642  21.695  0.00  0.00    +0.000 OA
ATOM     14  O   UNL     1      -5.986  12.245  22.361  0.00  0.00    +0.000 OA
BRANCH  12  15
ATOM     15  N   UNL     1      -4.101  13.522  23.532  0.00  0.00    +0.000 NA
ATOM     16  C   UNL     1      -4.084  14.890  24.102  0.00  0.00    +0.000 C 
ATOM     17  C   UNL     1      -4.325  12.507  24.587  0.00  0.00    +0.000 C 
ENDBRANCH  12  15
ENDBRANCH   2  12
BRANCH   4  18
ATOM     18  S   UNL     1       0.088  12.146  20.739  0.00  0.00    +0.000 S 
ATOM     19  O   UNL     1       0.147  12.876  21.988  0.00  0.00    +0.000 OA
ATOM     20  O   UNL     1       0.682  10.833  20.647  0.00  0.00    +0.000 OA
BRANCH  18  21
ATOM     21  N   UNL     1       0.763  13.148  19.538  0.00  0.00    +0.000 NA
ATOM     22  C   UNL     1       0.226  14.508  19.387  0.00  0.00    +0.000 C 
ATOM     23  C   UNL     1       2.218  13.073  19.330  0.00  0.00    +0.000 C 
ENDBRANCH  18  21
ENDBRANCH   4  18
BRANCH   1  24
ATOM     24  O   UNL     1      -5.740  12.324  19.445  0.00  0.00    +0.000 OA
BRANCH  24  26
ATOM     25  C   UNL     1      -7.188  12.836  17.569  0.00  0.00    +0.000 C 
ATOM     26  C   UNL     1      -6.198  13.375  18.583  0.00  0.00    +0.000 C 
ENDBRANCH  24  26
ENDBRANCH   1  24
TORSDOF 6
ENDMDL
MODEL 5
REMARK VINA RESULT:      -5.8      1.477      1.828
REMARK  Name = 
REMARK  12 active torsions:
REMARK  status: ('A' for Active; 'I' for Inactive)
REMARK    1  A    between atoms: C_1  and  C_2
REMARK    2  A    between atoms: C_2  and  O_3
REMARK    3  A    between atoms: O_3  and  C_4
REMARK    4  A    between atoms: C_5  and  S_6
REMARK    5  A    between atoms: S_6  and  N_9
REMARK    6  A    between atoms: N_9  and  C_10
REMARK    7  A    between atoms: N_9  and  C_11
REMARK    8  A    between atoms: C_13  and  S_14
REMARK    9  A    between atoms: S_14  and  N_17
REMARK   10  A    between atoms: N_17  and  C_18
REMARK   11  A    between atoms: N_17  and  C_19
REMARK   12  A    between atoms: C_23  and  C_24
REMARK                            x       y       z     vdW  Elec       q    Type
REMARK                         _______ _______ _______ _____ _____    ______ ____
ROOT
ATOM      1  C   UNL     1      -3.822  12.329  19.499  0.00  0.00    +0.000 A 
ATOM      2  C   UNL     1      -3.280  12.668  20.750  0.00  0.00    +0.000 A 
ATOM      3  C   UNL     1      -1.990  12.265  21.080  0.00  0.00    +0.000 A 
ATOM      4  C   UNL     1      -1.229  11.516  20.172  0.00  0.00    +0.000 A 
ATOM      5  C   UNL     1      -1.773  11.103  18.928  0.00  0.00    +0.000 A 
ATOM      6  C   UNL     1      -1.169  10.215  17.999  0.00  0.00    +0.000 A 
ATOM      7  C   UNL     1      -1.744   9.920  16.767  0.00  0.00    +0.000 A 
ATOM      8  C   UNL     1      -2.912  10.557  16.441  0.00  0.00    +0.000 A 
ATOM      9  C   UNL     1      -3.593  10.349  15.124  0.00  0.00    +0.000 C 
ATOM     10  N   UNL     1      -3.537  11.363  17.320  0.00  0.00    +0.000 NA
ATOM     11  C   UNL     1      -3.051  11.598  18.561  0.00  0.00    +0.000 A 
ENDROOT
BRANCH   2  12
ATOM     12  S   UNL     1      -4.274  13.536  21.954  0.00  0.00    +0.000 S 
ATOM     13  O   UNL     1      -4.804  14.725  21.321  0.00  0.00    +0.000 OA
ATOM     14  O   UNL     1      -5.116  12.539  22.580  0.00  0.00    +0.000 OA
BRANCH  12  15
ATOM     15  N   UNL     1      -3.148  14.075  23.146  0.00  0.00    +0.000 NA
ATOM     16  C   UNL     1      -2.634  15.454  22.967  0.00  0.00    +0.000 C 
ATOM     17  C   UNL     1      -3.552  13.833  24.550  0.00  0.00    +0.000 C 
ENDBRANCH  12  15
ENDBRANCH   2  12
BRANCH   4  18
ATOM     18  S   UNL     1       0.463  11.178  20.682  0.00  0.00    +0.000 S 
ATOM     19  O   UNL     1       0.470  11.168  22.130  0.00  0.00    +0.000 OA
ATOM     20  O   UNL     1       0.976  10.042  19.954  0.00  0.00    +0.000 OA
BRANCH  18  21
ATOM     21  N   UNL     1       1.296  12.579  20.186  0.00  0.00    +0.000 NA
ATOM     22  C   UNL     1       1.261  12.938  18.760  0.00  0.00    +0.000 C 
ATOM     23  C   UNL     1       1.251  13.748  21.079  0.00  0.00    +0.000 C 
ENDBRANCH  18  21
ENDBRANCH   4  18
BRANCH   1  24
ATOM     24  O   UNL     1      -5.123  12.750  19.271  0.00  0.00    +0.000 OA
BRANCH  24  26
ATOM     25  C   UNL     1      -7.021  11.776  18.119  0.00  0.00    +0.000 C 
ATOM     26  C   UNL     1      -6.153  11.755  19.362  0.00  0.00    +0.000 C 
ENDBRANCH  24  26
ENDBRANCH   1  24
TORSDOF 6
ENDMDL
MODEL 6
REMARK VINA RESULT:      -5.8      1.050      1.323
REMARK  Name = 
REMARK  12 active torsions:
REMARK  status: ('A' for Active; 'I' for Inactive)
REMARK    1  A    between atoms: C_1  and  C_2
REMARK    2  A    between atoms: C_2  and  O_3
REMARK    3  A    between atoms: O_3  and  C_4
REMARK    4  A    between atoms: C_5  and  S_6
REMARK    5  A    between atoms: S_6  and  N_9
REMARK    6  A    between atoms: N_9  and  C_10
REMARK    7  A    between atoms: N_9  and  C_11
REMARK    8  A    between atoms: C_13  and  S_14
REMARK    9  A    between atoms: S_14  and  N_17
REMARK   10  A    between atoms: N_17  and  C_18
REMARK   11  A    between atoms: N_17  and  C_19
REMARK   12  A    between atoms: C_23  and  C_24
REMARK                            x       y       z     vdW  Elec       q    Type
REMARK                         _______ _______ _______ _____ _____    ______ ____
ROOT
ATOM      1  C   UNL     1      -3.864  12.491  19.566  0.00  0.00    +0.000 A 
ATOM      2  C   UNL     1      -3.302  12.870  20.796  0.00  0.00    +0.000 A 
ATOM      3  C   UNL     1      -2.021  12.447  21.134  0.00  0.00    +0.000 A 
ATOM      4  C   UNL     1      -1.288  11.638  20.254  0.00  0.00    +0.000 A 
ATOM      5  C   UNL     1      -1.854  11.186  19.034  0.00  0.00    +0.000 A 
ATOM      6  C   UNL     1      -1.281  10.241  18.141  0.00  0.00    +0.000 A 
ATOM      7  C   UNL     1      -1.875   9.908  16.928  0.00  0.00    +0.000 A 
ATOM      8  C   UNL     1      -3.028  10.562  16.582  0.00  0.00    +0.000 A 
ATOM      9  C   UNL     1      -3.726  10.315  15.281  0.00  0.00    +0.000 C 
ATOM     10  N   UNL     1      -3.625  11.422  17.430  0.00  0.00    +0.000 NA
ATOM     11  C   UNL     1      -3.121  11.698  18.655  0.00  0.00    +0.000 A 
ENDROOT
BRANCH   2  12
ATOM     12  S   UNL     1      -4.261  13.816  21.968  0.00  0.00    +0.000 S 
ATOM     13  O   UNL     1      -3.342  14.444  22.894  0.00  0.00    +0.000 OA
ATOM     14  O   UNL     1      -5.226  14.567  21.193  0.00  0.00    +0.000 OA
BRANCH  12  15
ATOM     15  N   UNL     1      -5.138  12.637  22.872  0.00  0.00    +0.000 NA
ATOM     16  C   UNL     1      -4.699  12.444  24.275  0.00  0.00    +0.000 C 
ATOM     17  C   UNL     1      -6.613  12.743  22.784  0.00  0.00    +0.000 C 
ENDBRANCH  12  15
ENDBRANCH   2  12
BRANCH   4  18
ATOM     18  S   UNL     1       0.399  11.277  20.766  0.00  0.00    +0.000 S 
ATOM     19  O   UNL     1       1.185  11.148  19.557  0.00  0.00    +0.000 OA
ATOM     20  O   UNL     1       0.809  12.206  21.793  0.00  0.00    +0.000 OA
BRANCH  18  21
ATOM     21  N   UNL     1       0.263   9.721  21.446  0.00  0.00    +0.000 NA
ATOM     22  C   UNL     1       1.171   8.670  20.962  0.00  0.00    +0.000 C 
ATOM     23  C   UNL     1      -0.008   9.632  22.890  0.00  0.00    +0.000 C 
ENDBRANCH  18  21
ENDBRANCH   4  18
BRANCH   1  24
ATOM     24  O   UNL     1      -5.155  12.936  19.330  0.00  0.00    +0.000 OA
BRANCH  24  26
ATOM     25  C   UNL     1      -7.107  12.211  18.088  0.00  0.00    +0.000 C 
ATOM     26  C   UNL     1      -6.184  11.940  19.260  0.00  0.00    +0.000 C 
ENDBRANCH  24  26
ENDBRANCH   1  24
TORSDOF 6
ENDMDL
MODEL 7
REMARK VINA RESULT:      -5.8      2.477      4.139
REMARK  Name = 
REMARK  12 active torsions:
REMARK  status: ('A' for Active; 'I' for Inactive)
REMARK    1  A    between atoms: C_1  and  C_2
REMARK    2  A    between atoms: C_2  and  O_3
REMARK    3  A    between atoms: O_3  and  C_4
REMARK    4  A    between atoms: C_5  and  S_6
REMARK    5  A    between atoms: S_6  and  N_9
REMARK    6  A    between atoms: N_9  and  C_10
REMARK    7  A    between atoms: N_9  and  C_11
REMARK    8  A    between atoms: C_13  and  S_14
REMARK    9  A    between atoms: S_14  and  N_17
REMARK   10  A    between atoms: N_17  and  C_18
REMARK   11  A    between atoms: N_17  and  C_19
REMARK   12  A    between atoms: C_23  and  C_24
REMARK                            x       y       z     vdW  Elec       q    Type
REMARK                         _______ _______ _______ _____ _____    ______ ____
ROOT
ATOM      1  C   UNL     1      -3.000  11.096  18.190  0.00  0.00    +0.000 A 
ATOM      2  C   UNL     1      -3.993  11.879  18.803  0.00  0.00    +0.000 A 
ATOM      3  C   UNL     1      -3.709  12.559  19.983  0.00  0.00    +0.000 A 
ATOM      4  C   UNL     1      -2.438  12.463  20.567  0.00  0.00    +0.000 A 
ATOM      5  C   UNL     1      -1.436  11.629  20.006  0.00  0.00    +0.000 A 
ATOM      6  C   UNL     1      -0.176  11.324  20.584  0.00  0.00    +0.000 A 
ATOM      7  C   UNL     1       0.777  10.551  19.928  0.00  0.00    +0.000 A 
ATOM      8  C   UNL     1       0.485  10.120  18.661  0.00  0.00    +0.000 A 
ATOM      9  C   UNL     1       1.455   9.322  17.846  0.00  0.00    +0.000 C 
ATOM     10  N   UNL     1      -0.721  10.347  18.106  0.00  0.00    +0.000 NA
ATOM     11  C   UNL     1      -1.702  11.016  18.754  0.00  0.00    +0.000 A 
ENDROOT
BRANCH   2  12
ATOM     12  S   UNL     1      -5.644  11.929  18.125  0.00  0.00    +0.000 S 
ATOM     13  O   UNL     1      -5.589  12.653  16.872  0.00  0.00    +0.000 OA
ATOM     14  O   UNL     1      -6.169  10.584  18.231  0.00  0.00    +0.000 OA
BRANCH  12  15
ATOM     15  N   UNL     1      -6.539  12.916  19.221  0.00  0.00    +0.000 NA
ATOM     16  C   UNL     1      -7.248  14.068  18.617  0.00  0.00    +0.000 C 
ATOM     17  C   UNL     1      -7.418  12.179  20.159  0.00  0.00    +0.000 C 
ENDBRANCH  12  15
ENDBRANCH   2  12
BRANCH   4  18
ATOM     18  S   UNL     1      -2.178  13.497  22.017  0.00  0.00    +0.000 S 
ATOM     19  O   UNL     1      -3.392  14.263  22.208  0.00  0.00    +0.000 OA
ATOM     20  O   UNL     1      -1.656  12.699  23.101  0.00  0.00    +0.000 OA
BRANCH  18  21
ATOM     21  N   UNL     1      -0.975  14.585  21.496  0.00  0.00    +0.000 NA
ATOM     22  C   UNL     1      -1.358  15.642  20.549  0.00  0.00    +0.000 C 
ATOM     23  C   UNL     1       0.017  15.027  22.489  0.00  0.00    +0.000 C 
ENDBRANCH  18  21
ENDBRANCH   4  18
BRANCH   1  24
ATOM     24  O   UNL     1      -3.383  10.434  17.034  0.00  0.00    +0.000 OA
BRANCH  24  26
ATOM     25  C   UNL     1      -3.134   9.967  14.668  0.00  0.00    +0.000 C 
ATOM     26  C   UNL     1      -2.889  10.955  15.792  0.00  0.00    +0.000 C 
ENDBRANCH  24  26
ENDBRANCH   1  24
TORSDOF 6
ENDMDL
MODEL 8
REMARK VINA RESULT:      -5.8      1.249      5.182
REMARK  Name = 
REMARK  12 active torsions:
REMARK  status: ('A' for Active; 'I' for Inactive)
REMARK    1  A    between atoms: C_1  and  C_2
REMARK    2  A    between atoms: C_2  and  O_3
REMARK    3  A    between atoms: O_3  and  C_4
REMARK    4  A    between atoms: C_5  and  S_6
REMARK    5  A    between atoms: S_6  and  N_9
REMARK    6  A    between atoms: N_9  and  C_10
REMARK    7  A    between atoms: N_9  and  C_11
REMARK    8  A    between atoms: C_13  and  S_14
REMARK    9  A    between atoms: S_14  and  N_17
REMARK   10  A    between atoms: N_17  and  C_18
REMARK   11  A    between atoms: N_17  and  C_19
REMARK   12  A    between atoms: C_23  and  C_24
REMARK                            x       y       z     vdW  Elec       q    Type
REMARK                         _______ _______ _______ _____ _____    ______ ____
ROOT
ATOM      1  C   UNL     1      -1.127  11.505  19.042  0.00  0.00    +0.000 A 
ATOM      2  C   UNL     1      -1.195  12.057  20.332  0.00  0.00    +0.000 A 
ATOM      3  C   UNL     1      -2.412  12.513  20.828  0.00  0.00    +0.000 A 
ATOM      4  C   UNL     1      -3.572  12.429  20.044  0.00  0.00    +0.000 A 
ATOM      5  C   UNL     1      -3.521  11.936  18.714  0.00  0.00    +0.000 A 
ATOM      6  C   UNL     1      -4.583  11.951  17.772  0.00  0.00    +0.000 A 
ATOM      7  C   UNL     1      -4.466  11.379  16.508  0.00  0.00    +0.000 A 
ATOM      8  C   UNL     1      -3.290  10.745  16.203  0.00  0.00    +0.000 A 
ATOM      9  C   UNL     1      -3.072  10.059  14.891  0.00  0.00    +0.000 C 
ATOM     10  N   UNL     1      -2.246  10.761  17.053  0.00  0.00    +0.000 NA
ATOM     11  C   UNL     1      -2.298  11.387  18.252  0.00  0.00    +0.000 A 
ENDROOT
BRANCH   2  12
ATOM     12  S   UNL     1       0.290  12.261  21.302  0.00  0.00    +0.000 S 
ATOM     13  O   UNL     1       1.423  12.201  20.402  0.00  0.00    +0.000 OA
ATOM     14  O   UNL     1       0.049  13.383  22.185  0.00  0.00    +0.000 OA
BRANCH  12  15
ATOM     15  N   UNL     1       0.371  10.845  22.285  0.00  0.00    +0.000 NA
ATOM     16  C   UNL     1      -0.879  10.484  22.996  0.00  0.00    +0.000 C 
ATOM     17  C   UNL     1       0.978   9.661  21.636  0.00  0.00    +0.000 C 
ENDBRANCH  12  15
ENDBRANCH   2  12
BRANCH   4  18
ATOM     18  S   UNL     1      -5.092  12.936  20.863  0.00  0.00    +0.000 S 
ATOM     19  O   UNL     1      -5.647  14.020  20.081  0.00  0.00    +0.000 OA
ATOM     20  O   UNL     1      -5.900  11.776  21.158  0.00  0.00    +0.000 OA
BRANCH  18  21
ATOM     21  N   UNL     1      -4.529  13.607  22.325  0.00  0.00    +0.000 NA
ATOM     22  C   UNL     1      -4.494  15.072  22.447  0.00  0.00    +0.000 C 
ATOM     23  C   UNL     1      -4.909  12.930  23.574  0.00  0.00    +0.000 C 
ENDBRANCH  18  21
ENDBRANCH   4  18
BRANCH   1  24
ATOM     24  O   UNL     1       0.133  11.105  18.624  0.00  0.00    +0.000 OA
BRANCH  24  26
ATOM     25  C   UNL     1       1.732   9.433  17.897  0.00  0.00    +0.000 C 
ATOM     26  C   UNL     1       0.288   9.728  18.253  0.00  0.00    +0.000 C 
ENDBRANCH  24  26
ENDBRANCH   1  24
TORSDOF 6
ENDMDL
MODEL 9
REMARK VINA RESULT:      -5.8      1.832      5.066
REMARK  Name = 
REMARK  12 active torsions:
REMARK  status: ('A' for Active; 'I' for Inactive)
REMARK    1  A    between atoms: C_1  and  C_2
REMARK    2  A    between atoms: C_2  and  O_3
REMARK    3  A    between atoms: O_3  and  C_4
REMARK    4  A    between atoms: C_5  and  S_6
REMARK    5  A    between atoms: S_6  and  N_9
REMARK    6  A    between atoms: N_9  and  C_10
REMARK    7  A    between atoms: N_9  and  C_11
REMARK    8  A    between atoms: C_13  and  S_14
REMARK    9  A    between atoms: S_14  and  N_17
REMARK   10  A    between atoms: N_17  and  C_18
REMARK   11  A    between atoms: N_17  and  C_19
REMARK   12  A    between atoms: C_23  and  C_24
REMARK                            x       y       z     vdW  Elec       q    Type
REMARK                         _______ _______ _______ _____ _____    ______ ____
ROOT
ATOM      1  C   UNL     1      -1.296  11.813  18.991  0.00  0.00    +0.000 A 
ATOM      2  C   UNL     1      -1.467  12.444  20.235  0.00  0.00    +0.000 A 
ATOM      3  C   UNL     1      -2.743  12.791  20.668  0.00  0.00    +0.000 A 
ATOM      4  C   UNL     1      -3.860  12.518  19.866  0.00  0.00    +0.000 A 
ATOM      5  C   UNL     1      -3.713  11.941  18.578  0.00  0.00    +0.000 A 
ATOM      6  C   UNL     1      -4.740  11.766  17.613  0.00  0.00    +0.000 A 
ATOM      7  C   UNL     1      -4.520  11.123  16.399  0.00  0.00    +0.000 A 
ATOM      8  C   UNL     1      -3.272  10.609  16.168  0.00  0.00    +0.000 A 
ATOM      9  C   UNL     1      -2.937   9.860  14.916  0.00  0.00    +0.000 C 
ATOM     10  N   UNL     1      -2.263  10.806  17.038  0.00  0.00    +0.000 NA
ATOM     11  C   UNL     1      -2.422  11.505  18.185  0.00  0.00    +0.000 A 
ENDROOT
BRANCH   2  12
ATOM     12  S   UNL     1      -0.045  12.887  21.220  0.00  0.00    +0.000 S 
ATOM     13  O   UNL     1       0.265  11.767  22.084  0.00  0.00    +0.000 OA
ATOM     14  O   UNL     1       0.920  13.462  20.307  0.00  0.00    +0.000 OA
BRANCH  12  15
ATOM     15  N   UNL     1      -0.600  14.158  22.246  0.00  0.00    +0.000 NA
ATOM     16  C   UNL     1      -1.187  13.732  23.538  0.00  0.00    +0.000 C 
ATOM     17  C   UNL     1       0.353  15.277  22.435  0.00  0.00    +0.000 C 
ENDBRANCH  12  15
ENDBRANCH   2  12
BRANCH   4  18
ATOM     18  S   UNL     1      -5.453  12.904  20.611  0.00  0.00    +0.000 S 
ATOM     19  O   UNL     1      -6.090  13.881  19.754  0.00  0.00    +0.000 OA
ATOM     20  O   UNL     1      -6.145  11.682  20.946  0.00  0.00    +0.000 OA
BRANCH  18  21
ATOM     21  N   UNL     1      -5.014  13.706  22.048  0.00  0.00    +0.000 NA
ATOM     22  C   UNL     1      -5.202  15.163  22.115  0.00  0.00    +0.000 C 
ATOM     23  C   UNL     1      -5.302  13.026  23.321  0.00  0.00    +0.000 C 
ENDBRANCH  18  21
ENDBRANCH   4  18
BRANCH   1  24
ATOM     24  O   UNL     1       0.012  11.532  18.632  0.00  0.00    +0.000 OA
BRANCH  24  26
ATOM     25  C   UNL     1       1.708   9.906  18.031  0.00  0.00    +0.000 C 
ATOM     26  C   UNL     1       0.480  10.197  18.871  0.00  0.00    +0.000 C 
ENDBRANCH  24  26
ENDBRANCH   1  24
TORSDOF 6
ENDMDL
