MODEL 1
REMARK VINA RESULT:      -8.0      0.000      0.000
REMARK  Name = 
REMARK  2 active torsions:
REMARK  status: ('A' for Active; 'I' for Inactive)
REMARK    1  A    between atoms: C_2  and  C_16
REMARK    2  A    between atoms: N_7  and  C_8
REMARK                            x       y       z     vdW  Elec       q    Type
REMARK                         _______ _______ _______ _____ _____    ______ ____
ROOT
ATOM      1  O   UNL     1       3.000   6.134  17.804  0.00  0.00    +0.000 OA
ATOM      2  C   UNL     1       3.286   4.985  18.118  0.00  0.00    +0.000 C 
ATOM      3  N   UNL     1       4.268   4.218  17.535  0.00  0.00    +0.000 N 
ATOM      4  C   UNL     1       5.035   4.697  16.508  0.00  0.00    +0.000 A 
ATOM      5  N   UNL     1       5.536   3.959  15.556  0.00  0.00    +0.000 NA
ATOM      6  C   UNL     1       6.181   4.859  14.756  0.00  0.00    +0.000 A 
ATOM      7  N   UNL     1       6.741   4.447  13.603  0.00  0.00    +0.000 N 
ATOM      8  N   UNL     1       6.226   6.103  15.245  0.00  0.00    +0.000 NA
ATOM      9  N   UNL     1       5.421   5.996  16.323  0.00  0.00    +0.000 N 
ATOM     10  H   UNL     1       4.229   3.209  17.606  0.00  0.00    +0.000 HD
ATOM     11  H   UNL     1       7.344   5.126  13.157  0.00  0.00    +0.000 HD
ATOM     12  H   UNL     1       5.233   6.800  16.910  0.00  0.00    +0.000 HD
ENDROOT
BRANCH   7  13
ATOM     13  C   UNL     1       6.166   3.573  12.648  0.00  0.00    +0.000 A 
ATOM     14  C   UNL     1       6.876   2.515  12.060  0.00  0.00    +0.000 A 
ATOM     15  C   UNL     1       6.272   1.674  11.122  0.00  0.00    +0.000 A 
ATOM     16  C   UNL     1       4.949   1.897  10.738  0.00  0.00    +0.000 A 
ATOM     17  C   UNL     1       4.237   2.952  11.301  0.00  0.00    +0.000 A 
ATOM     18  C   UNL     1       4.838   3.775  12.258  0.00  0.00    +0.000 A 
ENDBRANCH   7  13
BRANCH   2  19
ATOM     19  C   UNL     1       2.520   4.269  19.163  0.00  0.00    +0.000 A 
ATOM     20  C   UNL     1       1.428   3.467  18.811  0.00  0.00    +0.000 A 
ATOM     21  C   UNL     1       0.713   2.797  19.806  0.00  0.00    +0.000 A 
ATOM     22  C   UNL     1       1.075   2.943  21.146  0.00  0.00    +0.000 A 
ATOM     23  C   UNL     1       2.160   3.748  21.498  0.00  0.00    +0.000 A 
ATOM     24  C   UNL     1       2.884   4.409  20.511  0.00  0.00    +0.000 A 
ENDBRANCH   2  19
TORSDOF 2
ENDMDL
MODEL 2
REMARK VINA RESULT:      -8.0      0.120      1.495
REMARK  Name = 
REMARK  2 active torsions:
REMARK  status: ('A' for Active; 'I' for Inactive)
REMARK    1  A    between atoms: C_2  and  C_16
REMARK    2  A    between atoms: N_7  and  C_8
REMARK                            x       y       z     vdW  Elec       q    Type
REMARK                         _______ _______ _______ _____ _____    ______ ____
ROOT
ATOM      1  O   UNL     1       3.206   6.176  17.910  0.00  0.00    +0.000 OA
ATOM      2  C   UNL     1       3.401   4.997  18.182  0.00  0.00    +0.000 C 
ATOM      3  N   UNL     1       4.320   4.177  17.569  0.00  0.00    +0.000 N 
ATOM      4  C   UNL     1       5.123   4.632  16.558  0.00  0.00    +0.000 A 
ATOM      5  N   UNL     1       5.565   3.892  15.578  0.00  0.00    +0.000 NA
ATOM      6  C   UNL     1       6.278   4.767  14.810  0.00  0.00    +0.000 A 
ATOM      7  N   UNL     1       6.805   4.354  13.642  0.00  0.00    +0.000 N 
ATOM      8  N   UNL     1       6.421   5.985  15.343  0.00  0.00    +0.000 NA
ATOM      9  N   UNL     1       5.609   5.902  16.419  0.00  0.00    +0.000 N 
ATOM     10  H   UNL     1       4.202   3.173  17.603  0.00  0.00    +0.000 HD
ATOM     11  H   UNL     1       7.459   5.000  13.219  0.00  0.00    +0.000 HD
ATOM     12  H   UNL     1       5.485   6.698  17.035  0.00  0.00    +0.000 HD
ENDROOT
BRANCH   7  13
ATOM     13  C   UNL     1       6.164   3.563  12.657  0.00  0.00    +0.000 A 
ATOM     14  C   UNL     1       4.831   3.768  12.265  0.00  0.00    +0.000 A 
ATOM     15  C   UNL     1       4.236   2.966  11.288  0.00  0.00    +0.000 A 
ATOM     16  C   UNL     1       4.961   1.927  10.704  0.00  0.00    +0.000 A 
ATOM     17  C   UNL     1       6.278   1.703  11.093  0.00  0.00    +0.000 A 
ATOM     18  C   UNL     1       6.878   2.524  12.053  0.00  0.00    +0.000 A 
ENDBRANCH   7  13
BRANCH   2  19
ATOM     19  C   UNL     1       2.581   4.307  19.202  0.00  0.00    +0.000 A 
ATOM     20  C   UNL     1       2.941   4.369  20.554  0.00  0.00    +0.000 A 
ATOM     21  C   UNL     1       2.159   3.713  21.508  0.00  0.00    +0.000 A 
ATOM     22  C   UNL     1       1.038   2.983  21.111  0.00  0.00    +0.000 A 
ATOM     23  C   UNL     1       0.684   2.915  19.762  0.00  0.00    +0.000 A 
ATOM     24  C   UNL     1       1.450   3.576  18.808  0.00  0.00    +0.000 A 
ENDBRANCH   2  19
TORSDOF 2
ENDMDL
MODEL 3
REMARK VINA RESULT:      -7.9      0.088      1.052
REMARK  Name = 
REMARK  2 active torsions:
REMARK  status: ('A' for Active; 'I' for Inactive)
REMARK    1  A    between atoms: C_2  and  C_16
REMARK    2  A    between atoms: N_7  and  C_8
REMARK                            x       y       z     vdW  Elec       q    Type
REMARK                         _______ _______ _______ _____ _____    ______ ____
ROOT
ATOM      1  O   UNL     1       2.968   6.146  17.778  0.00  0.00    +0.000 OA
ATOM      2  C   UNL     1       3.262   5.000  18.094  0.00  0.00    +0.000 C 
ATOM      3  N   UNL     1       4.252   4.240  17.514  0.00  0.00    +0.000 N 
ATOM      4  C   UNL     1       5.019   4.726  16.489  0.00  0.00    +0.000 A 
ATOM      5  N   UNL     1       5.530   3.991  15.539  0.00  0.00    +0.000 NA
ATOM      6  C   UNL     1       6.169   4.896  14.742  0.00  0.00    +0.000 A 
ATOM      7  N   UNL     1       6.737   4.487  13.590  0.00  0.00    +0.000 N 
ATOM      8  N   UNL     1       6.203   6.140  15.230  0.00  0.00    +0.000 NA
ATOM      9  N   UNL     1       5.395   6.027  16.305  0.00  0.00    +0.000 N 
ATOM     10  H   UNL     1       4.222   3.231  17.585  0.00  0.00    +0.000 HD
ATOM     11  H   UNL     1       7.335   5.171  13.146  0.00  0.00    +0.000 HD
ATOM     12  H   UNL     1       5.199   6.830  16.891  0.00  0.00    +0.000 HD
ENDROOT
BRANCH   7  13
ATOM     13  C   UNL     1       6.172   3.609  12.634  0.00  0.00    +0.000 A 
ATOM     14  C   UNL     1       4.830   3.685  12.229  0.00  0.00    +0.000 A 
ATOM     15  C   UNL     1       4.312   2.799  11.280  0.00  0.00    +0.000 A 
ATOM     16  C   UNL     1       5.127   1.804  10.740  0.00  0.00    +0.000 A 
ATOM     17  C   UNL     1       6.455   1.707  11.142  0.00  0.00    +0.000 A 
ATOM     18  C   UNL     1       6.976   2.611  12.072  0.00  0.00    +0.000 A 
ENDBRANCH   7  13
BRANCH   2  19
ATOM     19  C   UNL     1       2.499   4.278  19.137  0.00  0.00    +0.000 A 
ATOM     20  C   UNL     1       1.433   3.443  18.778  0.00  0.00    +0.000 A 
ATOM     21  C   UNL     1       0.721   2.768  19.771  0.00  0.00    +0.000 A 
ATOM     22  C   UNL     1       1.057   2.941  21.115  0.00  0.00    +0.000 A 
ATOM     23  C   UNL     1       2.115   3.780  21.472  0.00  0.00    +0.000 A 
ATOM     24  C   UNL     1       2.837   4.446  20.488  0.00  0.00    +0.000 A 
ENDBRANCH   2  19
TORSDOF 2
ENDMDL
MODEL 4
REMARK VINA RESULT:      -7.7      0.997      1.494
REMARK  Name = 
REMARK  2 active torsions:
REMARK  status: ('A' for Active; 'I' for Inactive)
REMARK    1  A    between atoms: C_2  and  C_16
REMARK    2  A    between atoms: N_7  and  C_8
REMARK                            x       y       z     vdW  Elec       q    Type
REMARK                         _______ _______ _______ _____ _____    ______ ____
ROOT
ATOM      1  O   UNL     1       4.222   6.400  18.056  0.00  0.00    +0.000 OA
ATOM      2  C   UNL     1       4.240   5.202  18.311  0.00  0.00    +0.000 C 
ATOM      3  N   UNL     1       4.956   4.250  17.623  0.00  0.00    +0.000 N 
ATOM      4  C   UNL     1       5.737   4.579  16.548  0.00  0.00    +0.000 A 
ATOM      5  N   UNL     1       5.967   3.789  15.535  0.00  0.00    +0.000 NA
ATOM      6  C   UNL     1       6.750   4.545  14.710  0.00  0.00    +0.000 A 
ATOM      7  N   UNL     1       7.102   4.067  13.501  0.00  0.00    +0.000 N 
ATOM      8  N   UNL     1       7.137   5.715  15.229  0.00  0.00    +0.000 NA
ATOM      9  N   UNL     1       6.414   5.753  16.368  0.00  0.00    +0.000 N 
ATOM     10  H   UNL     1       4.677   3.279  17.667  0.00  0.00    +0.000 HD
ATOM     11  H   UNL     1       7.817   4.601  13.025  0.00  0.00    +0.000 HD
ATOM     12  H   UNL     1       6.475   6.549  16.992  0.00  0.00    +0.000 HD
ENDROOT
BRANCH   7  13
ATOM     13  C   UNL     1       6.259   3.407  12.574  0.00  0.00    +0.000 A 
ATOM     14  C   UNL     1       4.962   3.852  12.273  0.00  0.00    +0.000 A 
ATOM     15  C   UNL     1       4.163   3.173  11.350  0.00  0.00    +0.000 A 
ATOM     16  C   UNL     1       4.643   2.018  10.731  0.00  0.00    +0.000 A 
ATOM     17  C   UNL     1       5.921   1.556  11.030  0.00  0.00    +0.000 A 
ATOM     18  C   UNL     1       6.727   2.254  11.935  0.00  0.00    +0.000 A 
ENDBRANCH   7  13
BRANCH   2  19
ATOM     19  C   UNL     1       3.404   4.643  19.396  0.00  0.00    +0.000 A 
ATOM     20  C   UNL     1       3.622   3.336  19.851  0.00  0.00    +0.000 A 
ATOM     21  C   UNL     1       2.827   2.819  20.876  0.00  0.00    +0.000 A 
ATOM     22  C   UNL     1       1.807   3.595  21.429  0.00  0.00    +0.000 A 
ATOM     23  C   UNL     1       1.585   4.896  20.970  0.00  0.00    +0.000 A 
ATOM     24  C   UNL     1       2.381   5.421  19.958  0.00  0.00    +0.000 A 
ENDBRANCH   2  19
TORSDOF 2
ENDMDL
MODEL 5
REMARK VINA RESULT:      -7.7      5.530      8.159
REMARK  Name = 
REMARK  2 active torsions:
REMARK  status: ('A' for Active; 'I' for Inactive)
REMARK    1  A    between atoms: C_2  and  C_16
REMARK    2  A    between atoms: N_7  and  C_8
REMARK                            x       y       z     vdW  Elec       q    Type
REMARK                         _______ _______ _______ _____ _____    ______ ____
ROOT
ATOM      1  O   UNL     1       8.140   9.825  17.246  0.00  0.00    +0.000 OA
ATOM      2  C   UNL     1       8.614   9.428  18.303  0.00  0.00    +0.000 C 
ATOM      3  N   UNL     1       8.532   8.141  18.782  0.00  0.00    +0.000 N 
ATOM      4  C   UNL     1       7.879   7.159  18.087  0.00  0.00    +0.000 A 
ATOM      5  N   UNL     1       7.262   6.150  18.640  0.00  0.00    +0.000 NA
ATOM      6  C   UNL     1       6.741   5.471  17.576  0.00  0.00    +0.000 A 
ATOM      7  N   UNL     1       5.944   4.406  17.790  0.00  0.00    +0.000 N 
ATOM      8  N   UNL     1       7.126   5.929  16.381  0.00  0.00    +0.000 NA
ATOM      9  N   UNL     1       7.787   7.054  16.727  0.00  0.00    +0.000 N 
ATOM     10  H   UNL     1       8.644   7.963  19.772  0.00  0.00    +0.000 HD
ATOM     11  H   UNL     1       5.742   3.855  16.966  0.00  0.00    +0.000 HD
ATOM     12  H   UNL     1       8.194   7.653  16.018  0.00  0.00    +0.000 HD
ENDROOT
BRANCH   7  13
ATOM     13  C   UNL     1       4.895   4.310  18.736  0.00  0.00    +0.000 A 
ATOM     14  C   UNL     1       4.564   3.112  19.388  0.00  0.00    +0.000 A 
ATOM     15  C   UNL     1       3.522   3.060  20.317  0.00  0.00    +0.000 A 
ATOM     16  C   UNL     1       2.774   4.207  20.589  0.00  0.00    +0.000 A 
ATOM     17  C   UNL     1       3.081   5.399  19.939  0.00  0.00    +0.000 A 
ATOM     18  C   UNL     1       4.142   5.452  19.030  0.00  0.00    +0.000 A 
ENDBRANCH   7  13
BRANCH   2  19
ATOM     19  C   UNL     1       9.299  10.359  19.227  0.00  0.00    +0.000 A 
ATOM     20  C   UNL     1       8.841  10.510  20.542  0.00  0.00    +0.000 A 
ATOM     21  C   UNL     1       9.495  11.392  21.405  0.00  0.00    +0.000 A 
ATOM     22  C   UNL     1      10.586  12.134  20.952  0.00  0.00    +0.000 A 
ATOM     23  C   UNL     1      11.038  11.989  19.638  0.00  0.00    +0.000 A 
ATOM     24  C   UNL     1      10.399  11.104  18.777  0.00  0.00    +0.000 A 
ENDBRANCH   2  19
TORSDOF 2
ENDMDL
MODEL 6
REMARK VINA RESULT:      -7.7      1.408      1.876
REMARK  Name = 
REMARK  2 active torsions:
REMARK  status: ('A' for Active; 'I' for Inactive)
REMARK    1  A    between atoms: C_2  and  C_16
REMARK    2  A    between atoms: N_7  and  C_8
REMARK                            x       y       z     vdW  Elec       q    Type
REMARK                         _______ _______ _______ _____ _____    ______ ____
ROOT
ATOM      1  O   UNL     1       3.419   6.358  19.032  0.00  0.00    +0.000 OA
ATOM      2  C   UNL     1       3.696   5.170  19.147  0.00  0.00    +0.000 C 
ATOM      3  N   UNL     1       4.754   4.533  18.541  0.00  0.00    +0.000 N 
ATOM      4  C   UNL     1       5.619   5.206  17.720  0.00  0.00    +0.000 A 
ATOM      5  N   UNL     1       6.240   4.669  16.705  0.00  0.00    +0.000 NA
ATOM      6  C   UNL     1       6.947   5.710  16.175  0.00  0.00    +0.000 A 
ATOM      7  N   UNL     1       7.641   5.532  15.034  0.00  0.00    +0.000 N 
ATOM      8  N   UNL     1       6.909   6.833  16.897  0.00  0.00    +0.000 NA
ATOM      9  N   UNL     1       5.992   6.516  17.836  0.00  0.00    +0.000 N 
ATOM     10  H   UNL     1       4.732   3.531  18.409  0.00  0.00    +0.000 HD
ATOM     11  H   UNL     1       8.273   6.286  14.800  0.00  0.00    +0.000 HD
ATOM     12  H   UNL     1       5.721   7.190  18.543  0.00  0.00    +0.000 HD
ENDROOT
BRANCH   7  13
ATOM     13  C   UNL     1       7.197   4.861  13.868  0.00  0.00    +0.000 A 
ATOM     14  C   UNL     1       6.149   3.927  13.881  0.00  0.00    +0.000 A 
ATOM     15  C   UNL     1       5.739   3.289  12.708  0.00  0.00    +0.000 A 
ATOM     16  C   UNL     1       6.392   3.557  11.504  0.00  0.00    +0.000 A 
ATOM     17  C   UNL     1       7.442   4.470  11.479  0.00  0.00    +0.000 A 
ATOM     18  C   UNL     1       7.832   5.126  12.651  0.00  0.00    +0.000 A 
ENDBRANCH   7  13
BRANCH   2  19
ATOM     19  C   UNL     1       2.836   4.262  19.939  0.00  0.00    +0.000 A 
ATOM     20  C   UNL     1       1.444   4.302  19.790  0.00  0.00    +0.000 A 
ATOM     21  C   UNL     1       0.643   3.441  20.543  0.00  0.00    +0.000 A 
ATOM     22  C   UNL     1       1.228   2.560  21.454  0.00  0.00    +0.000 A 
ATOM     23  C   UNL     1       2.616   2.526  21.608  0.00  0.00    +0.000 A 
ATOM     24  C   UNL     1       3.420   3.372  20.853  0.00  0.00    +0.000 A 
ENDBRANCH   2  19
TORSDOF 2
ENDMDL
MODEL 7
REMARK VINA RESULT:      -7.7      1.320      1.989
REMARK  Name = 
REMARK  2 active torsions:
REMARK  status: ('A' for Active; 'I' for Inactive)
REMARK    1  A    between atoms: C_2  and  C_16
REMARK    2  A    between atoms: N_7  and  C_8
REMARK                            x       y       z     vdW  Elec       q    Type
REMARK                         _______ _______ _______ _____ _____    ______ ____
ROOT
ATOM      1  O   UNL     1       3.187   6.480  18.925  0.00  0.00    +0.000 OA
ATOM      2  C   UNL     1       3.480   5.301  19.081  0.00  0.00    +0.000 C 
ATOM      3  N   UNL     1       4.571   4.669  18.530  0.00  0.00    +0.000 N 
ATOM      4  C   UNL     1       5.454   5.338  17.724  0.00  0.00    +0.000 A 
ATOM      5  N   UNL     1       6.121   4.787  16.747  0.00  0.00    +0.000 NA
ATOM      6  C   UNL     1       6.829   5.827  16.216  0.00  0.00    +0.000 A 
ATOM      7  N   UNL     1       7.568   5.634  15.106  0.00  0.00    +0.000 N 
ATOM      8  N   UNL     1       6.743   6.968  16.907  0.00  0.00    +0.000 NA
ATOM      9  N   UNL     1       5.799   6.657  17.820  0.00  0.00    +0.000 N 
ATOM     10  H   UNL     1       4.573   3.663  18.424  0.00  0.00    +0.000 HD
ATOM     11  H   UNL     1       8.194   6.394  14.876  0.00  0.00    +0.000 HD
ATOM     12  H   UNL     1       5.490   7.343  18.499  0.00  0.00    +0.000 HD
ENDROOT
BRANCH   7  13
ATOM     13  C   UNL     1       7.179   4.926  13.943  0.00  0.00    +0.000 A 
ATOM     14  C   UNL     1       7.833   5.071  12.709  0.00  0.00    +0.000 A 
ATOM     15  C   UNL     1       7.419   4.352  11.585  0.00  0.00    +0.000 A 
ATOM     16  C   UNL     1       6.322   3.494  11.673  0.00  0.00    +0.000 A 
ATOM     17  C   UNL     1       5.654   3.352  12.885  0.00  0.00    +0.000 A 
ATOM     18  C   UNL     1       6.088   4.053  14.014  0.00  0.00    +0.000 A 
ENDBRANCH   7  13
BRANCH   2  19
ATOM     19  C   UNL     1       2.609   4.397  19.865  0.00  0.00    +0.000 A 
ATOM     20  C   UNL     1       2.919   4.102  21.198  0.00  0.00    +0.000 A 
ATOM     21  C   UNL     1       2.089   3.247  21.928  0.00  0.00    +0.000 A 
ATOM     22  C   UNL     1       0.968   2.676  21.323  0.00  0.00    +0.000 A 
ATOM     23  C   UNL     1       0.663   2.965  19.991  0.00  0.00    +0.000 A 
ATOM     24  C   UNL     1       1.479   3.824  19.262  0.00  0.00    +0.000 A 
ENDBRANCH   2  19
TORSDOF 2
ENDMDL
MODEL 8
REMARK VINA RESULT:      -7.7      1.397      1.750
REMARK  Name = 
REMARK  2 active torsions:
REMARK  status: ('A' for Active; 'I' for Inactive)
REMARK    1  A    between atoms: C_2  and  C_16
REMARK    2  A    between atoms: N_7  and  C_8
REMARK                            x       y       z     vdW  Elec       q    Type
REMARK                         _______ _______ _______ _____ _____    ______ ____
ROOT
ATOM      1  O   UNL     1       3.422   6.380  19.040  0.00  0.00    +0.000 OA
ATOM      2  C   UNL     1       3.694   5.191  19.158  0.00  0.00    +0.000 C 
ATOM      3  N   UNL     1       4.752   4.550  18.555  0.00  0.00    +0.000 N 
ATOM      4  C   UNL     1       5.621   5.219  17.736  0.00  0.00    +0.000 A 
ATOM      5  N   UNL     1       6.244   4.679  16.724  0.00  0.00    +0.000 NA
ATOM      6  C   UNL     1       6.956   5.716  16.193  0.00  0.00    +0.000 A 
ATOM      7  N   UNL     1       7.652   5.534  15.055  0.00  0.00    +0.000 N 
ATOM      8  N   UNL     1       6.918   6.841  16.914  0.00  0.00    +0.000 NA
ATOM      9  N   UNL     1       5.998   6.528  17.851  0.00  0.00    +0.000 N 
ATOM     10  H   UNL     1       4.727   3.547  18.426  0.00  0.00    +0.000 HD
ATOM     11  H   UNL     1       8.287   6.286  14.821  0.00  0.00    +0.000 HD
ATOM     12  H   UNL     1       5.727   7.204  18.556  0.00  0.00    +0.000 HD
ENDROOT
BRANCH   7  13
ATOM     13  C   UNL     1       7.209   4.863  13.889  0.00  0.00    +0.000 A 
ATOM     14  C   UNL     1       7.808   5.044  12.633  0.00  0.00    +0.000 A 
ATOM     15  C   UNL     1       7.341   4.361  11.507  0.00  0.00    +0.000 A 
ATOM     16  C   UNL     1       6.247   3.503  11.617  0.00  0.00    +0.000 A 
ATOM     17  C   UNL     1       5.633   3.325  12.854  0.00  0.00    +0.000 A 
ATOM     18  C   UNL     1       6.120   3.990  13.983  0.00  0.00    +0.000 A 
ENDBRANCH   7  13
BRANCH   2  19
ATOM     19  C   UNL     1       2.830   4.287  19.949  0.00  0.00    +0.000 A 
ATOM     20  C   UNL     1       1.441   4.302  19.766  0.00  0.00    +0.000 A 
ATOM     21  C   UNL     1       0.636   3.444  20.519  0.00  0.00    +0.000 A 
ATOM     22  C   UNL     1       1.212   2.593  21.463  0.00  0.00    +0.000 A 
ATOM     23  C   UNL     1       2.596   2.583  21.650  0.00  0.00    +0.000 A 
ATOM     24  C   UNL     1       3.405   3.426  20.895  0.00  0.00    +0.000 A 
ENDBRANCH   2  19
TORSDOF 2
ENDMDL
MODEL 9
REMARK VINA RESULT:      -7.7      5.529      8.205
REMARK  Name = 
REMARK  2 active torsions:
REMARK  status: ('A' for Active; 'I' for Inactive)
REMARK    1  A    between atoms: C_2  and  C_16
REMARK    2  A    between atoms: N_7  and  C_8
REMARK                            x       y       z     vdW  Elec       q    Type
REMARK                         _______ _______ _______ _____ _____    ______ ____
ROOT
ATOM      1  O   UNL     1       8.157   9.820  17.235  0.00  0.00    +0.000 OA
ATOM      2  C   UNL     1       8.620   9.425  18.299  0.00  0.00    +0.000 C 
ATOM      3  N   UNL     1       8.524   8.142  18.784  0.00  0.00    +0.000 N 
ATOM      4  C   UNL     1       7.871   7.160  18.089  0.00  0.00    +0.000 A 
ATOM      5  N   UNL     1       7.243   6.159  18.642  0.00  0.00    +0.000 NA
ATOM      6  C   UNL     1       6.726   5.477  17.578  0.00  0.00    +0.000 A 
ATOM      7  N   UNL     1       5.921   4.418  17.791  0.00  0.00    +0.000 N 
ATOM      8  N   UNL     1       7.125   5.925  16.384  0.00  0.00    +0.000 NA
ATOM      9  N   UNL     1       7.790   7.048  16.729  0.00  0.00    +0.000 N 
ATOM     10  H   UNL     1       8.626   7.969  19.776  0.00  0.00    +0.000 HD
ATOM     11  H   UNL     1       5.722   3.864  16.969  0.00  0.00    +0.000 HD
ATOM     12  H   UNL     1       8.208   7.640  16.020  0.00  0.00    +0.000 HD
ENDROOT
BRANCH   7  13
ATOM     13  C   UNL     1       4.862   4.335  18.728  0.00  0.00    +0.000 A 
ATOM     14  C   UNL     1       4.090   5.445  19.105  0.00  0.00    +0.000 A 
ATOM     15  C   UNL     1       3.052   5.321  20.032  0.00  0.00    +0.000 A 
ATOM     16  C   UNL     1       2.788   4.083  20.618  0.00  0.00    +0.000 A 
ATOM     17  C   UNL     1       3.555   2.976  20.266  0.00  0.00    +0.000 A 
ATOM     18  C   UNL     1       4.575   3.100  19.318  0.00  0.00    +0.000 A 
ENDBRANCH   7  13
BRANCH   2  19
ATOM     19  C   UNL     1       9.302  10.358  19.224  0.00  0.00    +0.000 A 
ATOM     20  C   UNL     1       8.843  10.507  20.539  0.00  0.00    +0.000 A 
ATOM     21  C   UNL     1       9.495  11.389  21.402  0.00  0.00    +0.000 A 
ATOM     22  C   UNL     1      10.586  12.134  20.949  0.00  0.00    +0.000 A 
ATOM     23  C   UNL     1      11.038  11.990  19.636  0.00  0.00    +0.000 A 
ATOM     24  C   UNL     1      10.401  11.104  18.774  0.00  0.00    +0.000 A 
ENDBRANCH   2  19
TORSDOF 2
ENDMDL
