MODEL 1
REMARK VINA RESULT:      -6.1      0.000      0.000
REMARK  Name = 
REMARK  3 active torsions:
REMARK  status: ('A' for Active; 'I' for Inactive)
REMARK    1  A    between atoms: N_1  and  C_2
REMARK    2  A    between atoms: C_5  and  O_6
REMARK    3  A    between atoms: O_6  and  C_7
REMARK                            x       y       z     vdW  Elec       q    Type
REMARK                         _______ _______ _______ _____ _____    ______ ____
ROOT
ATOM      1  C   UNL     1       1.451   3.506  19.503  0.00  0.00    +0.000 C 
ATOM      2  C   UNL     1       2.541   2.456  19.746  0.00  0.00    +0.000 C 
ATOM      3  C   UNL     1       3.930   3.048  19.523  0.00  0.00    +0.000 C 
ATOM      4  C   UNL     1       4.074   3.671  18.128  0.00  0.00    +0.000 C 
ATOM      5  C   UNL     1       2.959   4.687  17.857  0.00  0.00    +0.000 C 
ATOM      6  C   UNL     1       1.571   4.096  18.094  0.00  0.00    +0.000 C 
ENDROOT
BRANCH   1   7
ATOM      7  N   UNL     1       0.123   2.926  19.685  0.00  0.00    +0.000 NA
ATOM      8  H   UNL     1      -0.589   3.629  19.494  0.00  0.00    +0.000 HD
ATOM      9  H   UNL     1      -0.008   2.645  20.656  0.00  0.00    +0.000 HD
ENDBRANCH   1   7
BRANCH   4  10
ATOM     10  O   UNL     1       5.344   4.340  18.098  0.00  0.00    +0.000 OA
BRANCH  10  11
ATOM     11  C   UNL     1       5.891   4.503  16.846  0.00  0.00    +0.000 A 
ATOM     12  C   UNL     1       6.791   5.544  16.663  0.00  0.00    +0.000 A 
ATOM     13  N   UNL     1       7.414   5.779  15.480  0.00  0.00    +0.000 NA
ATOM     14  C   UNL     1       7.094   4.919  14.488  0.00  0.00    +0.000 A 
ATOM     15  C   UNL     1       6.194   3.883  14.667  0.00  0.00    +0.000 A 
ATOM     16  N   UNL     1       5.571   3.652  15.847  0.00  0.00    +0.000 NA
ENDBRANCH  10  11
ENDBRANCH   4  10
TORSDOF 3
ENDMDL
MODEL 2
REMARK VINA RESULT:      -6.0      1.226      1.335
REMARK  Name = 
REMARK  3 active torsions:
REMARK  status: ('A' for Active; 'I' for Inactive)
REMARK    1  A    between atoms: N_1  and  C_2
REMARK    2  A    between atoms: C_5  and  O_6
REMARK    3  A    between atoms: O_6  and  C_7
REMARK                            x       y       z     vdW  Elec       q    Type
REMARK                         _______ _______ _______ _____ _____    ______ ____
ROOT
ATOM      1  C   UNL     1       1.292   3.887  20.026  0.00  0.00    +0.000 C 
ATOM      2  C   UNL     1       2.661   4.366  20.522  0.00  0.00    +0.000 C 
ATOM      3  C   UNL     1       3.308   5.310  19.512  0.00  0.00    +0.000 C 
ATOM      4  C   UNL     1       3.423   4.675  18.120  0.00  0.00    +0.000 C 
ATOM      5  C   UNL     1       2.068   4.147  17.637  0.00  0.00    +0.000 C 
ATOM      6  C   UNL     1       1.417   3.214  18.656  0.00  0.00    +0.000 C 
ENDROOT
BRANCH   1   7
ATOM      7  N   UNL     1       0.693   2.958  20.981  0.00  0.00    +0.000 NA
ATOM      8  H   UNL     1      -0.138   2.533  20.572  0.00  0.00    +0.000 HD
ATOM      9  H   UNL     1       0.377   3.460  21.809  0.00  0.00    +0.000 HD
ENDBRANCH   1   7
BRANCH   4  10
ATOM     10  O   UNL     1       3.880   5.702  17.228  0.00  0.00    +0.000 OA
BRANCH  10  11
ATOM     11  C   UNL     1       4.994   5.383  16.486  0.00  0.00    +0.000 A 
ATOM     12  C   UNL     1       6.117   6.188  16.625  0.00  0.00    +0.000 A 
ATOM     13  N   UNL     1       7.279   5.949  15.965  0.00  0.00    +0.000 NA
ATOM     14  C   UNL     1       7.265   4.862  15.163  0.00  0.00    +0.000 A 
ATOM     15  C   UNL     1       6.146   4.061  15.020  0.00  0.00    +0.000 A 
ATOM     16  N   UNL     1       4.986   4.302  15.676  0.00  0.00    +0.000 NA
ENDBRANCH  10  11
ENDBRANCH   4  10
TORSDOF 3
ENDMDL
MODEL 3
REMARK VINA RESULT:      -6.0      1.665      5.889
REMARK  Name = 
REMARK  3 active torsions:
REMARK  status: ('A' for Active; 'I' for Inactive)
REMARK    1  A    between atoms: N_1  and  C_2
REMARK    2  A    between atoms: C_5  and  O_6
REMARK    3  A    between atoms: O_6  and  C_7
REMARK                            x       y       z     vdW  Elec       q    Type
REMARK                         _______ _______ _______ _____ _____    ______ ____
ROOT
ATOM      1  C   UNL     1       6.776   5.464  16.006  0.00  0.00    +0.000 C 
ATOM      2  C   UNL     1       5.319   5.015  15.849  0.00  0.00    +0.000 C 
ATOM      3  C   UNL     1       4.519   5.305  17.116  0.00  0.00    +0.000 C 
ATOM      4  C   UNL     1       5.155   4.669  18.359  0.00  0.00    +0.000 C 
ATOM      5  C   UNL     1       6.627   5.073  18.497  0.00  0.00    +0.000 C 
ATOM      6  C   UNL     1       7.422   4.794  17.223  0.00  0.00    +0.000 C 
ENDROOT
BRANCH   1   7
ATOM      7  N   UNL     1       7.546   5.153  14.804  0.00  0.00    +0.000 NA
ATOM      8  H   UNL     1       8.165   5.931  14.581  0.00  0.00    +0.000 HD
ATOM      9  H   UNL     1       6.922   5.047  14.005  0.00  0.00    +0.000 HD
ENDBRANCH   1   7
BRANCH   4  10
ATOM     10  O   UNL     1       4.422   5.149  19.496  0.00  0.00    +0.000 OA
BRANCH  10  11
ATOM     11  C   UNL     1       3.305   4.415  19.826  0.00  0.00    +0.000 A 
ATOM     12  C   UNL     1       2.163   5.108  20.203  0.00  0.00    +0.000 A 
ATOM     13  N   UNL     1       0.998   4.488  20.521  0.00  0.00    +0.000 NA
ATOM     14  C   UNL     1       1.030   3.139  20.439  0.00  0.00    +0.000 A 
ATOM     15  C   UNL     1       2.169   2.447  20.067  0.00  0.00    +0.000 A 
ATOM     16  N   UNL     1       3.331   3.066  19.754  0.00  0.00    +0.000 NA
ENDBRANCH  10  11
ENDBRANCH   4  10
TORSDOF 3
ENDMDL
MODEL 4
REMARK VINA RESULT:      -6.0      1.587      5.876
REMARK  Name = 
REMARK  3 active torsions:
REMARK  status: ('A' for Active; 'I' for Inactive)
REMARK    1  A    between atoms: N_1  and  C_2
REMARK    2  A    between atoms: C_5  and  O_6
REMARK    3  A    between atoms: O_6  and  C_7
REMARK                            x       y       z     vdW  Elec       q    Type
REMARK                         _______ _______ _______ _____ _____    ______ ____
ROOT
ATOM      1  C   UNL     1       6.949   4.674  15.698  0.00  0.00    +0.000 C 
ATOM      2  C   UNL     1       7.312   5.449  16.970  0.00  0.00    +0.000 C 
ATOM      3  C   UNL     1       6.806   4.724  18.214  0.00  0.00    +0.000 C 
ATOM      4  C   UNL     1       5.297   4.455  18.152  0.00  0.00    +0.000 C 
ATOM      5  C   UNL     1       4.917   3.725  16.859  0.00  0.00    +0.000 C 
ATOM      6  C   UNL     1       5.436   4.445  15.617  0.00  0.00    +0.000 C 
ENDROOT
BRANCH   1   7
ATOM      7  N   UNL     1       7.406   5.388  14.509  0.00  0.00    +0.000 NA
ATOM      8  H   UNL     1       7.182   6.379  14.595  0.00  0.00    +0.000 HD
ATOM      9  H   UNL     1       6.907   5.055  13.685  0.00  0.00    +0.000 HD
ENDBRANCH   1   7
BRANCH   4  10
ATOM     10  O   UNL     1       4.972   3.628  19.279  0.00  0.00    +0.000 OA
BRANCH  10  11
ATOM     11  C   UNL     1       3.674   3.726  19.724  0.00  0.00    +0.000 A 
ATOM     12  C   UNL     1       2.939   2.554  19.843  0.00  0.00    +0.000 A 
ATOM     13  N   UNL     1       1.660   2.530  20.299  0.00  0.00    +0.000 NA
ATOM     14  C   UNL     1       1.154   3.737  20.635  0.00  0.00    +0.000 A 
ATOM     15  C   UNL     1       1.883   4.906  20.513  0.00  0.00    +0.000 A 
ATOM     16  N   UNL     1       3.156   4.930  20.055  0.00  0.00    +0.000 NA
ENDBRANCH  10  11
ENDBRANCH   4  10
TORSDOF 3
ENDMDL
MODEL 5
REMARK VINA RESULT:      -6.0      1.653      2.553
REMARK  Name = 
REMARK  3 active torsions:
REMARK  status: ('A' for Active; 'I' for Inactive)
REMARK    1  A    between atoms: N_1  and  C_2
REMARK    2  A    between atoms: C_5  and  O_6
REMARK    3  A    between atoms: O_6  and  C_7
REMARK                            x       y       z     vdW  Elec       q    Type
REMARK                         _______ _______ _______ _____ _____    ______ ____
ROOT
ATOM      1  C   UNL     1       1.488   2.674  18.878  0.00  0.00    +0.000 C 
ATOM      2  C   UNL     1       1.579   3.912  17.979  0.00  0.00    +0.000 C 
ATOM      3  C   UNL     1       2.947   4.003  17.310  0.00  0.00    +0.000 C 
ATOM      4  C   UNL     1       4.092   3.986  18.332  0.00  0.00    +0.000 C 
ATOM      5  C   UNL     1       3.981   2.778  19.268  0.00  0.00    +0.000 C 
ATOM      6  C   UNL     1       2.607   2.681  19.925  0.00  0.00    +0.000 C 
ENDROOT
BRANCH   1   7
ATOM      7  N   UNL     1       0.189   2.610  19.542  0.00  0.00    +0.000 NA
ATOM      8  H   UNL     1      -0.245   1.706  19.363  0.00  0.00    +0.000 HD
ATOM      9  H   UNL     1      -0.440   3.310  19.152  0.00  0.00    +0.000 HD
ENDBRANCH   1   7
BRANCH   4  10
ATOM     10  O   UNL     1       5.316   3.902  17.588  0.00  0.00    +0.000 OA
BRANCH  10  11
ATOM     11  C   UNL     1       6.211   4.922  17.813  0.00  0.00    +0.000 A 
ATOM     12  C   UNL     1       6.273   5.948  16.880  0.00  0.00    +0.000 A 
ATOM     13  N   UNL     1       7.097   7.019  17.017  0.00  0.00    +0.000 NA
ATOM     14  C   UNL     1       7.855   7.014  18.135  0.00  0.00    +0.000 A 
ATOM     15  C   UNL     1       7.798   5.990  19.064  0.00  0.00    +0.000 A 
ATOM     16  N   UNL     1       6.978   4.922  18.926  0.00  0.00    +0.000 NA
ENDBRANCH  10  11
ENDBRANCH   4  10
TORSDOF 3
ENDMDL
MODEL 6
REMARK VINA RESULT:      -6.0      1.759      5.833
REMARK  Name = 
REMARK  3 active torsions:
REMARK  status: ('A' for Active; 'I' for Inactive)
REMARK    1  A    between atoms: N_1  and  C_2
REMARK    2  A    between atoms: C_5  and  O_6
REMARK    3  A    between atoms: O_6  and  C_7
REMARK                            x       y       z     vdW  Elec       q    Type
REMARK                         _______ _______ _______ _____ _____    ______ ____
ROOT
ATOM      1  C   UNL     1       6.042   5.379  15.563  0.00  0.00    +0.000 C 
ATOM      2  C   UNL     1       5.630   4.041  16.188  0.00  0.00    +0.000 C 
ATOM      3  C   UNL     1       4.195   4.099  16.705  0.00  0.00    +0.000 C 
ATOM      4  C   UNL     1       3.985   5.252  17.695  0.00  0.00    +0.000 C 
ATOM      5  C   UNL     1       4.441   6.587  17.097  0.00  0.00    +0.000 C 
ATOM      6  C   UNL     1       5.871   6.522  16.568  0.00  0.00    +0.000 C 
ENDROOT
BRANCH   1   7
ATOM      7  N   UNL     1       7.426   5.329  15.100  0.00  0.00    +0.000 NA
ATOM      8  H   UNL     1       7.680   6.221  14.678  0.00  0.00    +0.000 HD
ATOM      9  H   UNL     1       7.527   4.629  14.366  0.00  0.00    +0.000 HD
ENDBRANCH   1   7
BRANCH   4  10
ATOM     10  O   UNL     1       2.578   5.311  17.975  0.00  0.00    +0.000 OA
BRANCH  10  11
ATOM     11  C   UNL     1       2.152   4.511  19.011  0.00  0.00    +0.000 A 
ATOM     12  C   UNL     1       2.607   4.808  20.288  0.00  0.00    +0.000 A 
ATOM     13  N   UNL     1       2.228   4.104  21.386  0.00  0.00    +0.000 NA
ATOM     14  C   UNL     1       1.369   3.091  21.144  0.00  0.00    +0.000 A 
ATOM     15  C   UNL     1       0.917   2.790  19.871  0.00  0.00    +0.000 A 
ATOM     16  N   UNL     1       1.298   3.490  18.776  0.00  0.00    +0.000 NA
ENDBRANCH  10  11
ENDBRANCH   4  10
TORSDOF 3
ENDMDL
MODEL 7
REMARK VINA RESULT:      -6.0      1.666      5.701
REMARK  Name = 
REMARK  3 active torsions:
REMARK  status: ('A' for Active; 'I' for Inactive)
REMARK    1  A    between atoms: N_1  and  C_2
REMARK    2  A    between atoms: C_5  and  O_6
REMARK    3  A    between atoms: O_6  and  C_7
REMARK                            x       y       z     vdW  Elec       q    Type
REMARK                         _______ _______ _______ _____ _____    ______ ____
ROOT
ATOM      1  C   UNL     1       6.913   4.649  15.649  0.00  0.00    +0.000 C 
ATOM      2  C   UNL     1       7.327   5.421  16.907  0.00  0.00    +0.000 C 
ATOM      3  C   UNL     1       6.842   4.710  18.168  0.00  0.00    +0.000 C 
ATOM      4  C   UNL     1       5.327   4.471  18.148  0.00  0.00    +0.000 C 
ATOM      5  C   UNL     1       4.896   3.744  16.870  0.00  0.00    +0.000 C 
ATOM      6  C   UNL     1       5.395   4.449  15.611  0.00  0.00    +0.000 C 
ENDROOT
BRANCH   1   7
ATOM      7  N   UNL     1       7.351   5.350  14.445  0.00  0.00    +0.000 NA
ATOM      8  H   UNL     1       6.539   5.670  13.919  0.00  0.00    +0.000 HD
ATOM      9  H   UNL     1       7.854   4.713  13.830  0.00  0.00    +0.000 HD
ENDBRANCH   1   7
BRANCH   4  10
ATOM     10  O   UNL     1       5.018   3.654  19.288  0.00  0.00    +0.000 OA
BRANCH  10  11
ATOM     11  C   UNL     1       3.699   3.669  19.680  0.00  0.00    +0.000 A 
ATOM     12  C   UNL     1       3.120   4.900  19.960  0.00  0.00    +0.000 A 
ATOM     13  N   UNL     1       1.820   5.035  20.327  0.00  0.00    +0.000 NA
ATOM     14  C   UNL     1       1.125   3.878  20.395  0.00  0.00    +0.000 A 
ATOM     15  C   UNL     1       1.701   2.651  20.120  0.00  0.00    +0.000 A 
ATOM     16  N   UNL     1       2.998   2.516  19.758  0.00  0.00    +0.000 NA
ENDBRANCH  10  11
ENDBRANCH   4  10
TORSDOF 3
ENDMDL
MODEL 8
REMARK VINA RESULT:      -5.9      1.055      1.082
REMARK  Name = 
REMARK  3 active torsions:
REMARK  status: ('A' for Active; 'I' for Inactive)
REMARK    1  A    between atoms: N_1  and  C_2
REMARK    2  A    between atoms: C_5  and  O_6
REMARK    3  A    between atoms: O_6  and  C_7
REMARK                            x       y       z     vdW  Elec       q    Type
REMARK                         _______ _______ _______ _____ _____    ______ ____
ROOT
ATOM      1  C   UNL     1       2.300   3.511  20.790  0.00  0.00    +0.000 C 
ATOM      2  C   UNL     1       2.972   2.427  19.940  0.00  0.00    +0.000 C 
ATOM      3  C   UNL     1       4.368   2.861  19.504  0.00  0.00    +0.000 C 
ATOM      4  C   UNL     1       4.350   4.203  18.762  0.00  0.00    +0.000 C 
ATOM      5  C   UNL     1       3.636   5.282  19.584  0.00  0.00    +0.000 C 
ATOM      6  C   UNL     1       2.245   4.840  20.030  0.00  0.00    +0.000 C 
ENDROOT
BRANCH   1   7
ATOM      7  N   UNL     1       0.951   3.105  21.176  0.00  0.00    +0.000 NA
ATOM      8  H   UNL     1       0.267   3.605  20.611  0.00  0.00    +0.000 HD
ATOM      9  H   UNL     1       0.768   3.368  22.144  0.00  0.00    +0.000 HD
ENDBRANCH   1   7
BRANCH   4  10
ATOM     10  O   UNL     1       5.718   4.587  18.558  0.00  0.00    +0.000 OA
BRANCH  10  11
ATOM     11  C   UNL     1       6.115   4.667  17.243  0.00  0.00    +0.000 A 
ATOM     12  C   UNL     1       7.036   5.649  16.903  0.00  0.00    +0.000 A 
ATOM     13  N   UNL     1       7.520   5.800  15.643  0.00  0.00    +0.000 NA
ATOM     14  C   UNL     1       7.039   4.918  14.740  0.00  0.00    +0.000 A 
ATOM     15  C   UNL     1       6.118   3.942  15.076  0.00  0.00    +0.000 A 
ATOM     16  N   UNL     1       5.634   3.794  16.332  0.00  0.00    +0.000 NA
ENDBRANCH  10  11
ENDBRANCH   4  10
TORSDOF 3
ENDMDL
MODEL 9
REMARK VINA RESULT:      -5.9      1.727      5.973
REMARK  Name = 
REMARK  3 active torsions:
REMARK  status: ('A' for Active; 'I' for Inactive)
REMARK    1  A    between atoms: N_1  and  C_2
REMARK    2  A    between atoms: C_5  and  O_6
REMARK    3  A    between atoms: O_6  and  C_7
REMARK                            x       y       z     vdW  Elec       q    Type
REMARK                         _______ _______ _______ _____ _____    ______ ____
ROOT
ATOM      1  C   UNL     1       6.871   5.566  15.975  0.00  0.00    +0.000 C 
ATOM      2  C   UNL     1       5.363   5.469  15.720  0.00  0.00    +0.000 C 
ATOM      3  C   UNL     1       4.575   5.714  17.003  0.00  0.00    +0.000 C 
ATOM      4  C   UNL     1       5.000   4.764  18.131  0.00  0.00    +0.000 C 
ATOM      5  C   UNL     1       6.514   4.818  18.360  0.00  0.00    +0.000 C 
ATOM      6  C   UNL     1       7.300   4.586  17.072  0.00  0.00    +0.000 C 
ENDROOT
BRANCH   1   7
ATOM      7  N   UNL     1       7.622   5.298  14.751  0.00  0.00    +0.000 NA
ATOM      8  H   UNL     1       8.551   4.952  14.986  0.00  0.00    +0.000 HD
ATOM      9  H   UNL     1       7.764   6.162  14.229  0.00  0.00    +0.000 HD
ENDBRANCH   1   7
BRANCH   4  10
ATOM     10  O   UNL     1       4.323   5.198  19.320  0.00  0.00    +0.000 OA
BRANCH  10  11
ATOM     11  C   UNL     1       3.323   4.363  19.764  0.00  0.00    +0.000 A 
ATOM     12  C   UNL     1       3.240   3.097  19.201  0.00  0.00    +0.000 A 
ATOM     13  N   UNL     1       2.313   2.181  19.583  0.00  0.00    +0.000 NA
ATOM     14  C   UNL     1       1.476   2.592  20.561  0.00  0.00    +0.000 A 
ATOM     15  C   UNL     1       1.556   3.855  21.121  0.00  0.00    +0.000 A 
ATOM     16  N   UNL     1       2.477   4.769  20.736  0.00  0.00    +0.000 NA
ENDBRANCH  10  11
ENDBRANCH   4  10
TORSDOF 3
ENDMDL
