MODEL 1
REMARK VINA RESULT:      -4.9      0.000      0.000
REMARK  Name = 
REMARK  2 active torsions:
REMARK  status: ('A' for Active; 'I' for Inactive)
REMARK    1  A    between atoms: C_4  and  O_5
REMARK    2  A    between atoms: O_5  and  C_6
REMARK                            x       y       z     vdW  Elec       q    Type
REMARK                         _______ _______ _______ _____ _____    ______ ____
ROOT
ATOM      1  C   UNL     1       7.430   6.761  17.477  0.00  0.00    +0.000 C 
ATOM      2  C   UNL     1       5.915   6.775  17.304  0.00  0.00    +0.000 C 
ATOM      3  C   UNL     1       5.312   5.442  17.731  0.00  0.00    +0.000 C 
ATOM      4  C   UNL     1       5.826   4.996  19.102  0.00  0.00    +0.000 C 
ATOM      5  O   UNL     1       7.250   5.005  19.135  0.00  0.00    +0.000 OA
ATOM      6  C   UNL     1       7.792   6.300  18.882  0.00  0.00    +0.000 C 
ENDROOT
BRANCH   4   7
ATOM      7  O   UNL     1       5.338   3.673  19.334  0.00  0.00    +0.000 OA
BRANCH   7   8
ATOM      8  C   UNL     1       3.962   3.418  18.949  0.00  0.00    +0.000 C 
ATOM      9  C   UNL     1       3.593   1.908  18.846  0.00  0.00    +0.000 C 
ATOM     10  S   UNL     1       1.895   2.266  19.393  0.00  0.00    +0.000 S 
ATOM     11  C   UNL     1       2.871   3.664  20.036  0.00  0.00    +0.000 C 
ENDBRANCH   7   8
ENDBRANCH   4   7
TORSDOF 2
ENDMDL
MODEL 2
REMARK VINA RESULT:      -4.8      2.487      5.022
REMARK  Name = 
REMARK  2 active torsions:
REMARK  status: ('A' for Active; 'I' for Inactive)
REMARK    1  A    between atoms: C_4  and  O_5
REMARK    2  A    between atoms: O_5  and  C_6
REMARK                            x       y       z     vdW  Elec       q    Type
REMARK                         _______ _______ _______ _____ _____    ______ ____
ROOT
ATOM      1  C   UNL     1       0.856   3.276  19.895  0.00  0.00    +0.000 C 
ATOM      2  C   UNL     1       1.409   2.133  19.053  0.00  0.00    +0.000 C 
ATOM      3  C   UNL     1       2.867   2.389  18.688  0.00  0.00    +0.000 C 
ATOM      4  C   UNL     1       3.699   2.788  19.908  0.00  0.00    +0.000 C 
ATOM      5  O   UNL     1       3.094   3.876  20.600  0.00  0.00    +0.000 OA
ATOM      6  C   UNL     1       1.783   3.560  21.067  0.00  0.00    +0.000 C 
ENDROOT
BRANCH   4   7
ATOM      7  O   UNL     1       4.995   3.166  19.439  0.00  0.00    +0.000 OA
BRANCH   7   8
ATOM      8  C   UNL     1       5.087   4.448  18.764  0.00  0.00    +0.000 C 
ATOM      9  C   UNL     1       6.249   5.357  19.266  0.00  0.00    +0.000 C 
ATOM     10  S   UNL     1       6.453   6.049  17.595  0.00  0.00    +0.000 S 
ATOM     11  C   UNL     1       5.653   4.437  17.311  0.00  0.00    +0.000 C 
ENDBRANCH   7   8
ENDBRANCH   4   7
TORSDOF 2
ENDMDL
MODEL 3
REMARK VINA RESULT:      -4.8      3.154      5.083
REMARK  Name = 
REMARK  2 active torsions:
REMARK  status: ('A' for Active; 'I' for Inactive)
REMARK    1  A    between atoms: C_4  and  O_5
REMARK    2  A    between atoms: O_5  and  C_6
REMARK                            x       y       z     vdW  Elec       q    Type
REMARK                         _______ _______ _______ _____ _____    ______ ____
ROOT
ATOM      1  C   UNL     1       0.947   3.808  20.397  0.00  0.00    +0.000 C 
ATOM      2  C   UNL     1       1.026   3.057  19.073  0.00  0.00    +0.000 C 
ATOM      3  C   UNL     1       1.699   3.914  18.007  0.00  0.00    +0.000 C 
ATOM      4  C   UNL     1       3.007   4.528  18.509  0.00  0.00    +0.000 C 
ATOM      5  O   UNL     1       2.803   5.218  19.739  0.00  0.00    +0.000 OA
ATOM      6  C   UNL     1       2.315   4.360  20.769  0.00  0.00    +0.000 C 
ENDROOT
BRANCH   4   7
ATOM      7  O   UNL     1       3.468   5.437  17.508  0.00  0.00    +0.000 OA
BRANCH   7   8
ATOM      8  C   UNL     1       4.848   5.284  17.086  0.00  0.00    +0.000 C 
ATOM      9  C   UNL     1       5.160   3.927  16.387  0.00  0.00    +0.000 C 
ATOM     10  S   UNL     1       6.400   4.737  15.329  0.00  0.00    +0.000 S 
ATOM     11  C   UNL     1       5.292   6.094  15.829  0.00  0.00    +0.000 C 
ENDBRANCH   7   8
ENDBRANCH   4   7
TORSDOF 2
ENDMDL
MODEL 4
REMARK VINA RESULT:      -4.8      2.632      4.979
REMARK  Name = 
REMARK  2 active torsions:
REMARK  status: ('A' for Active; 'I' for Inactive)
REMARK    1  A    between atoms: C_4  and  O_5
REMARK    2  A    between atoms: O_5  and  C_6
REMARK                            x       y       z     vdW  Elec       q    Type
REMARK                         _______ _______ _______ _____ _____    ______ ____
ROOT
ATOM      1  C   UNL     1       1.011   3.235  19.022  0.00  0.00    +0.000 C 
ATOM      2  C   UNL     1       1.634   3.987  17.852  0.00  0.00    +0.000 C 
ATOM      3  C   UNL     1       3.096   4.310  18.137  0.00  0.00    +0.000 C 
ATOM      4  C   UNL     1       3.866   3.084  18.632  0.00  0.00    +0.000 C 
ATOM      5  O   UNL     1       3.199   2.481  19.736  0.00  0.00    +0.000 OA
ATOM      6  C   UNL     1       1.881   2.046  19.404  0.00  0.00    +0.000 C 
ENDROOT
BRANCH   4   7
ATOM      7  O   UNL     1       5.167   3.524  19.027  0.00  0.00    +0.000 OA
BRANCH   7   8
ATOM      8  C   UNL     1       5.628   4.772  18.446  0.00  0.00    +0.000 C 
ATOM      9  C   UNL     1       6.654   5.549  19.324  0.00  0.00    +0.000 C 
ATOM     10  S   UNL     1       7.483   6.177  17.831  0.00  0.00    +0.000 S 
ATOM     11  C   UNL     1       6.642   4.664  17.265  0.00  0.00    +0.000 C 
ENDBRANCH   7   8
ENDBRANCH   4   7
TORSDOF 2
ENDMDL
MODEL 5
REMARK VINA RESULT:      -4.8      2.891      5.136
REMARK  Name = 
REMARK  2 active torsions:
REMARK  status: ('A' for Active; 'I' for Inactive)
REMARK    1  A    between atoms: C_4  and  O_5
REMARK    2  A    between atoms: O_5  and  C_6
REMARK                            x       y       z     vdW  Elec       q    Type
REMARK                         _______ _______ _______ _____ _____    ______ ____
ROOT
ATOM      1  C   UNL     1       1.429   2.669  20.351  0.00  0.00    +0.000 C 
ATOM      2  C   UNL     1       1.036   4.140  20.412  0.00  0.00    +0.000 C 
ATOM      3  C   UNL     1       2.031   4.995  19.634  0.00  0.00    +0.000 C 
ATOM      4  C   UNL     1       2.301   4.429  18.238  0.00  0.00    +0.000 C 
ATOM      5  O   UNL     1       2.676   3.058  18.312  0.00  0.00    +0.000 OA
ATOM      6  C   UNL     1       1.664   2.248  18.908  0.00  0.00    +0.000 C 
ENDROOT
BRANCH   4   7
ATOM      7  O   UNL     1       3.358   5.197  17.660  0.00  0.00    +0.000 OA
BRANCH   7   8
ATOM      8  C   UNL     1       4.643   4.533  17.539  0.00  0.00    +0.000 C 
ATOM      9  C   UNL     1       5.506   5.016  16.335  0.00  0.00    +0.000 C 
ATOM     10  S   UNL     1       7.030   4.729  17.288  0.00  0.00    +0.000 S 
ATOM     11  C   UNL     1       5.746   4.947  18.562  0.00  0.00    +0.000 C 
ENDBRANCH   7   8
ENDBRANCH   4   7
TORSDOF 2
ENDMDL
MODEL 6
REMARK VINA RESULT:      -4.8      2.877      5.031
REMARK  Name = 
REMARK  2 active torsions:
REMARK  status: ('A' for Active; 'I' for Inactive)
REMARK    1  A    between atoms: C_4  and  O_5
REMARK    2  A    between atoms: O_5  and  C_6
REMARK                            x       y       z     vdW  Elec       q    Type
REMARK                         _______ _______ _______ _____ _____    ______ ____
ROOT
ATOM      1  C   UNL     1       0.877   3.641  20.218  0.00  0.00    +0.000 C 
ATOM      2  C   UNL     1       1.159   3.055  18.839  0.00  0.00    +0.000 C 
ATOM      3  C   UNL     1       1.768   4.108  17.921  0.00  0.00    +0.000 C 
ATOM      4  C   UNL     1       2.932   4.843  18.588  0.00  0.00    +0.000 C 
ATOM      5  O   UNL     1       2.543   5.361  19.856  0.00  0.00    +0.000 OA
ATOM      6  C   UNL     1       2.119   4.337  20.755  0.00  0.00    +0.000 C 
ENDROOT
BRANCH   4   7
ATOM      7  O   UNL     1       3.321   5.910  17.721  0.00  0.00    +0.000 OA
BRANCH   7   8
ATOM      8  C   UNL     1       4.708   5.919  17.293  0.00  0.00    +0.000 C 
ATOM      9  C   UNL     1       5.713   5.388  18.358  0.00  0.00    +0.000 C 
ATOM     10  S   UNL     1       6.778   4.716  17.044  0.00  0.00    +0.000 S 
ATOM     11  C   UNL     1       5.133   4.823  16.269  0.00  0.00    +0.000 C 
ENDBRANCH   7   8
ENDBRANCH   4   7
TORSDOF 2
ENDMDL
MODEL 7
REMARK VINA RESULT:      -4.8      2.641      5.086
REMARK  Name = 
REMARK  2 active torsions:
REMARK  status: ('A' for Active; 'I' for Inactive)
REMARK    1  A    between atoms: C_4  and  O_5
REMARK    2  A    between atoms: O_5  and  C_6
REMARK                            x       y       z     vdW  Elec       q    Type
REMARK                         _______ _______ _______ _____ _____    ______ ____
ROOT
ATOM      1  C   UNL     1       0.770   3.267  20.232  0.00  0.00    +0.000 C 
ATOM      2  C   UNL     1       0.868   2.603  18.863  0.00  0.00    +0.000 C 
ATOM      3  C   UNL     1       2.182   2.966  18.182  0.00  0.00    +0.000 C 
ATOM      4  C   UNL     1       3.381   2.768  19.111  0.00  0.00    +0.000 C 
ATOM      5  O   UNL     1       3.182   3.448  20.347  0.00  0.00    +0.000 OA
ATOM      6  C   UNL     1       2.026   2.984  21.043  0.00  0.00    +0.000 C 
ENDROOT
BRANCH   4   7
ATOM      7  O   UNL     1       4.533   3.288  18.445  0.00  0.00    +0.000 OA
BRANCH   7   8
ATOM      8  C   UNL     1       4.295   4.347  17.481  0.00  0.00    +0.000 C 
ATOM      9  C   UNL     1       4.796   5.751  17.931  0.00  0.00    +0.000 C 
ATOM     10  S   UNL     1       5.180   6.187  16.205  0.00  0.00    +0.000 S 
ATOM     11  C   UNL     1       5.212   4.366  16.219  0.00  0.00    +0.000 C 
ENDBRANCH   7   8
ENDBRANCH   4   7
TORSDOF 2
ENDMDL
MODEL 8
REMARK VINA RESULT:      -4.7      1.554      1.632
REMARK  Name = 
REMARK  2 active torsions:
REMARK  status: ('A' for Active; 'I' for Inactive)
REMARK    1  A    between atoms: C_4  and  O_5
REMARK    2  A    between atoms: O_5  and  C_6
REMARK                            x       y       z     vdW  Elec       q    Type
REMARK                         _______ _______ _______ _____ _____    ______ ____
ROOT
ATOM      1  C   UNL     1       7.178   4.670  16.061  0.00  0.00    +0.000 C 
ATOM      2  C   UNL     1       5.717   4.891  15.689  0.00  0.00    +0.000 C 
ATOM      3  C   UNL     1       4.796   4.199  16.688  0.00  0.00    +0.000 C 
ATOM      4  C   UNL     1       5.177   4.523  18.134  0.00  0.00    +0.000 C 
ATOM      5  O   UNL     1       6.557   4.258  18.365  0.00  0.00    +0.000 OA
ATOM      6  C   UNL     1       7.408   5.032  17.521  0.00  0.00    +0.000 C 
ENDROOT
BRANCH   4   7
ATOM      7  O   UNL     1       4.372   3.704  18.984  0.00  0.00    +0.000 OA
BRANCH   7   8
ATOM      8  C   UNL     1       3.077   3.310  18.461  0.00  0.00    +0.000 C 
ATOM      9  C   UNL     1       2.548   1.951  19.008  0.00  0.00    +0.000 C 
ATOM     10  S   UNL     1       0.834   2.557  18.908  0.00  0.00    +0.000 S 
ATOM     11  C   UNL     1       1.835   4.076  19.013  0.00  0.00    +0.000 C 
ENDBRANCH   7   8
ENDBRANCH   4   7
TORSDOF 2
ENDMDL
MODEL 9
REMARK VINA RESULT:      -4.7      1.430      1.514
REMARK  Name = 
REMARK  2 active torsions:
REMARK  status: ('A' for Active; 'I' for Inactive)
REMARK    1  A    between atoms: C_4  and  O_5
REMARK    2  A    between atoms: O_5  and  C_6
REMARK                            x       y       z     vdW  Elec       q    Type
REMARK                         _______ _______ _______ _____ _____    ______ ____
ROOT
ATOM      1  C   UNL     1       6.861   4.491  16.208  0.00  0.00    +0.000 C 
ATOM      2  C   UNL     1       5.711   5.476  16.035  0.00  0.00    +0.000 C 
ATOM      3  C   UNL     1       4.736   5.375  17.203  0.00  0.00    +0.000 C 
ATOM      4  C   UNL     1       5.456   5.414  18.552  0.00  0.00    +0.000 C 
ATOM      5  O   UNL     1       6.493   4.439  18.601  0.00  0.00    +0.000 OA
ATOM      6  C   UNL     1       7.479   4.643  17.590  0.00  0.00    +0.000 C 
ENDROOT
BRANCH   4   7
ATOM      7  O   UNL     1       4.484   5.148  19.566  0.00  0.00    +0.000 OA
BRANCH   7   8
ATOM      8  C   UNL     1       3.459   4.175  19.235  0.00  0.00    +0.000 C 
ATOM      9  C   UNL     1       3.590   2.820  19.992  0.00  0.00    +0.000 C 
ATOM     10  S   UNL     1       1.780   2.632  20.006  0.00  0.00    +0.000 S 
ATOM     11  C   UNL     1       2.037   4.426  19.824  0.00  0.00    +0.000 C 
ENDBRANCH   7   8
ENDBRANCH   4   7
TORSDOF 2
ENDMDL
