MODEL 1
REMARK VINA RESULT:      -7.7      0.000      0.000
REMARK  Name = 
REMARK  6 active torsions:
REMARK  status: ('A' for Active; 'I' for Inactive)
REMARK    1  A    between atoms: C_1  and  C_2
REMARK    2  A    between atoms: C_2  and  N_3
REMARK    3  A    between atoms: C_7  and  C_8
REMARK    4  A    between atoms: N_17  and  C_18
REMARK    5  A    between atoms: N_21  and  C_22
REMARK    6  A    between atoms: N_31  and  C_32
REMARK                            x       y       z     vdW  Elec       q    Type
REMARK                         _______ _______ _______ _____ _____    ______ ____
ROOT
ATOM      1  N   UNL     1      -0.602  11.030  22.465  0.00  0.00    +0.000 N 
ATOM      2  C   UNL     1      -0.300   9.683  22.443  0.00  0.00    +0.000 C 
ATOM      3  O   UNL     1      -0.769   8.831  23.182  0.00  0.00    +0.000 OA
ATOM      4  C   UNL     1       0.651   9.397  21.325  0.00  0.00    +0.000 C 
ATOM      5  C   UNL     1       1.052   8.141  21.071  0.00  0.00    +0.000 C 
ATOM      6  S   UNL     1       1.042  10.867  20.502  0.00  0.00    +0.000 S 
ATOM      7  C   UNL     1      -0.061  11.819  21.481  0.00  0.00    +0.000 C 
ATOM      8  N   UNL     1      -0.392  13.060  21.364  0.00  0.00    +0.000 NA
ENDROOT
BRANCH   5   9
ATOM      9  C   UNL     1       1.937   7.707  20.000  0.00  0.00    +0.000 C 
ATOM     10  C   UNL     1       2.235   6.448  19.608  0.00  0.00    +0.000 C 
ATOM     11  S   UNL     1       1.535   5.019  20.418  0.00  0.00    +0.000 S 
ATOM     12  C   UNL     1       2.452   3.970  19.291  0.00  0.00    +0.000 A 
ATOM     13  C   UNL     1       2.441   2.578  19.283  0.00  0.00    +0.000 A 
ATOM     14  C   UNL     1       3.217   1.912  18.335  0.00  0.00    +0.000 A 
ATOM     15  C   UNL     1       3.984   2.639  17.419  0.00  0.00    +0.000 A 
ATOM     16  C   UNL     1       3.985   4.042  17.436  0.00  0.00    +0.000 A 
ATOM     17  C   UNL     1       3.219   4.724  18.375  0.00  0.00    +0.000 A 
ATOM     18  N   UNL     1       3.099   6.117  18.550  0.00  0.00    +0.000 N 
ATOM     19  C   UNL     1       3.780   7.064  17.686  0.00  0.00    +0.000 C 
ENDBRANCH   5   9
BRANCH   8  20
ATOM     20  C   UNL     1       0.099  13.926  20.452  0.00  0.00    +0.000 A 
ATOM     21  S   UNL     1       1.792  14.327  20.511  0.00  0.00    +0.000 S 
ATOM     22  C   UNL     1       1.537  15.747  19.562  0.00  0.00    +0.000 A 
ATOM     23  C   UNL     1       2.290  16.910  19.384  0.00  0.00    +0.000 A 
ATOM     24  C   UNL     1       1.821  17.837  18.441  0.00  0.00    +0.000 A 
ATOM     25  C   UNL     1       0.726  17.544  17.628  0.00  0.00    +0.000 A 
ATOM     26 CL   UNL     1       0.277  18.631  16.375  0.00  0.00    +0.000 Cl
ATOM     27  C   UNL     1      -0.064  16.418  17.863  0.00  0.00    +0.000 A 
ATOM     28  C   UNL     1       0.305  15.599  18.940  0.00  0.00    +0.000 A 
ATOM     29  N   UNL     1      -0.527  14.882  19.785  0.00  0.00    +0.000 N 
ATOM     30  C   UNL     1      -1.572  15.648  20.480  0.00  0.00    +0.000 C 
ENDBRANCH   8  20
BRANCH   1  32
ATOM     31  C   UNL     1      -2.846  11.993  22.824  0.00  0.00    +0.000 C 
ATOM     32  C   UNL     1      -1.539  11.548  23.460  0.00  0.00    +0.000 C 
ENDBRANCH   1  32
TORSDOF 3
ENDMDL
MODEL 2
REMARK VINA RESULT:      -7.5      3.507      5.465
REMARK  Name = 
REMARK  6 active torsions:
REMARK  status: ('A' for Active; 'I' for Inactive)
REMARK    1  A    between atoms: C_1  and  C_2
REMARK    2  A    between atoms: C_2  and  N_3
REMARK    3  A    between atoms: C_7  and  C_8
REMARK    4  A    between atoms: N_17  and  C_18
REMARK    5  A    between atoms: N_21  and  C_22
REMARK    6  A    between atoms: N_31  and  C_32
REMARK                            x       y       z     vdW  Elec       q    Type
REMARK                         _______ _______ _______ _____ _____    ______ ____
ROOT
ATOM      1  N   UNL     1       0.580  12.948  18.688  0.00  0.00    +0.000 N 
ATOM      2  C   UNL     1       1.613  12.059  18.473  0.00  0.00    +0.000 C 
ATOM      3  O   UNL     1       2.707  12.330  18.003  0.00  0.00    +0.000 OA
ATOM      4  C   UNL     1       1.222  10.702  18.966  0.00  0.00    +0.000 C 
ATOM      5  C   UNL     1       2.087   9.677  18.910  0.00  0.00    +0.000 C 
ATOM      6  S   UNL     1      -0.392  10.750  19.587  0.00  0.00    +0.000 S 
ATOM      7  C   UNL     1      -0.538  12.481  19.333  0.00  0.00    +0.000 C 
ATOM      8  N   UNL     1      -1.492  13.278  19.676  0.00  0.00    +0.000 NA
ENDROOT
BRANCH   5   9
ATOM      9  C   UNL     1       1.864   8.319  19.385  0.00  0.00    +0.000 C 
ATOM     10  C   UNL     1       2.404   7.165  18.932  0.00  0.00    +0.000 C 
ATOM     11  S   UNL     1       3.559   7.137  17.570  0.00  0.00    +0.000 S 
ATOM     12  C   UNL     1       3.659   5.356  17.732  0.00  0.00    +0.000 A 
ATOM     13  C   UNL     1       4.430   4.508  16.942  0.00  0.00    +0.000 A 
ATOM     14  C   UNL     1       4.392   3.139  17.202  0.00  0.00    +0.000 A 
ATOM     15  C   UNL     1       3.592   2.641  18.236  0.00  0.00    +0.000 A 
ATOM     16  C   UNL     1       2.820   3.506  19.026  0.00  0.00    +0.000 A 
ATOM     17  C   UNL     1       2.844   4.876  18.781  0.00  0.00    +0.000 A 
ATOM     18  N   UNL     1       2.138   5.890  19.458  0.00  0.00    +0.000 N 
ATOM     19  C   UNL     1       1.275   5.605  20.590  0.00  0.00    +0.000 C 
ENDBRANCH   5   9
BRANCH   8  20
ATOM     20  C   UNL     1      -2.641  12.918  20.287  0.00  0.00    +0.000 A 
ATOM     21  S   UNL     1      -3.865  12.109  19.351  0.00  0.00    +0.000 S 
ATOM     22  C   UNL     1      -5.078  12.492  20.518  0.00  0.00    +0.000 A 
ATOM     23  C   UNL     1      -6.471  12.543  20.447  0.00  0.00    +0.000 A 
ATOM     24  C   UNL     1      -7.164  12.798  21.640  0.00  0.00    +0.000 A 
ATOM     25  C   UNL     1      -6.491  12.864  22.861  0.00  0.00    +0.000 A 
ATOM     26 CL   UNL     1      -7.385  13.016  24.321  0.00  0.00    +0.000 Cl
ATOM     27  C   UNL     1      -5.097  12.887  22.914  0.00  0.00    +0.000 A 
ATOM     28  C   UNL     1      -4.416  12.828  21.690  0.00  0.00    +0.000 A 
ATOM     29  N   UNL     1      -3.220  13.443  21.354  0.00  0.00    +0.000 N 
ATOM     30  C   UNL     1      -3.161  14.901  21.534  0.00  0.00    +0.000 C 
ENDBRANCH   8  20
BRANCH   1  32
ATOM     31  C   UNL     1       1.454  15.146  19.392  0.00  0.00    +0.000 C 
ATOM     32  C   UNL     1       0.740  14.351  18.310  0.00  0.00    +0.000 C 
ENDBRANCH   1  32
TORSDOF 3
ENDMDL
MODEL 3
REMARK VINA RESULT:      -7.5      4.678      6.702
REMARK  Name = 
REMARK  6 active torsions:
REMARK  status: ('A' for Active; 'I' for Inactive)
REMARK    1  A    between atoms: C_1  and  C_2
REMARK    2  A    between atoms: C_2  and  N_3
REMARK    3  A    between atoms: C_7  and  C_8
REMARK    4  A    between atoms: N_17  and  C_18
REMARK    5  A    between atoms: N_21  and  C_22
REMARK    6  A    between atoms: N_31  and  C_32
REMARK                            x       y       z     vdW  Elec       q    Type
REMARK                         _______ _______ _______ _____ _____    ______ ____
ROOT
ATOM      1  N   UNL     1       1.977  15.956  19.249  0.00  0.00    +0.000 N 
ATOM      2  C   UNL     1       0.839  15.178  19.305  0.00  0.00    +0.000 C 
ATOM      3  O   UNL     1      -0.243  15.453  18.811  0.00  0.00    +0.000 OA
ATOM      4  C   UNL     1       1.138  13.896  20.016  0.00  0.00    +0.000 C 
ATOM      5  C   UNL     1       0.194  12.951  20.151  0.00  0.00    +0.000 C 
ATOM      6  S   UNL     1       2.790  13.887  20.530  0.00  0.00    +0.000 S 
ATOM      7  C   UNL     1       3.134  15.429  19.766  0.00  0.00    +0.000 C 
ATOM      8  N   UNL     1       4.261  16.045  19.642  0.00  0.00    +0.000 NA
ENDROOT
BRANCH   5   9
ATOM      9  C   UNL     1       0.348  11.647  20.778  0.00  0.00    +0.000 C 
ATOM     10  C   UNL     1       0.859  10.511  20.253  0.00  0.00    +0.000 C 
ATOM     11  S   UNL     1       1.462  10.439  18.574  0.00  0.00    +0.000 S 
ATOM     12  C   UNL     1       1.869   8.712  18.827  0.00  0.00    +0.000 A 
ATOM     13  C   UNL     1       2.433   7.861  17.882  0.00  0.00    +0.000 A 
ATOM     14  C   UNL     1       2.685   6.538  18.244  0.00  0.00    +0.000 A 
ATOM     15  C   UNL     1       2.374   6.090  19.531  0.00  0.00    +0.000 A 
ATOM     16  C   UNL     1       1.807   6.958  20.477  0.00  0.00    +0.000 A 
ATOM     17  C   UNL     1       1.546   8.281  20.133  0.00  0.00    +0.000 A 
ATOM     18  N   UNL     1       0.978   9.290  20.937  0.00  0.00    +0.000 N 
ATOM     19  C   UNL     1       0.611   9.056  22.322  0.00  0.00    +0.000 C 
ENDBRANCH   5   9
BRANCH   8  20
ATOM     20  C   UNL     1       5.447  15.628  20.136  0.00  0.00    +0.000 A 
ATOM     21  S   UNL     1       6.187  16.550  21.413  0.00  0.00    +0.000 S 
ATOM     22  C   UNL     1       7.727  15.835  21.100  0.00  0.00    +0.000 A 
ATOM     23  C   UNL     1       9.030  16.226  21.418  0.00  0.00    +0.000 A 
ATOM     24  C   UNL     1      10.063  15.335  21.089  0.00  0.00    +0.000 A 
ATOM     25  C   UNL     1       9.783  14.063  20.588  0.00  0.00    +0.000 A 
ATOM     26 CL   UNL     1      11.061  12.940  20.347  0.00  0.00    +0.000 Cl
ATOM     27  C   UNL     1       8.489  13.711  20.203  0.00  0.00    +0.000 A 
ATOM     28  C   UNL     1       7.494  14.686  20.357  0.00  0.00    +0.000 A 
ATOM     29  N   UNL     1       6.388  14.906  19.551  0.00  0.00    +0.000 N 
ATOM     30  C   UNL     1       6.654  15.131  18.122  0.00  0.00    +0.000 C 
ENDBRANCH   8  20
BRANCH   1  32
ATOM     31  C   UNL     1       2.327  17.135  17.108  0.00  0.00    +0.000 C 
ATOM     32  C   UNL     1       1.938  17.252  18.574  0.00  0.00    +0.000 C 
ENDBRANCH   1  32
TORSDOF 3
ENDMDL
MODEL 4
REMARK VINA RESULT:      -7.3      4.464     10.339
REMARK  Name = 
REMARK  6 active torsions:
REMARK  status: ('A' for Active; 'I' for Inactive)
REMARK    1  A    between atoms: C_1  and  C_2
REMARK    2  A    between atoms: C_2  and  N_3
REMARK    3  A    between atoms: C_7  and  C_8
REMARK    4  A    between atoms: N_17  and  C_18
REMARK    5  A    between atoms: N_21  and  C_22
REMARK    6  A    between atoms: N_31  and  C_32
REMARK                            x       y       z     vdW  Elec       q    Type
REMARK                         _______ _______ _______ _____ _____    ______ ____
ROOT
ATOM      1  N   UNL     1       1.362  12.020  18.548  0.00  0.00    +0.000 N 
ATOM      2  C   UNL     1       0.309  12.909  18.599  0.00  0.00    +0.000 C 
ATOM      3  O   UNL     1       0.364  14.103  18.348  0.00  0.00    +0.000 OA
ATOM      4  C   UNL     1      -0.950  12.181  18.949  0.00  0.00    +0.000 C 
ATOM      5  C   UNL     1      -2.123  12.831  19.009  0.00  0.00    +0.000 C 
ATOM      6  S   UNL     1      -0.604  10.503  19.193  0.00  0.00    +0.000 S 
ATOM      7  C   UNL     1       1.084  10.691  18.752  0.00  0.00    +0.000 C 
ATOM      8  N   UNL     1       1.993   9.788  18.602  0.00  0.00    +0.000 NA
ENDROOT
BRANCH   5   9
ATOM      9  C   UNL     1      -3.428  12.253  19.296  0.00  0.00    +0.000 C 
ATOM     10  C   UNL     1      -4.273  12.534  20.314  0.00  0.00    +0.000 C 
ATOM     11  S   UNL     1      -3.875  13.750  21.558  0.00  0.00    +0.000 S 
ATOM     12  C   UNL     1      -5.445  13.407  22.351  0.00  0.00    +0.000 A 
ATOM     13  C   UNL     1      -5.920  14.012  23.511  0.00  0.00    +0.000 A 
ATOM     14  C   UNL     1      -7.169  13.626  23.998  0.00  0.00    +0.000 A 
ATOM     15  C   UNL     1      -7.916  12.653  23.326  0.00  0.00    +0.000 A 
ATOM     16  C   UNL     1      -7.426  12.052  22.156  0.00  0.00    +0.000 A 
ATOM     17  C   UNL     1      -6.181  12.422  21.656  0.00  0.00    +0.000 A 
ATOM     18  N   UNL     1      -5.526  11.929  20.511  0.00  0.00    +0.000 N 
ATOM     19  C   UNL     1      -6.133  10.938  19.642  0.00  0.00    +0.000 C 
ENDBRANCH   5   9
BRANCH   8  20
ATOM     20  C   UNL     1       1.831   8.463  18.804  0.00  0.00    +0.000 A 
ATOM     21  S   UNL     1       1.549   7.896  20.425  0.00  0.00    +0.000 S 
ATOM     22  C   UNL     1       2.006   6.288  19.993  0.00  0.00    +0.000 A 
ATOM     23  C   UNL     1       2.424   5.191  20.749  0.00  0.00    +0.000 A 
ATOM     24  C   UNL     1       2.621   3.981  20.066  0.00  0.00    +0.000 A 
ATOM     25  C   UNL     1       2.286   3.855  18.718  0.00  0.00    +0.000 A 
ATOM     26 CL   UNL     1       2.388   2.319  17.953  0.00  0.00    +0.000 Cl
ATOM     27  C   UNL     1       1.943   4.970  17.954  0.00  0.00    +0.000 A 
ATOM     28  C   UNL     1       1.939   6.210  18.609  0.00  0.00    +0.000 A 
ATOM     29  N   UNL     1       2.280   7.447  18.085  0.00  0.00    +0.000 N 
ATOM     30  C   UNL     1       3.615   7.557  17.480  0.00  0.00    +0.000 C 
ENDBRANCH   8  20
BRANCH   1  32
ATOM     31  C   UNL     1       3.169  13.596  19.136  0.00  0.00    +0.000 C 
ATOM     32  C   UNL     1       2.699  12.496  18.196  0.00  0.00    +0.000 C 
ENDBRANCH   1  32
TORSDOF 3
ENDMDL
MODEL 5
REMARK VINA RESULT:      -7.2      5.846      8.772
REMARK  Name = 
REMARK  6 active torsions:
REMARK  status: ('A' for Active; 'I' for Inactive)
REMARK    1  A    between atoms: C_1  and  C_2
REMARK    2  A    between atoms: C_2  and  N_3
REMARK    3  A    between atoms: C_7  and  C_8
REMARK    4  A    between atoms: N_17  and  C_18
REMARK    5  A    between atoms: N_21  and  C_22
REMARK    6  A    between atoms: N_31  and  C_32
REMARK                            x       y       z     vdW  Elec       q    Type
REMARK                         _______ _______ _______ _____ _____    ______ ____
ROOT
ATOM      1  N   UNL     1       3.067  16.971  19.950  0.00  0.00    +0.000 N 
ATOM      2  C   UNL     1       4.309  17.452  20.311  0.00  0.00    +0.000 C 
ATOM      3  O   UNL     1       4.621  18.628  20.413  0.00  0.00    +0.000 OA
ATOM      4  C   UNL     1       5.220  16.309  20.628  0.00  0.00    +0.000 C 
ATOM      5  C   UNL     1       6.474  16.530  21.054  0.00  0.00    +0.000 C 
ATOM      6  S   UNL     1       4.384  14.813  20.389  0.00  0.00    +0.000 S 
ATOM      7  C   UNL     1       2.871  15.613  20.000  0.00  0.00    +0.000 C 
ATOM      8  N   UNL     1       1.706  15.099  19.795  0.00  0.00    +0.000 NA
ENDROOT
BRANCH   5   9
ATOM      9  C   UNL     1       7.456  15.526  21.437  0.00  0.00    +0.000 C 
ATOM     10  C   UNL     1       8.207  14.730  20.642  0.00  0.00    +0.000 C 
ATOM     11  S   UNL     1       8.087  14.798  18.862  0.00  0.00    +0.000 S 
ATOM     12  C   UNL     1       9.331  13.512  18.761  0.00  0.00    +0.000 A 
ATOM     13  C   UNL     1       9.829  12.951  17.589  0.00  0.00    +0.000 A 
ATOM     14  C   UNL     1      10.798  11.953  17.688  0.00  0.00    +0.000 A 
ATOM     15  C   UNL     1      11.250  11.535  18.944  0.00  0.00    +0.000 A 
ATOM     16  C   UNL     1      10.742  12.110  20.118  0.00  0.00    +0.000 A 
ATOM     17  C   UNL     1       9.773  13.105  20.040  0.00  0.00    +0.000 A 
ATOM     18  N   UNL     1       9.143  13.788  21.099  0.00  0.00    +0.000 N 
ATOM     19  C   UNL     1       9.485  13.540  22.488  0.00  0.00    +0.000 C 
ENDBRANCH   5   9
BRANCH   8  20
ATOM     20  C   UNL     1       1.413  13.781  19.794  0.00  0.00    +0.000 A 
ATOM     21  S   UNL     1       0.960  13.029  18.291  0.00  0.00    +0.000 S 
ATOM     22  C   UNL     1       0.247  11.693  19.121  0.00  0.00    +0.000 A 
ATOM     23  C   UNL     1      -0.691  10.734  18.732  0.00  0.00    +0.000 A 
ATOM     24  C   UNL     1      -0.975   9.710  19.647  0.00  0.00    +0.000 A 
ATOM     25  C   UNL     1      -0.253   9.587  20.835  0.00  0.00    +0.000 A 
ATOM     26 CL   UNL     1      -0.516   8.230  21.857  0.00  0.00    +0.000 Cl
ATOM     27  C   UNL     1       0.625  10.588  21.250  0.00  0.00    +0.000 A 
ATOM     28  C   UNL     1       0.753  11.705  20.413  0.00  0.00    +0.000 A 
ATOM     29  N   UNL     1       0.969  13.023  20.784  0.00  0.00    +0.000 N 
ATOM     30  C   UNL     1       0.004  13.604  21.729  0.00  0.00    +0.000 C 
ENDBRANCH   8  20
BRANCH   1  32
ATOM     31  C   UNL     1       1.653  17.871  18.137  0.00  0.00    +0.000 C 
ATOM     32  C   UNL     1       1.994  17.907  19.619  0.00  0.00    +0.000 C 
ENDBRANCH   1  32
TORSDOF 3
ENDMDL
MODEL 6
REMARK VINA RESULT:      -7.0      1.848      2.261
REMARK  Name = 
REMARK  6 active torsions:
REMARK  status: ('A' for Active; 'I' for Inactive)
REMARK    1  A    between atoms: C_1  and  C_2
REMARK    2  A    between atoms: C_2  and  N_3
REMARK    3  A    between atoms: C_7  and  C_8
REMARK    4  A    between atoms: N_17  and  C_18
REMARK    5  A    between atoms: N_21  and  C_22
REMARK    6  A    between atoms: N_31  and  C_32
REMARK                            x       y       z     vdW  Elec       q    Type
REMARK                         _______ _______ _______ _____ _____    ______ ____
ROOT
ATOM      1  N   UNL     1      -0.300  11.327  22.255  0.00  0.00    +0.000 N 
ATOM      2  C   UNL     1      -0.257   9.951  22.161  0.00  0.00    +0.000 C 
ATOM      3  O   UNL     1      -0.987   9.168  22.748  0.00  0.00    +0.000 OA
ATOM      4  C   UNL     1       0.787   9.546  21.170  0.00  0.00    +0.000 C 
ATOM      5  C   UNL     1       0.982   8.252  20.870  0.00  0.00    +0.000 C 
ATOM      6  S   UNL     1       1.572  10.954  20.541  0.00  0.00    +0.000 S 
ATOM      7  C   UNL     1       0.526  12.048  21.430  0.00  0.00    +0.000 C 
ATOM      8  N   UNL     1       0.457  13.335  21.375  0.00  0.00    +0.000 NA
ENDROOT
BRANCH   5   9
ATOM      9  C   UNL     1       1.926   7.712  19.903  0.00  0.00    +0.000 C 
ATOM     10  C   UNL     1       2.192   6.419  19.610  0.00  0.00    +0.000 C 
ATOM     11  S   UNL     1       1.357   5.076  20.440  0.00  0.00    +0.000 S 
ATOM     12  C   UNL     1       2.307   3.919  19.456  0.00  0.00    +0.000 A 
ATOM     13  C   UNL     1       2.226   2.532  19.528  0.00  0.00    +0.000 A 
ATOM     14  C   UNL     1       3.042   1.774  18.688  0.00  0.00    +0.000 A 
ATOM     15  C   UNL     1       3.916   2.406  17.799  0.00  0.00    +0.000 A 
ATOM     16  C   UNL     1       3.987   3.806  17.734  0.00  0.00    +0.000 A 
ATOM     17  C   UNL     1       3.183   4.580  18.566  0.00  0.00    +0.000 A 
ATOM     18  N   UNL     1       3.120   5.985  18.650  0.00  0.00    +0.000 N 
ATOM     19  C   UNL     1       3.916   6.844  17.792  0.00  0.00    +0.000 C 
ENDBRANCH   5   9
BRANCH   8  20
ATOM     20  C   UNL     1       1.239  14.137  20.621  0.00  0.00    +0.000 A 
ATOM     21  S   UNL     1       1.033  14.115  18.893  0.00  0.00    +0.000 S 
ATOM     22  C   UNL     1       2.586  14.830  18.652  0.00  0.00    +0.000 A 
ATOM     23  C   UNL     1       3.441  14.879  17.549  0.00  0.00    +0.000 A 
ATOM     24  C   UNL     1       4.607  15.649  17.676  0.00  0.00    +0.000 A 
ATOM     25  C   UNL     1       4.830  16.433  18.808  0.00  0.00    +0.000 A 
ATOM     26 CL   UNL     1       6.187  17.486  18.863  0.00  0.00    +0.000 Cl
ATOM     27  C   UNL     1       4.013  16.320  19.934  0.00  0.00    +0.000 A 
ATOM     28  C   UNL     1       2.960  15.397  19.862  0.00  0.00    +0.000 A 
ATOM     29  N   UNL     1       2.441  14.621  20.886  0.00  0.00    +0.000 N 
ATOM     30  C   UNL     1       3.396  13.763  21.605  0.00  0.00    +0.000 C 
ENDBRANCH   8  20
BRANCH   1  32
ATOM     31  C   UNL     1      -2.586  12.243  22.439  0.00  0.00    +0.000 C 
ATOM     32  C   UNL     1      -1.269  11.964  23.147  0.00  0.00    +0.000 C 
ENDBRANCH   1  32
TORSDOF 3
ENDMDL
MODEL 7
REMARK VINA RESULT:      -6.8      3.332      5.509
REMARK  Name = 
REMARK  6 active torsions:
REMARK  status: ('A' for Active; 'I' for Inactive)
REMARK    1  A    between atoms: C_1  and  C_2
REMARK    2  A    between atoms: C_2  and  N_3
REMARK    3  A    between atoms: C_7  and  C_8
REMARK    4  A    between atoms: N_17  and  C_18
REMARK    5  A    between atoms: N_21  and  C_22
REMARK    6  A    between atoms: N_31  and  C_32
REMARK                            x       y       z     vdW  Elec       q    Type
REMARK                         _______ _______ _______ _____ _____    ______ ____
ROOT
ATOM      1  N   UNL     1       0.370  14.050  19.069  0.00  0.00    +0.000 N 
ATOM      2  C   UNL     1       1.218  13.060  18.616  0.00  0.00    +0.000 C 
ATOM      3  O   UNL     1       2.126  13.205  17.812  0.00  0.00    +0.000 OA
ATOM      4  C   UNL     1       0.906  11.772  19.308  0.00  0.00    +0.000 C 
ATOM      5  C   UNL     1       1.635  10.670  19.068  0.00  0.00    +0.000 C 
ATOM      6  S   UNL     1      -0.424  12.000  20.391  0.00  0.00    +0.000 S 
ATOM      7  C   UNL     1      -0.519  13.721  20.061  0.00  0.00    +0.000 C 
ATOM      8  N   UNL     1      -1.259  14.618  20.619  0.00  0.00    +0.000 NA
ENDROOT
BRANCH   5   9
ATOM      9  C   UNL     1       1.476   9.364  19.692  0.00  0.00    +0.000 C 
ATOM     10  C   UNL     1       1.979   8.173  19.299  0.00  0.00    +0.000 C 
ATOM     11  S   UNL     1       2.990   8.014  17.836  0.00  0.00    +0.000 S 
ATOM     12  C   UNL     1       3.125   6.257  18.158  0.00  0.00    +0.000 A 
ATOM     13  C   UNL     1       3.821   5.338  17.379  0.00  0.00    +0.000 A 
ATOM     14  C   UNL     1       3.824   4.000  17.772  0.00  0.00    +0.000 A 
ATOM     15  C   UNL     1       3.139   3.604  18.925  0.00  0.00    +0.000 A 
ATOM     16  C   UNL     1       2.442   4.541  19.703  0.00  0.00    +0.000 A 
ATOM     17  C   UNL     1       2.426   5.880  19.326  0.00  0.00    +0.000 A 
ATOM     18  N   UNL     1       1.781   6.954  19.970  0.00  0.00    +0.000 N 
ATOM     19  C   UNL     1       1.041   6.780  21.207  0.00  0.00    +0.000 C 
ENDBRANCH   5   9
BRANCH   8  20
ATOM     20  C   UNL     1      -2.181  14.397  21.580  0.00  0.00    +0.000 A 
ATOM     21  S   UNL     1      -1.646  13.806  23.127  0.00  0.00    +0.000 S 
ATOM     22  C   UNL     1      -3.238  13.270  23.526  0.00  0.00    +0.000 A 
ATOM     23  C   UNL     1      -3.715  12.344  24.456  0.00  0.00    +0.000 A 
ATOM     24  C   UNL     1      -5.108  12.227  24.585  0.00  0.00    +0.000 A 
ATOM     25  C   UNL     1      -5.967  13.092  23.907  0.00  0.00    +0.000 A 
ATOM     26 CL   UNL     1      -7.658  13.027  24.210  0.00  0.00    +0.000 Cl
ATOM     27  C   UNL     1      -5.488  13.960  22.926  0.00  0.00    +0.000 A 
ATOM     28  C   UNL     1      -4.110  13.927  22.669  0.00  0.00    +0.000 A 
ATOM     29  N   UNL     1      -3.468  14.117  21.455  0.00  0.00    +0.000 N 
ATOM     30  C   UNL     1      -3.887  13.244  20.349  0.00  0.00    +0.000 C 
ENDBRANCH   8  20
BRANCH   1  32
ATOM     31  C   UNL     1       1.585  16.188  19.288  0.00  0.00    +0.000 C 
ATOM     32  C   UNL     1       0.503  15.412  18.554  0.00  0.00    +0.000 C 
ENDBRANCH   1  32
TORSDOF 3
ENDMDL
MODEL 8
REMARK VINA RESULT:      -6.8      3.181      3.878
REMARK  Name = 
REMARK  6 active torsions:
REMARK  status: ('A' for Active; 'I' for Inactive)
REMARK    1  A    between atoms: C_1  and  C_2
REMARK    2  A    between atoms: C_2  and  N_3
REMARK    3  A    between atoms: C_7  and  C_8
REMARK    4  A    between atoms: N_17  and  C_18
REMARK    5  A    between atoms: N_21  and  C_22
REMARK    6  A    between atoms: N_31  and  C_32
REMARK                            x       y       z     vdW  Elec       q    Type
REMARK                         _______ _______ _______ _____ _____    ______ ____
ROOT
ATOM      1  N   UNL     1       0.173  12.319  18.889  0.00  0.00    +0.000 N 
ATOM      2  C   UNL     1      -0.125  11.023  18.519  0.00  0.00    +0.000 C 
ATOM      3  O   UNL     1      -1.240  10.580  18.291  0.00  0.00    +0.000 OA
ATOM      4  C   UNL     1       1.139  10.237  18.370  0.00  0.00    +0.000 C 
ATOM      5  C   UNL     1       1.106   8.957  17.967  0.00  0.00    +0.000 C 
ATOM      6  S   UNL     1       2.497  11.239  18.752  0.00  0.00    +0.000 S 
ATOM      7  C   UNL     1       1.498  12.662  18.990  0.00  0.00    +0.000 C 
ATOM      8  N   UNL     1       1.856  13.881  19.213  0.00  0.00    +0.000 NA
ENDROOT
BRANCH   5   9
ATOM      9  C   UNL     1       2.248   8.083  17.740  0.00  0.00    +0.000 C 
ATOM     10  C   UNL     1       2.546   6.908  18.339  0.00  0.00    +0.000 C 
ATOM     11  S   UNL     1       1.500   6.204  19.602  0.00  0.00    +0.000 S 
ATOM     12  C   UNL     1       2.637   4.824  19.730  0.00  0.00    +0.000 A 
ATOM     13  C   UNL     1       2.508   3.741  20.594  0.00  0.00    +0.000 A 
ATOM     14  C   UNL     1       3.488   2.749  20.567  0.00  0.00    +0.000 A 
ATOM     15  C   UNL     1       4.570   2.853  19.688  0.00  0.00    +0.000 A 
ATOM     16  C   UNL     1       4.688   3.950  18.820  0.00  0.00    +0.000 A 
ATOM     17  C   UNL     1       3.721   4.951  18.834  0.00  0.00    +0.000 A 
ATOM     18  N   UNL     1       3.673   6.121  18.050  0.00  0.00    +0.000 N 
ATOM     19  C   UNL     1       4.677   6.416  17.044  0.00  0.00    +0.000 C 
ENDBRANCH   5   9
BRANCH   8  20
ATOM     20  C   UNL     1       3.126  14.318  19.357  0.00  0.00    +0.000 A 
ATOM     21  S   UNL     1       3.601  15.006  20.883  0.00  0.00    +0.000 S 
ATOM     22  C   UNL     1       4.970  15.774  20.164  0.00  0.00    +0.000 A 
ATOM     23  C   UNL     1       5.767  16.848  20.565  0.00  0.00    +0.000 A 
ATOM     24  C   UNL     1       6.883  17.149  19.769  0.00  0.00    +0.000 A 
ATOM     25  C   UNL     1       7.248  16.325  18.703  0.00  0.00    +0.000 A 
ATOM     26 CL   UNL     1       8.709  16.630  17.851  0.00  0.00    +0.000 Cl
ATOM     27  C   UNL     1       6.408  15.302  18.264  0.00  0.00    +0.000 A 
ATOM     28  C   UNL     1       5.197  15.138  18.951  0.00  0.00    +0.000 A 
ATOM     29  N   UNL     1       3.975  14.739  18.434  0.00  0.00    +0.000 N 
ATOM     30  C   UNL     1       3.449  15.529  17.311  0.00  0.00    +0.000 C 
ENDBRANCH   8  20
BRANCH   1  32
ATOM     31  C   UNL     1      -1.463  13.254  20.484  0.00  0.00    +0.000 C 
ATOM     32  C   UNL     1      -0.905  13.289  19.069  0.00  0.00    +0.000 C 
ENDBRANCH   1  32
TORSDOF 3
ENDMDL
MODEL 9
REMARK VINA RESULT:      -6.7      5.802      8.466
REMARK  Name = 
REMARK  6 active torsions:
REMARK  status: ('A' for Active; 'I' for Inactive)
REMARK    1  A    between atoms: C_1  and  C_2
REMARK    2  A    between atoms: C_2  and  N_3
REMARK    3  A    between atoms: C_7  and  C_8
REMARK    4  A    between atoms: N_17  and  C_18
REMARK    5  A    between atoms: N_21  and  C_22
REMARK    6  A    between atoms: N_31  and  C_32
REMARK                            x       y       z     vdW  Elec       q    Type
REMARK                         _______ _______ _______ _____ _____    ______ ____
ROOT
ATOM      1  N   UNL     1       2.862  16.871  19.966  0.00  0.00    +0.000 N 
ATOM      2  C   UNL     1       4.181  17.070  19.611  0.00  0.00    +0.000 C 
ATOM      3  O   UNL     1       4.820  18.097  19.772  0.00  0.00    +0.000 OA
ATOM      4  C   UNL     1       4.749  15.805  19.049  0.00  0.00    +0.000 C 
ATOM      5  C   UNL     1       6.037  15.738  18.678  0.00  0.00    +0.000 C 
ATOM      6  S   UNL     1       3.528  14.579  19.023  0.00  0.00    +0.000 S 
ATOM      7  C   UNL     1       2.345  15.609  19.811  0.00  0.00    +0.000 C 
ATOM      8  N   UNL     1       1.161  15.316  20.232  0.00  0.00    +0.000 NA
ENDROOT
BRANCH   5   9
ATOM      9  C   UNL     1       6.736  14.573  18.155  0.00  0.00    +0.000 C 
ATOM     10  C   UNL     1       7.959  14.101  18.486  0.00  0.00    +0.000 C 
ATOM     11  S   UNL     1       8.980  14.908  19.708  0.00  0.00    +0.000 S 
ATOM     12  C   UNL     1      10.235  13.658  19.439  0.00  0.00    +0.000 A 
ATOM     13  C   UNL     1      11.467  13.591  20.082  0.00  0.00    +0.000 A 
ATOM     14  C   UNL     1      12.333  12.548  19.753  0.00  0.00    +0.000 A 
ATOM     15  C   UNL     1      11.958  11.598  18.797  0.00  0.00    +0.000 A 
ATOM     16  C   UNL     1      10.712  11.676  18.158  0.00  0.00    +0.000 A 
ATOM     17  C   UNL     1       9.836  12.710  18.471  0.00  0.00    +0.000 A 
ATOM     18  N   UNL     1       8.557  12.956  17.933  0.00  0.00    +0.000 N 
ATOM     19  C   UNL     1       7.952  12.075  16.951  0.00  0.00    +0.000 C 
ENDBRANCH   5   9
BRANCH   8  20
ATOM     20  C   UNL     1       0.551  14.119  20.105  0.00  0.00    +0.000 A 
ATOM     21  S   UNL     1       1.357  12.704  20.719  0.00  0.00    +0.000 S 
ATOM     22  C   UNL     1       0.367  11.666  19.758  0.00  0.00    +0.000 A 
ATOM     23  C   UNL     1       0.523  10.346  19.329  0.00  0.00    +0.000 A 
ATOM     24  C   UNL     1      -0.548   9.770  18.630  0.00  0.00    +0.000 A 
ATOM     25  C   UNL     1      -1.761  10.445  18.490  0.00  0.00    +0.000 A 
ATOM     26 CL   UNL     1      -3.103   9.649  17.770  0.00  0.00    +0.000 Cl
ATOM     27  C   UNL     1      -1.884  11.786  18.853  0.00  0.00    +0.000 A 
ATOM     28  C   UNL     1      -0.740  12.409  19.373  0.00  0.00    +0.000 A 
ATOM     29  N   UNL     1      -0.346  13.728  19.214  0.00  0.00    +0.000 N 
ATOM     30  C   UNL     1      -0.211  14.209  17.831  0.00  0.00    +0.000 C 
ENDBRANCH   8  20
BRANCH   1  32
ATOM     31  C   UNL     1       1.090  18.548  19.592  0.00  0.00    +0.000 C 
ATOM     32  C   UNL     1       2.100  17.963  20.567  0.00  0.00    +0.000 C 
ENDBRANCH   1  32
TORSDOF 3
ENDMDL
