MODEL 1
REMARK VINA RESULT:      -5.7      0.000      0.000
REMARK  Name = 
REMARK  2 active torsions:
REMARK  status: ('A' for Active; 'I' for Inactive)
REMARK    1  A    between atoms: C_1  and  N_2
REMARK    2  A    between atoms: C_6  and  C_7
REMARK                            x       y       z     vdW  Elec       q    Type
REMARK                         _______ _______ _______ _____ _____    ______ ____
ROOT
ATOM      1  C   UNL     1       6.065   5.232  19.329  0.00  0.00    +0.000 C 
ATOM      2  N   UNL     1       6.198   4.412  18.123  0.00  0.00    +0.000 NA
ATOM      3  C   UNL     1       7.335   4.878  17.310  0.00  0.00    +0.000 C 
ATOM      4  C   UNL     1       7.046   4.313  15.929  0.00  0.00    +0.000 C 
ATOM      5  C   UNL     1       5.557   3.986  15.941  0.00  0.00    +0.000 C 
ATOM      6  C   UNL     1       5.026   4.575  17.241  0.00  0.00    +0.000 C 
ENDROOT
BRANCH   6   7
ATOM      7  C   UNL     1       3.742   3.924  17.679  0.00  0.00    +0.000 A 
ATOM      8  C   UNL     1       2.516   4.584  17.779  0.00  0.00    +0.000 A 
ATOM      9  C   UNL     1       1.370   3.889  18.161  0.00  0.00    +0.000 A 
ATOM     10  C   UNL     1       1.492   2.540  18.455  0.00  0.00    +0.000 A 
ATOM     11  N   UNL     1       2.661   1.867  18.411  0.00  0.00    +0.000 NA
ATOM     12  C   UNL     1       3.749   2.568  18.026  0.00  0.00    +0.000 A 
ENDBRANCH   6   7
TORSDOF 1
ENDMDL
MODEL 2
REMARK VINA RESULT:      -5.7      0.814      4.621
REMARK  Name = 
REMARK  2 active torsions:
REMARK  status: ('A' for Active; 'I' for Inactive)
REMARK    1  A    between atoms: C_1  and  N_2
REMARK    2  A    between atoms: C_6  and  C_7
REMARK                            x       y       z     vdW  Elec       q    Type
REMARK                         _______ _______ _______ _____ _____    ______ ____
ROOT
ATOM      1  C   UNL     1       3.694   1.375  18.382  0.00  0.00    +0.000 C 
ATOM      2  N   UNL     1       3.110   2.702  18.591  0.00  0.00    +0.000 NA
ATOM      3  C   UNL     1       1.654   2.660  18.370  0.00  0.00    +0.000 C 
ATOM      4  C   UNL     1       1.286   4.113  18.119  0.00  0.00    +0.000 C 
ATOM      5  C   UNL     1       2.597   4.792  17.740  0.00  0.00    +0.000 C 
ATOM      6  C   UNL     1       3.605   3.662  17.584  0.00  0.00    +0.000 C 
ENDROOT
BRANCH   6   7
ATOM      7  C   UNL     1       5.024   4.139  17.732  0.00  0.00    +0.000 A 
ATOM      8  C   UNL     1       5.963   4.157  16.698  0.00  0.00    +0.000 A 
ATOM      9  C   UNL     1       7.247   4.651  16.921  0.00  0.00    +0.000 A 
ATOM     10  C   UNL     1       7.563   5.099  18.194  0.00  0.00    +0.000 A 
ATOM     11  N   UNL     1       6.704   5.064  19.235  0.00  0.00    +0.000 NA
ATOM     12  C   UNL     1       5.466   4.591  18.980  0.00  0.00    +0.000 A 
ENDBRANCH   6   7
TORSDOF 1
ENDMDL
MODEL 3
REMARK VINA RESULT:      -5.6      1.784      4.551
REMARK  Name = 
REMARK  2 active torsions:
REMARK  status: ('A' for Active; 'I' for Inactive)
REMARK    1  A    between atoms: C_1  and  N_2
REMARK    2  A    between atoms: C_6  and  C_7
REMARK                            x       y       z     vdW  Elec       q    Type
REMARK                         _______ _______ _______ _____ _____    ______ ____
ROOT
ATOM      1  C   UNL     1       4.373   2.534  19.857  0.00  0.00    +0.000 C 
ATOM      2  N   UNL     1       3.109   3.218  19.575  0.00  0.00    +0.000 NA
ATOM      3  C   UNL     1       1.971   2.393  20.014  0.00  0.00    +0.000 C 
ATOM      4  C   UNL     1       0.796   2.953  19.231  0.00  0.00    +0.000 C 
ATOM      5  C   UNL     1       1.423   3.716  18.069  0.00  0.00    +0.000 C 
ATOM      6  C   UNL     1       2.907   3.377  18.121  0.00  0.00    +0.000 C 
ENDROOT
BRANCH   6   7
ATOM      7  C   UNL     1       3.751   4.406  17.420  0.00  0.00    +0.000 A 
ATOM      8  C   UNL     1       4.690   4.114  16.428  0.00  0.00    +0.000 A 
ATOM      9  C   UNL     1       5.403   5.139  15.808  0.00  0.00    +0.000 A 
ATOM     10  C   UNL     1       5.166   6.441  16.220  0.00  0.00    +0.000 A 
ATOM     11  N   UNL     1       4.298   6.770  17.201  0.00  0.00    +0.000 NA
ATOM     12  C   UNL     1       3.617   5.753  17.771  0.00  0.00    +0.000 A 
ENDBRANCH   6   7
TORSDOF 1
ENDMDL
MODEL 4
REMARK VINA RESULT:      -5.5      1.275      4.523
REMARK  Name = 
REMARK  2 active torsions:
REMARK  status: ('A' for Active; 'I' for Inactive)
REMARK    1  A    between atoms: C_1  and  N_2
REMARK    2  A    between atoms: C_6  and  C_7
REMARK                            x       y       z     vdW  Elec       q    Type
REMARK                         _______ _______ _______ _____ _____    ______ ____
ROOT
ATOM      1  C   UNL     1       2.724   5.959  18.182  0.00  0.00    +0.000 C 
ATOM      2  N   UNL     1       2.618   4.573  17.718  0.00  0.00    +0.000 NA
ATOM      3  C   UNL     1       1.617   3.842  18.514  0.00  0.00    +0.000 C 
ATOM      4  C   UNL     1       1.972   2.383  18.288  0.00  0.00    +0.000 C 
ATOM      5  C   UNL     1       3.412   2.400  17.786  0.00  0.00    +0.000 C 
ATOM      6  C   UNL     1       3.878   3.840  17.953  0.00  0.00    +0.000 C 
ENDROOT
BRANCH   6   7
ATOM      7  C   UNL     1       5.041   4.170  17.057  0.00  0.00    +0.000 A 
ATOM      8  C   UNL     1       4.976   4.209  15.662  0.00  0.00    +0.000 A 
ATOM      9  C   UNL     1       6.099   4.560  14.914  0.00  0.00    +0.000 A 
ATOM     10  C   UNL     1       7.273   4.844  15.593  0.00  0.00    +0.000 A 
ATOM     11  N   UNL     1       7.396   4.780  16.936  0.00  0.00    +0.000 NA
ATOM     12  C   UNL     1       6.286   4.449  17.629  0.00  0.00    +0.000 A 
ENDBRANCH   6   7
TORSDOF 1
ENDMDL
MODEL 5
REMARK VINA RESULT:      -5.5      0.829      1.385
REMARK  Name = 
REMARK  2 active torsions:
REMARK  status: ('A' for Active; 'I' for Inactive)
REMARK    1  A    between atoms: C_1  and  N_2
REMARK    2  A    between atoms: C_6  and  C_7
REMARK                            x       y       z     vdW  Elec       q    Type
REMARK                         _______ _______ _______ _____ _____    ______ ____
ROOT
ATOM      1  C   UNL     1       6.049   5.195  19.314  0.00  0.00    +0.000 C 
ATOM      2  N   UNL     1       6.198   4.397  18.095  0.00  0.00    +0.000 NA
ATOM      3  C   UNL     1       7.327   4.896  17.291  0.00  0.00    +0.000 C 
ATOM      4  C   UNL     1       7.049   4.349  15.901  0.00  0.00    +0.000 C 
ATOM      5  C   UNL     1       5.566   3.996  15.905  0.00  0.00    +0.000 C 
ATOM      6  C   UNL     1       5.023   4.554  17.214  0.00  0.00    +0.000 C 
ENDROOT
BRANCH   6   7
ATOM      7  C   UNL     1       3.751   3.873  17.640  0.00  0.00    +0.000 A 
ATOM      8  C   UNL     1       3.628   2.501  17.869  0.00  0.00    +0.000 A 
ATOM      9  C   UNL     1       2.415   1.963  18.296  0.00  0.00    +0.000 A 
ATOM     10  C   UNL     1       1.342   2.824  18.462  0.00  0.00    +0.000 A 
ATOM     11  N   UNL     1       1.400   4.150  18.215  0.00  0.00    +0.000 NA
ATOM     12  C   UNL     1       2.593   4.638  17.814  0.00  0.00    +0.000 A 
ENDBRANCH   6   7
TORSDOF 1
ENDMDL
MODEL 6
REMARK VINA RESULT:      -5.5      1.789      4.403
REMARK  Name = 
REMARK  2 active torsions:
REMARK  status: ('A' for Active; 'I' for Inactive)
REMARK    1  A    between atoms: C_1  and  N_2
REMARK    2  A    between atoms: C_6  and  C_7
REMARK                            x       y       z     vdW  Elec       q    Type
REMARK                         _______ _______ _______ _____ _____    ______ ____
ROOT
ATOM      1  C   UNL     1       4.380   2.533  19.823  0.00  0.00    +0.000 C 
ATOM      2  N   UNL     1       3.096   3.193  19.572  0.00  0.00    +0.000 NA
ATOM      3  C   UNL     1       1.982   2.310  19.962  0.00  0.00    +0.000 C 
ATOM      4  C   UNL     1       0.793   2.875  19.205  0.00  0.00    +0.000 C 
ATOM      5  C   UNL     1       1.400   3.717  18.088  0.00  0.00    +0.000 C 
ATOM      6  C   UNL     1       2.893   3.422  18.128  0.00  0.00    +0.000 C 
ENDROOT
BRANCH   6   7
ATOM      7  C   UNL     1       3.707   4.512  17.486  0.00  0.00    +0.000 A 
ATOM      8  C   UNL     1       3.600   5.868  17.802  0.00  0.00    +0.000 A 
ATOM      9  C   UNL     1       4.423   6.804  17.178  0.00  0.00    +0.000 A 
ATOM     10  C   UNL     1       5.324   6.352  16.228  0.00  0.00    +0.000 A 
ATOM     11  N   UNL     1       5.436   5.058  15.859  0.00  0.00    +0.000 NA
ATOM     12  C   UNL     1       4.633   4.177  16.492  0.00  0.00    +0.000 A 
ENDBRANCH   6   7
TORSDOF 1
ENDMDL
MODEL 7
REMARK VINA RESULT:      -5.5      1.358      4.690
REMARK  Name = 
REMARK  2 active torsions:
REMARK  status: ('A' for Active; 'I' for Inactive)
REMARK    1  A    between atoms: C_1  and  N_2
REMARK    2  A    between atoms: C_6  and  C_7
REMARK                            x       y       z     vdW  Elec       q    Type
REMARK                         _______ _______ _______ _____ _____    ______ ____
ROOT
ATOM      1  C   UNL     1       2.451   2.165  18.251  0.00  0.00    +0.000 C 
ATOM      2  N   UNL     1       2.723   3.247  19.199  0.00  0.00    +0.000 NA
ATOM      3  C   UNL     1       1.481   3.658  19.876  0.00  0.00    +0.000 C 
ATOM      4  C   UNL     1       1.799   5.047  20.402  0.00  0.00    +0.000 C 
ATOM      5  C   UNL     1       3.002   5.511  19.588  0.00  0.00    +0.000 C 
ATOM      6  C   UNL     1       3.177   4.464  18.497  0.00  0.00    +0.000 C 
ENDROOT
BRANCH   6   7
ATOM      7  C   UNL     1       4.573   4.452  17.937  0.00  0.00    +0.000 A 
ATOM      8  C   UNL     1       4.879   4.314  16.581  0.00  0.00    +0.000 A 
ATOM      9  C   UNL     1       6.205   4.350  16.151  0.00  0.00    +0.000 A 
ATOM     10  C   UNL     1       7.198   4.504  17.105  0.00  0.00    +0.000 A 
ATOM     11  N   UNL     1       6.954   4.601  18.430  0.00  0.00    +0.000 NA
ATOM     12  C   UNL     1       5.659   4.574  18.810  0.00  0.00    +0.000 A 
ENDBRANCH   6   7
TORSDOF 1
ENDMDL
MODEL 8
REMARK VINA RESULT:      -5.5      2.051      4.530
REMARK  Name = 
REMARK  2 active torsions:
REMARK  status: ('A' for Active; 'I' for Inactive)
REMARK    1  A    between atoms: C_1  and  N_2
REMARK    2  A    between atoms: C_6  and  C_7
REMARK                            x       y       z     vdW  Elec       q    Type
REMARK                         _______ _______ _______ _____ _____    ______ ____
ROOT
ATOM      1  C   UNL     1       4.298   3.304  19.343  0.00  0.00    +0.000 C 
ATOM      2  N   UNL     1       4.181   4.754  19.181  0.00  0.00    +0.000 NA
ATOM      3  C   UNL     1       3.021   5.262  19.933  0.00  0.00    +0.000 C 
ATOM      4  C   UNL     1       2.732   6.606  19.288  0.00  0.00    +0.000 C 
ATOM      5  C   UNL     1       3.425   6.549  17.931  0.00  0.00    +0.000 C 
ATOM      6  C   UNL     1       3.889   5.107  17.777  0.00  0.00    +0.000 C 
ENDROOT
BRANCH   6   7
ATOM      7  C   UNL     1       5.015   4.974  16.788  0.00  0.00    +0.000 A 
ATOM      8  C   UNL     1       5.058   4.025  15.764  0.00  0.00    +0.000 A 
ATOM      9  C   UNL     1       6.128   3.999  14.872  0.00  0.00    +0.000 A 
ATOM     10  C   UNL     1       7.147   4.923  15.046  0.00  0.00    +0.000 A 
ATOM     11  N   UNL     1       7.170   5.832  16.044  0.00  0.00    +0.000 NA
ATOM     12  C   UNL     1       6.112   5.837  16.882  0.00  0.00    +0.000 A 
ENDBRANCH   6   7
TORSDOF 1
ENDMDL
MODEL 9
REMARK VINA RESULT:      -5.5      1.967      4.799
REMARK  Name = 
REMARK  2 active torsions:
REMARK  status: ('A' for Active; 'I' for Inactive)
REMARK    1  A    between atoms: C_1  and  N_2
REMARK    2  A    between atoms: C_6  and  C_7
REMARK                            x       y       z     vdW  Elec       q    Type
REMARK                         _______ _______ _______ _____ _____    ______ ____
ROOT
ATOM      1  C   UNL     1       2.749   6.018  19.664  0.00  0.00    +0.000 C 
ATOM      2  N   UNL     1       2.924   5.309  18.394  0.00  0.00    +0.000 NA
ATOM      3  C   UNL     1       1.933   4.226  18.271  0.00  0.00    +0.000 C 
ATOM      4  C   UNL     1       2.533   3.306  17.222  0.00  0.00    +0.000 C 
ATOM      5  C   UNL     1       4.013   3.667  17.180  0.00  0.00    +0.000 C 
ATOM      6  C   UNL     1       4.228   4.618  18.350  0.00  0.00    +0.000 C 
ENDROOT
BRANCH   6   7
ATOM      7  C   UNL     1       5.452   5.474  18.171  0.00  0.00    +0.000 A 
ATOM      8  C   UNL     1       6.589   5.405  18.979  0.00  0.00    +0.000 A 
ATOM      9  C   UNL     1       7.692   6.215  18.715  0.00  0.00    +0.000 A 
ATOM     10  C   UNL     1       7.614   7.097  17.648  0.00  0.00    +0.000 A 
ATOM     11  N   UNL     1       6.523   7.229  16.864  0.00  0.00    +0.000 NA
ATOM     12  C   UNL     1       5.478   6.421  17.141  0.00  0.00    +0.000 A 
ENDBRANCH   6   7
TORSDOF 1
ENDMDL
