MODEL 1
REMARK VINA RESULT:      -8.1      0.000      0.000
REMARK  Name = 
REMARK  5 active torsions:
REMARK  status: ('A' for Active; 'I' for Inactive)
REMARK    1  A    between atoms: C_2  and  C_4
REMARK    2  A    between atoms: N_10  and  C_11
REMARK    3  A    between atoms: C_11  and  C_12
REMARK    4  A    between atoms: C_17  and  C_18
REMARK    5  A    between atoms: C_18  and  N_19
REMARK                            x       y       z     vdW  Elec       q    Type
REMARK                         _______ _______ _______ _____ _____    ______ ____
ROOT
ATOM      1  C   UNL     1      -1.267  10.761  18.948  0.00  0.00    +0.000 C 
ATOM      2  C   UNL     1      -0.781  10.359  20.347  0.00  0.00    +0.000 C 
ATOM      3  C   UNL     1       0.737  10.216  20.424  0.00  0.00    +0.000 C 
ATOM      4  N   UNL     1       1.253   9.352  19.369  0.00  0.00    +0.000 N 
ATOM      5  C   UNL     1       1.842   8.152  19.733  0.00  0.00    +0.000 C 
ATOM      6  O   UNL     1       1.726   7.686  20.866  0.00  0.00    +0.000 OA
ATOM      7  N   UNL     1       2.594   7.534  18.777  0.00  0.00    +0.000 N 
ATOM      8  C   UNL     1       0.916   9.798  18.016  0.00  0.00    +0.000 C 
ATOM      9  C   UNL     1      -0.606   9.903  17.857  0.00  0.00    +0.000 C 
ATOM     10  H   UNL     1       2.666   7.936  17.861  0.00  0.00    +0.000 HD
ENDROOT
BRANCH   1  12
ATOM     11  N   UNL     1      -1.178  12.625  17.368  0.00  0.00    +0.000 N 
ATOM     12  C   UNL     1      -1.085  12.253  18.678  0.00  0.00    +0.000 C 
ATOM     13  O   UNL     1      -0.846  13.087  19.542  0.00  0.00    +0.000 OA
ATOM     14  H   UNL     1      -0.963  13.592  17.153  0.00  0.00    +0.000 HD
ATOM     15  H   UNL     1      -1.138  11.956  16.611  0.00  0.00    +0.000 HD
ENDBRANCH   1  12
BRANCH   7  16
ATOM     16  C   UNL     1       3.185   6.213  18.968  0.00  0.00    +0.000 C 
BRANCH  16  17
ATOM     17  C   UNL     1       4.052   5.721  17.826  0.00  0.00    +0.000 A 
ATOM     18  C   UNL     1       4.508   6.657  16.878  0.00  0.00    +0.000 A 
ATOM     19  C   UNL     1       5.239   6.259  15.757  0.00  0.00    +0.000 A 
ATOM     20  C   UNL     1       5.489   4.912  15.536  0.00  0.00    +0.000 A 
ATOM     21  C   UNL     1       5.078   3.972  16.477  0.00  0.00    +0.000 A 
ATOM     22  C   UNL     1       4.406   4.361  17.655  0.00  0.00    +0.000 A 
BRANCH  22  23
ATOM     23  C   UNL     1       4.211   3.313  18.731  0.00  0.00    +0.000 C 
BRANCH  23  24
ATOM     24  N   UNL     1       2.819   3.038  19.025  0.00  0.00    +0.000 N 
ATOM     25  C   UNL     1       1.863   2.628  18.144  0.00  0.00    +0.000 A 
ATOM     26  N   UNL     1       0.754   2.355  18.790  0.00  0.00    +0.000 NA
ATOM     27  C   UNL     1       1.092   2.596  20.091  0.00  0.00    +0.000 A 
ATOM     28  N   UNL     1       2.352   2.996  20.291  0.00  0.00    +0.000 NA
ENDBRANCH  23  24
ENDBRANCH  22  23
ENDBRANCH  16  17
ENDBRANCH   7  16
TORSDOF 5
ENDMDL
MODEL 2
REMARK VINA RESULT:      -8.1      2.074      3.500
REMARK  Name = 
REMARK  5 active torsions:
REMARK  status: ('A' for Active; 'I' for Inactive)
REMARK    1  A    between atoms: C_2  and  C_4
REMARK    2  A    between atoms: N_10  and  C_11
REMARK    3  A    between atoms: C_11  and  C_12
REMARK    4  A    between atoms: C_17  and  C_18
REMARK    5  A    between atoms: C_18  and  N_19
REMARK                            x       y       z     vdW  Elec       q    Type
REMARK                         _______ _______ _______ _____ _____    ______ ____
ROOT
ATOM      1  C   UNL     1      -1.369  11.486  19.535  0.00  0.00    +0.000 C 
ATOM      2  C   UNL     1      -0.702  11.471  20.917  0.00  0.00    +0.000 C 
ATOM      3  C   UNL     1       0.758  11.025  20.862  0.00  0.00    +0.000 C 
ATOM      4  N   UNL     1       0.912   9.768  20.138  0.00  0.00    +0.000 N 
ATOM      5  C   UNL     1       1.348   8.657  20.840  0.00  0.00    +0.000 C 
ATOM      6  O   UNL     1       1.371   8.631  22.070  0.00  0.00    +0.000 OA
ATOM      7  N   UNL     1       1.792   7.605  20.091  0.00  0.00    +0.000 N 
ATOM      8  C   UNL     1       0.406   9.806  18.765  0.00  0.00    +0.000 C 
ATOM      9  C   UNL     1      -1.080  10.190  18.759  0.00  0.00    +0.000 C 
ATOM     10  H   UNL     1       1.755   7.655  19.090  0.00  0.00    +0.000 HD
ENDROOT
BRANCH   1  12
ATOM     11  N   UNL     1      -1.121  12.597  17.371  0.00  0.00    +0.000 N 
ATOM     12  C   UNL     1      -0.992  12.723  18.724  0.00  0.00    +0.000 C 
ATOM     13  O   UNL     1      -0.576  13.768  19.209  0.00  0.00    +0.000 OA
ATOM     14  H   UNL     1      -0.785  13.369  16.807  0.00  0.00    +0.000 HD
ATOM     15  H   UNL     1      -1.231  11.699  16.919  0.00  0.00    +0.000 HD
ENDBRANCH   1  12
BRANCH   7  16
ATOM     16  C   UNL     1       2.177   6.325  20.677  0.00  0.00    +0.000 C 
BRANCH  16  17
ATOM     17  C   UNL     1       1.928   5.113  19.801  0.00  0.00    +0.000 A 
ATOM     18  C   UNL     1       0.950   4.184  20.204  0.00  0.00    +0.000 A 
ATOM     19  C   UNL     1       0.731   3.005  19.489  0.00  0.00    +0.000 A 
ATOM     20  C   UNL     1       1.515   2.708  18.384  0.00  0.00    +0.000 A 
ATOM     21  C   UNL     1       2.464   3.629  17.946  0.00  0.00    +0.000 A 
ATOM     22  C   UNL     1       2.649   4.860  18.609  0.00  0.00    +0.000 A 
BRANCH  22  23
ATOM     23  C   UNL     1       3.521   5.897  17.932  0.00  0.00    +0.000 C 
BRANCH  23  24
ATOM     24  N   UNL     1       4.939   5.691  18.152  0.00  0.00    +0.000 N 
ATOM     25  C   UNL     1       5.528   5.205  19.281  0.00  0.00    +0.000 A 
ATOM     26  N   UNL     1       6.813   5.035  19.071  0.00  0.00    +0.000 NA
ATOM     27  C   UNL     1       6.962   5.416  17.768  0.00  0.00    +0.000 A 
ATOM     28  N   UNL     1       5.841   5.807  17.154  0.00  0.00    +0.000 NA
ENDBRANCH  23  24
ENDBRANCH  22  23
ENDBRANCH  16  17
ENDBRANCH   7  16
TORSDOF 5
ENDMDL
MODEL 3
REMARK VINA RESULT:      -8.0      2.011      3.429
REMARK  Name = 
REMARK  5 active torsions:
REMARK  status: ('A' for Active; 'I' for Inactive)
REMARK    1  A    between atoms: C_2  and  C_4
REMARK    2  A    between atoms: N_10  and  C_11
REMARK    3  A    between atoms: C_11  and  C_12
REMARK    4  A    between atoms: C_17  and  C_18
REMARK    5  A    between atoms: C_18  and  N_19
REMARK                            x       y       z     vdW  Elec       q    Type
REMARK                         _______ _______ _______ _____ _____    ______ ____
ROOT
ATOM      1  C   UNL     1      -1.333  11.411  19.349  0.00  0.00    +0.000 C 
ATOM      2  C   UNL     1      -0.751  11.282  20.763  0.00  0.00    +0.000 C 
ATOM      3  C   UNL     1       0.724  10.888  20.759  0.00  0.00    +0.000 C 
ATOM      4  N   UNL     1       0.968   9.714  19.930  0.00  0.00    +0.000 N 
ATOM      5  C   UNL     1       1.402   8.554  20.550  0.00  0.00    +0.000 C 
ATOM      6  O   UNL     1       1.351   8.408  21.770  0.00  0.00    +0.000 OA
ATOM      7  N   UNL     1       1.929   7.594  19.734  0.00  0.00    +0.000 N 
ATOM      8  C   UNL     1       0.546   9.870  18.537  0.00  0.00    +0.000 C 
ATOM      9  C   UNL     1      -0.949  10.207  18.473  0.00  0.00    +0.000 C 
ATOM     10  H   UNL     1       1.952   7.741  18.742  0.00  0.00    +0.000 HD
ENDROOT
BRANCH   1  12
ATOM     11  N   UNL     1      -1.111  12.774  17.330  0.00  0.00    +0.000 N 
ATOM     12  C   UNL     1      -0.954  12.733  18.686  0.00  0.00    +0.000 C 
ATOM     13  O   UNL     1      -0.512  13.705  19.285  0.00  0.00    +0.000 OA
ATOM     14  H   UNL     1      -0.774  13.604  16.857  0.00  0.00    +0.000 HD
ATOM     15  H   UNL     1      -1.243  11.938  16.776  0.00  0.00    +0.000 HD
ENDBRANCH   1  12
BRANCH   7  16
ATOM     16  C   UNL     1       2.325   6.276  20.217  0.00  0.00    +0.000 C 
BRANCH  16  17
ATOM     17  C   UNL     1       2.332   5.179  19.171  0.00  0.00    +0.000 A 
ATOM     18  C   UNL     1       1.383   4.144  19.278  0.00  0.00    +0.000 A 
ATOM     19  C   UNL     1       1.389   3.060  18.399  0.00  0.00    +0.000 A 
ATOM     20  C   UNL     1       2.370   2.964  17.423  0.00  0.00    +0.000 A 
ATOM     21  C   UNL     1       3.297   3.994  17.275  0.00  0.00    +0.000 A 
ATOM     22  C   UNL     1       3.262   5.135  18.104  0.00  0.00    +0.000 A 
BRANCH  22  23
ATOM     23  C   UNL     1       4.144   6.305  17.724  0.00  0.00    +0.000 C 
BRANCH  23  24
ATOM     24  N   UNL     1       5.558   6.048  17.910  0.00  0.00    +0.000 N 
ATOM     25  C   UNL     1       6.576   6.465  17.104  0.00  0.00    +0.000 A 
ATOM     26  N   UNL     1       7.728   6.158  17.654  0.00  0.00    +0.000 NA
ATOM     27  C   UNL     1       7.357   5.564  18.826  0.00  0.00    +0.000 A 
ATOM     28  N   UNL     1       6.040   5.490  19.041  0.00  0.00    +0.000 NA
ENDBRANCH  23  24
ENDBRANCH  22  23
ENDBRANCH  16  17
ENDBRANCH   7  16
TORSDOF 5
ENDMDL
MODEL 4
REMARK VINA RESULT:      -7.9      2.608      7.835
REMARK  Name = 
REMARK  5 active torsions:
REMARK  status: ('A' for Active; 'I' for Inactive)
REMARK    1  A    between atoms: C_2  and  C_4
REMARK    2  A    between atoms: N_10  and  C_11
REMARK    3  A    between atoms: C_11  and  C_12
REMARK    4  A    between atoms: C_17  and  C_18
REMARK    5  A    between atoms: C_18  and  N_19
REMARK                            x       y       z     vdW  Elec       q    Type
REMARK                         _______ _______ _______ _____ _____    ______ ____
ROOT
ATOM      1  C   UNL     1       2.919   3.541  18.815  0.00  0.00    +0.000 C 
ATOM      2  C   UNL     1       3.983   4.341  18.052  0.00  0.00    +0.000 C 
ATOM      3  C   UNL     1       4.282   5.692  18.699  0.00  0.00    +0.000 C 
ATOM      4  N   UNL     1       3.064   6.453  18.948  0.00  0.00    +0.000 N 
ATOM      5  C   UNL     1       2.877   7.637  18.254  0.00  0.00    +0.000 C 
ATOM      6  O   UNL     1       3.564   7.936  17.278  0.00  0.00    +0.000 OA
ATOM      7  N   UNL     1       1.915   8.475  18.738  0.00  0.00    +0.000 N 
ATOM      8  C   UNL     1       2.091   5.759  19.795  0.00  0.00    +0.000 C 
ATOM      9  C   UNL     1       1.703   4.416  19.163  0.00  0.00    +0.000 C 
ATOM     10  H   UNL     1       1.368   8.201  19.533  0.00  0.00    +0.000 HD
ENDROOT
BRANCH   1  12
ATOM     11  N   UNL     1       4.734   2.313  19.899  0.00  0.00    +0.000 N 
ATOM     12  C   UNL     1       3.490   2.853  20.053  0.00  0.00    +0.000 C 
ATOM     13  O   UNL     1       2.898   2.748  21.120  0.00  0.00    +0.000 OA
ATOM     14  H   UNL     1       5.092   1.767  20.674  0.00  0.00    +0.000 HD
ATOM     15  H   UNL     1       5.153   2.169  18.990  0.00  0.00    +0.000 HD
ENDBRANCH   1  12
BRANCH   7  16
ATOM     16  C   UNL     1       1.522   9.704  18.056  0.00  0.00    +0.000 C 
BRANCH  16  17
ATOM     17  C   UNL     1       0.072  10.109  18.237  0.00  0.00    +0.000 A 
ATOM     18  C   UNL     1      -0.903   9.487  17.435  0.00  0.00    +0.000 A 
ATOM     19  C   UNL     1      -2.244   9.873  17.491  0.00  0.00    +0.000 A 
ATOM     20  C   UNL     1      -2.630  10.919  18.316  0.00  0.00    +0.000 A 
ATOM     21  C   UNL     1      -1.689  11.525  19.146  0.00  0.00    +0.000 A 
ATOM     22  C   UNL     1      -0.344  11.098  19.160  0.00  0.00    +0.000 A 
BRANCH  22  23
ATOM     23  C   UNL     1       0.551  11.641  20.254  0.00  0.00    +0.000 C 
BRANCH  23  24
ATOM     24  N   UNL     1       0.461  10.899  21.497  0.00  0.00    +0.000 N 
ATOM     25  C   UNL     1      -0.456  11.078  22.489  0.00  0.00    +0.000 A 
ATOM     26  N   UNL     1      -0.311  10.143  23.399  0.00  0.00    +0.000 NA
ATOM     27  C   UNL     1       0.711   9.388  22.899  0.00  0.00    +0.000 A 
ATOM     28  N   UNL     1       1.205   9.796  21.726  0.00  0.00    +0.000 NA
ENDBRANCH  23  24
ENDBRANCH  22  23
ENDBRANCH  16  17
ENDBRANCH   7  16
TORSDOF 5
ENDMDL
MODEL 5
REMARK VINA RESULT:      -7.9      2.525      3.993
REMARK  Name = 
REMARK  5 active torsions:
REMARK  status: ('A' for Active; 'I' for Inactive)
REMARK    1  A    between atoms: C_2  and  C_4
REMARK    2  A    between atoms: N_10  and  C_11
REMARK    3  A    between atoms: C_11  and  C_12
REMARK    4  A    between atoms: C_17  and  C_18
REMARK    5  A    between atoms: C_18  and  N_19
REMARK                            x       y       z     vdW  Elec       q    Type
REMARK                         _______ _______ _______ _____ _____    ______ ____
ROOT
ATOM      1  C   UNL     1       0.478  11.350  21.428  0.00  0.00    +0.000 C 
ATOM      2  C   UNL     1       0.588  11.684  19.934  0.00  0.00    +0.000 C 
ATOM      3  C   UNL     1       0.230  10.501  19.037  0.00  0.00    +0.000 C 
ATOM      4  N   UNL     1       0.964   9.298  19.411  0.00  0.00    +0.000 N 
ATOM      5  C   UNL     1       1.878   8.782  18.506  0.00  0.00    +0.000 C 
ATOM      6  O   UNL     1       2.264   9.424  17.530  0.00  0.00    +0.000 OA
ATOM      7  N   UNL     1       2.297   7.503  18.735  0.00  0.00    +0.000 N 
ATOM      8  C   UNL     1       0.760   8.882  20.799  0.00  0.00    +0.000 C 
ATOM      9  C   UNL     1       1.163  10.013  21.754  0.00  0.00    +0.000 C 
ATOM     10  H   UNL     1       1.968   7.007  19.543  0.00  0.00    +0.000 HD
ENDROOT
BRANCH   1  12
ATOM     11  N   UNL     1      -1.187  10.759  23.118  0.00  0.00    +0.000 N 
ATOM     12  C   UNL     1      -0.967  11.378  21.921  0.00  0.00    +0.000 C 
ATOM     13  O   UNL     1      -1.897  11.885  21.308  0.00  0.00    +0.000 OA
ATOM     14  H   UNL     1      -2.152  10.678  23.418  0.00  0.00    +0.000 HD
ATOM     15  H   UNL     1      -0.512  10.134  23.536  0.00  0.00    +0.000 HD
ENDBRANCH   1  12
BRANCH   7  16
ATOM     16  C   UNL     1       3.338   6.859  17.942  0.00  0.00    +0.000 C 
BRANCH  16  17
ATOM     17  C   UNL     1       3.178   5.362  17.758  0.00  0.00    +0.000 A 
ATOM     18  C   UNL     1       1.964   4.764  18.148  0.00  0.00    +0.000 A 
ATOM     19  C   UNL     1       1.783   3.381  18.084  0.00  0.00    +0.000 A 
ATOM     20  C   UNL     1       2.825   2.564  17.673  0.00  0.00    +0.000 A 
ATOM     21  C   UNL     1       4.023   3.135  17.248  0.00  0.00    +0.000 A 
ATOM     22  C   UNL     1       4.200   4.535  17.232  0.00  0.00    +0.000 A 
BRANCH  22  23
ATOM     23  C   UNL     1       5.430   5.078  16.535  0.00  0.00    +0.000 C 
BRANCH  23  24
ATOM     24  N   UNL     1       6.463   5.523  17.450  0.00  0.00    +0.000 N 
ATOM     25  C   UNL     1       7.135   6.708  17.408  0.00  0.00    +0.000 A 
ATOM     26  N   UNL     1       7.902   6.819  18.467  0.00  0.00    +0.000 NA
ATOM     27  C   UNL     1       7.644   5.666  19.152  0.00  0.00    +0.000 A 
ATOM     28  N   UNL     1       6.754   4.847  18.582  0.00  0.00    +0.000 NA
ENDBRANCH  23  24
ENDBRANCH  22  23
ENDBRANCH  16  17
ENDBRANCH   7  16
TORSDOF 5
ENDMDL
MODEL 6
REMARK VINA RESULT:      -7.9      1.923      3.380
REMARK  Name = 
REMARK  5 active torsions:
REMARK  status: ('A' for Active; 'I' for Inactive)
REMARK    1  A    between atoms: C_2  and  C_4
REMARK    2  A    between atoms: N_10  and  C_11
REMARK    3  A    between atoms: C_11  and  C_12
REMARK    4  A    between atoms: C_17  and  C_18
REMARK    5  A    between atoms: C_18  and  N_19
REMARK                            x       y       z     vdW  Elec       q    Type
REMARK                         _______ _______ _______ _____ _____    ______ ____
ROOT
ATOM      1  C   UNL     1      -1.420  10.818  18.870  0.00  0.00    +0.000 C 
ATOM      2  C   UNL     1      -0.911  10.765  20.317  0.00  0.00    +0.000 C 
ATOM      3  C   UNL     1       0.602  10.579  20.403  0.00  0.00    +0.000 C 
ATOM      4  N   UNL     1       1.056   9.454  19.594  0.00  0.00    +0.000 N 
ATOM      5  C   UNL     1       1.609   8.362  20.243  0.00  0.00    +0.000 C 
ATOM      6  O   UNL     1       1.506   8.205  21.458  0.00  0.00    +0.000 OA
ATOM      7  N   UNL     1       2.311   7.489  19.463  0.00  0.00    +0.000 N 
ATOM      8  C   UNL     1       0.700   9.557  18.178  0.00  0.00    +0.000 C 
ATOM      9  C   UNL     1      -0.821   9.683  18.023  0.00  0.00    +0.000 C 
ATOM     10  H   UNL     1       2.373   7.642  18.473  0.00  0.00    +0.000 HD
ENDROOT
BRANCH   1  12
ATOM     11  N   UNL     1      -1.563  12.282  16.917  0.00  0.00    +0.000 N 
ATOM     12  C   UNL     1      -1.189  12.183  18.226  0.00  0.00    +0.000 C 
ATOM     13  O   UNL     1      -0.684  13.141  18.798  0.00  0.00    +0.000 OA
ATOM     14  H   UNL     1      -1.329  13.146  16.441  0.00  0.00    +0.000 HD
ATOM     15  H   UNL     1      -1.759  11.470  16.347  0.00  0.00    +0.000 HD
ENDBRANCH   1  12
BRANCH   7  16
ATOM     16  C   UNL     1       2.857   6.236  19.974  0.00  0.00    +0.000 C 
BRANCH  16  17
ATOM     17  C   UNL     1       2.739   5.050  19.038  0.00  0.00    +0.000 A 
ATOM     18  C   UNL     1       1.483   4.432  18.892  0.00  0.00    +0.000 A 
ATOM     19  C   UNL     1       1.324   3.285  18.112  0.00  0.00    +0.000 A 
ATOM     20  C   UNL     1       2.425   2.705  17.499  0.00  0.00    +0.000 A 
ATOM     21  C   UNL     1       3.672   3.319  17.599  0.00  0.00    +0.000 A 
ATOM     22  C   UNL     1       3.839   4.521  18.319  0.00  0.00    +0.000 A 
BRANCH  22  23
ATOM     23  C   UNL     1       5.162   5.245  18.178  0.00  0.00    +0.000 C 
BRANCH  23  24
ATOM     24  N   UNL     1       5.730   5.157  16.847  0.00  0.00    +0.000 N 
ATOM     25  C   UNL     1       5.393   5.914  15.765  0.00  0.00    +0.000 A 
ATOM     26  N   UNL     1       6.204   5.646  14.768  0.00  0.00    +0.000 NA
ATOM     27  C   UNL     1       7.050   4.718  15.306  0.00  0.00    +0.000 A 
ATOM     28  N   UNL     1       6.816   4.400  16.582  0.00  0.00    +0.000 NA
ENDBRANCH  23  24
ENDBRANCH  22  23
ENDBRANCH  16  17
ENDBRANCH   7  16
TORSDOF 5
ENDMDL
MODEL 7
REMARK VINA RESULT:      -7.7      2.655      3.943
REMARK  Name = 
REMARK  5 active torsions:
REMARK  status: ('A' for Active; 'I' for Inactive)
REMARK    1  A    between atoms: C_2  and  C_4
REMARK    2  A    between atoms: N_10  and  C_11
REMARK    3  A    between atoms: C_11  and  C_12
REMARK    4  A    between atoms: C_17  and  C_18
REMARK    5  A    between atoms: C_18  and  N_19
REMARK                            x       y       z     vdW  Elec       q    Type
REMARK                         _______ _______ _______ _____ _____    ______ ____
ROOT
ATOM      1  C   UNL     1       0.622  11.003  21.675  0.00  0.00    +0.000 C 
ATOM      2  C   UNL     1       0.735  11.439  20.208  0.00  0.00    +0.000 C 
ATOM      3  C   UNL     1       0.287  10.351  19.234  0.00  0.00    +0.000 C 
ATOM      4  N   UNL     1       0.943   9.078  19.506  0.00  0.00    +0.000 N 
ATOM      5  C   UNL     1       1.808   8.571  18.550  0.00  0.00    +0.000 C 
ATOM      6  O   UNL     1       2.224   9.256  17.617  0.00  0.00    +0.000 OA
ATOM      7  N   UNL     1       2.143   7.253  18.678  0.00  0.00    +0.000 N 
ATOM      8  C   UNL     1       0.729   8.575  20.863  0.00  0.00    +0.000 C 
ATOM      9  C   UNL     1       1.220   9.603  21.891  0.00  0.00    +0.000 C 
ATOM     10  H   UNL     1       1.792   6.722  19.454  0.00  0.00    +0.000 HD
ENDROOT
BRANCH   1  12
ATOM     11  N   UNL     1      -1.607  12.004  21.565  0.00  0.00    +0.000 N 
ATOM     12  C   UNL     1      -0.811  11.090  22.195  0.00  0.00    +0.000 C 
ATOM     13  O   UNL     1      -1.251  10.425  23.124  0.00  0.00    +0.000 OA
ATOM     14  H   UNL     1      -2.530  12.150  21.956  0.00  0.00    +0.000 HD
ATOM     15  H   UNL     1      -1.231  12.727  20.966  0.00  0.00    +0.000 HD
ENDBRANCH   1  12
BRANCH   7  16
ATOM     16  C   UNL     1       3.128   6.602  17.822  0.00  0.00    +0.000 C 
BRANCH  16  17
ATOM     17  C   UNL     1       3.015   5.092  17.738  0.00  0.00    +0.000 A 
ATOM     18  C   UNL     1       1.761   4.499  17.980  0.00  0.00    +0.000 A 
ATOM     19  C   UNL     1       1.606   3.111  18.002  0.00  0.00    +0.000 A 
ATOM     20  C   UNL     1       2.709   2.288  17.829  0.00  0.00    +0.000 A 
ATOM     21  C   UNL     1       3.953   2.852  17.553  0.00  0.00    +0.000 A 
ATOM     22  C   UNL     1       4.116   4.249  17.450  0.00  0.00    +0.000 A 
BRANCH  22  23
ATOM     23  C   UNL     1       5.435   4.764  16.914  0.00  0.00    +0.000 C 
BRANCH  23  24
ATOM     24  N   UNL     1       6.331   5.246  17.947  0.00  0.00    +0.000 N 
ATOM     25  C   UNL     1       6.177   5.100  19.294  0.00  0.00    +0.000 A 
ATOM     26  N   UNL     1       7.246   5.549  19.911  0.00  0.00    +0.000 NA
ATOM     27  C   UNL     1       8.049   5.945  18.880  0.00  0.00    +0.000 A 
ATOM     28  N   UNL     1       7.544   5.762  17.656  0.00  0.00    +0.000 NA
ENDBRANCH  23  24
ENDBRANCH  22  23
ENDBRANCH  16  17
ENDBRANCH   7  16
TORSDOF 5
ENDMDL
MODEL 8
REMARK VINA RESULT:      -7.7      2.126      3.665
REMARK  Name = 
REMARK  5 active torsions:
REMARK  status: ('A' for Active; 'I' for Inactive)
REMARK    1  A    between atoms: C_2  and  C_4
REMARK    2  A    between atoms: N_10  and  C_11
REMARK    3  A    between atoms: C_11  and  C_12
REMARK    4  A    between atoms: C_17  and  C_18
REMARK    5  A    between atoms: C_18  and  N_19
REMARK                            x       y       z     vdW  Elec       q    Type
REMARK                         _______ _______ _______ _____ _____    ______ ____
ROOT
ATOM      1  C   UNL     1       0.791  12.023  19.464  0.00  0.00    +0.000 C 
ATOM      2  C   UNL     1       1.535  11.562  18.204  0.00  0.00    +0.000 C 
ATOM      3  C   UNL     1       1.157  10.143  17.783  0.00  0.00    +0.000 C 
ATOM      4  N   UNL     1       1.269   9.202  18.892  0.00  0.00    +0.000 N 
ATOM      5  C   UNL     1       2.224   8.202  18.807  0.00  0.00    +0.000 C 
ATOM      6  O   UNL     1       3.123   8.227  17.967  0.00  0.00    +0.000 OA
ATOM      7  N   UNL     1       2.087   7.162  19.682  0.00  0.00    +0.000 N 
ATOM      8  C   UNL     1       0.454   9.553  20.056  0.00  0.00    +0.000 C 
ATOM      9  C   UNL     1       0.833  10.950  20.564  0.00  0.00    +0.000 C 
ATOM     10  H   UNL     1       1.347   7.173  20.358  0.00  0.00    +0.000 HD
ENDROOT
BRANCH   1  12
ATOM     11  N   UNL     1      -0.832  13.020  17.930  0.00  0.00    +0.000 N 
ATOM     12  C   UNL     1      -0.639  12.464  19.162  0.00  0.00    +0.000 C 
ATOM     13  O   UNL     1      -1.573  12.369  19.949  0.00  0.00    +0.000 OA
ATOM     14  H   UNL     1      -1.749  13.409  17.744  0.00  0.00    +0.000 HD
ATOM     15  H   UNL     1      -0.064  13.331  17.351  0.00  0.00    +0.000 HD
ENDBRANCH   1  12
BRANCH   7  16
ATOM     16  C   UNL     1       3.071   6.091  19.794  0.00  0.00    +0.000 C 
BRANCH  16  17
ATOM     17  C   UNL     1       2.718   4.809  19.065  0.00  0.00    +0.000 A 
ATOM     18  C   UNL     1       1.680   4.009  19.580  0.00  0.00    +0.000 A 
ATOM     19  C   UNL     1       1.361   2.776  19.007  0.00  0.00    +0.000 A 
ATOM     20  C   UNL     1       2.102   2.297  17.937  0.00  0.00    +0.000 A 
ATOM     21  C   UNL     1       3.109   3.087  17.388  0.00  0.00    +0.000 A 
ATOM     22  C   UNL     1       3.397   4.369  17.903  0.00  0.00    +0.000 A 
BRANCH  22  23
ATOM     23  C   UNL     1       4.332   5.252  17.105  0.00  0.00    +0.000 C 
BRANCH  23  24
ATOM     24  N   UNL     1       5.734   4.955  17.323  0.00  0.00    +0.000 N 
ATOM     25  C   UNL     1       6.606   4.422  16.420  0.00  0.00    +0.000 A 
ATOM     26  N   UNL     1       7.817   4.416  16.926  0.00  0.00    +0.000 NA
ATOM     27  C   UNL     1       7.637   4.987  18.154  0.00  0.00    +0.000 A 
ATOM     28  N   UNL     1       6.384   5.354  18.438  0.00  0.00    +0.000 NA
ENDBRANCH  23  24
ENDBRANCH  22  23
ENDBRANCH  16  17
ENDBRANCH   7  16
TORSDOF 5
ENDMDL
MODEL 9
REMARK VINA RESULT:      -7.7      0.932      1.353
REMARK  Name = 
REMARK  5 active torsions:
REMARK  status: ('A' for Active; 'I' for Inactive)
REMARK    1  A    between atoms: C_2  and  C_4
REMARK    2  A    between atoms: N_10  and  C_11
REMARK    3  A    between atoms: C_11  and  C_12
REMARK    4  A    between atoms: C_17  and  C_18
REMARK    5  A    between atoms: C_18  and  N_19
REMARK                            x       y       z     vdW  Elec       q    Type
REMARK                         _______ _______ _______ _____ _____    ______ ____
ROOT
ATOM      1  C   UNL     1      -1.331  11.222  19.258  0.00  0.00    +0.000 C 
ATOM      2  C   UNL     1      -0.754  10.837  20.627  0.00  0.00    +0.000 C 
ATOM      3  C   UNL     1       0.748  10.563  20.578  0.00  0.00    +0.000 C 
ATOM      4  N   UNL     1       1.090   9.614  19.526  0.00  0.00    +0.000 N 
ATOM      5  C   UNL     1       1.606   8.383  19.896  0.00  0.00    +0.000 C 
ATOM      6  O   UNL     1       1.555   7.977  21.056  0.00  0.00    +0.000 OA
ATOM      7  N   UNL     1       2.214   7.661  18.909  0.00  0.00    +0.000 N 
ATOM      8  C   UNL     1       0.670  10.032  18.187  0.00  0.00    +0.000 C 
ATOM      9  C   UNL     1      -0.846  10.264  18.157  0.00  0.00    +0.000 C 
ATOM     10  H   UNL     1       2.235   8.018  17.972  0.00  0.00    +0.000 HD
ENDROOT
BRANCH   1  12
ATOM     11  N   UNL     1      -0.945  12.943  17.565  0.00  0.00    +0.000 N 
ATOM     12  C   UNL     1      -1.049  12.679  18.901  0.00  0.00    +0.000 C 
ATOM     13  O   UNL     1      -0.894  13.575  19.721  0.00  0.00    +0.000 OA
ATOM     14  H   UNL     1      -0.661  13.881  17.307  0.00  0.00    +0.000 HD
ATOM     15  H   UNL     1      -0.830  12.212  16.876  0.00  0.00    +0.000 HD
ENDBRANCH   1  12
BRANCH   7  16
ATOM     16  C   UNL     1       2.706   6.303  19.112  0.00  0.00    +0.000 C 
BRANCH  16  17
ATOM     17  C   UNL     1       3.634   5.783  18.032  0.00  0.00    +0.000 A 
ATOM     18  C   UNL     1       4.626   6.644  17.529  0.00  0.00    +0.000 A 
ATOM     19  C   UNL     1       5.458   6.257  16.476  0.00  0.00    +0.000 A 
ATOM     20  C   UNL     1       5.284   5.020  15.874  0.00  0.00    +0.000 A 
ATOM     21  C   UNL     1       4.332   4.136  16.379  0.00  0.00    +0.000 A 
ATOM     22  C   UNL     1       3.534   4.478  17.491  0.00  0.00    +0.000 A 
BRANCH  22  23
ATOM     23  C   UNL     1       2.702   3.381  18.121  0.00  0.00    +0.000 C 
BRANCH  23  24
ATOM     24  N   UNL     1       3.212   2.932  19.402  0.00  0.00    +0.000 N 
ATOM     25  C   UNL     1       2.535   2.904  20.585  0.00  0.00    +0.000 A 
ATOM     26  N   UNL     1       3.270   2.316  21.500  0.00  0.00    +0.000 NA
ATOM     27  C   UNL     1       4.399   1.974  20.811  0.00  0.00    +0.000 A 
ATOM     28  N   UNL     1       4.405   2.310  19.517  0.00  0.00    +0.000 NA
ENDBRANCH  23  24
ENDBRANCH  22  23
ENDBRANCH  16  17
ENDBRANCH   7  16
TORSDOF 5
ENDMDL
