MODEL 1
REMARK VINA RESULT:      -7.2      0.000      0.000
REMARK  Name = 
REMARK  5 active torsions:
REMARK  status: ('A' for Active; 'I' for Inactive)
REMARK    1  A    between atoms: C_4  and  C_5
REMARK    2  A    between atoms: C_5  and  N_6
REMARK    3  A    between atoms: C_11  and  O_12
REMARK    4  A    between atoms: O_12  and  C_13
REMARK    5  A    between atoms: C_13  and  C_14
REMARK                            x       y       z     vdW  Elec       q    Type
REMARK                         _______ _______ _______ _____ _____    ______ ____
ROOT
ATOM      1  N   UNL     1       6.769   6.341  16.891  0.00  0.00    +0.000 NA
ATOM      2  C   UNL     1       7.764   6.702  17.966  0.00  0.00    +0.000 C 
ATOM      3  C   UNL     1       7.748   5.773  19.241  0.00  0.00    +0.000 C 
ATOM      4  O   UNL     1       6.423   5.362  19.711  0.00  0.00    +0.000 OA
ATOM      5  C   UNL     1       5.673   4.899  18.580  0.00  0.00    +0.000 C 
ATOM      6  C   UNL     1       4.255   4.303  18.641  0.00  0.00    +0.000 C 
ATOM      7  C   UNL     1       3.309   5.287  17.941  0.00  0.00    +0.000 C 
ATOM      8  C   UNL     1       4.166   6.156  17.032  0.00  0.00    +0.000 C 
ATOM      9  C   UNL     1       5.538   6.123  17.674  0.00  0.00    +0.000 C 
ENDROOT
BRANCH   1  10
ATOM     10  C   UNL     1       7.325   5.162  16.172  0.00  0.00    +0.000 C 
BRANCH  10  14
ATOM     11  C   UNL     1       6.775   4.214  12.614  0.00  0.00    +0.000 A 
ATOM     12  C   UNL     1       5.729   3.665  13.321  0.00  0.00    +0.000 A 
ATOM     13  O   UNL     1       5.789   4.040  14.624  0.00  0.00    +0.000 OA
ATOM     14  C   UNL     1       6.889   4.849  14.776  0.00  0.00    +0.000 A 
ATOM     15  C   UNL     1       7.506   4.993  13.542  0.00  0.00    +0.000 A 
ENDBRANCH  10  14
ENDBRANCH   1  10
BRANCH   6  16
ATOM     16  O   UNL     1       3.796   3.846  19.906  0.00  0.00    +0.000 OA
BRANCH  16  17
ATOM     17  C   UNL     1       3.244   2.528  19.789  0.00  0.00    +0.000 C 
BRANCH  17  18
ATOM     18  C   UNL     1       1.850   2.504  20.315  0.00  0.00    +0.000 C 
ATOM     19  C   UNL     1       1.056   3.773  20.473  0.00  0.00    +0.000 C 
ATOM     20  C   UNL     1       0.701   2.801  19.381  0.00  0.00    +0.000 C 
ENDBRANCH  17  18
ENDBRANCH  16  17
ENDBRANCH   6  16
TORSDOF 5
ENDMDL
MODEL 2
REMARK VINA RESULT:      -7.1      1.105      1.266
REMARK  Name = 
REMARK  5 active torsions:
REMARK  status: ('A' for Active; 'I' for Inactive)
REMARK    1  A    between atoms: C_4  and  C_5
REMARK    2  A    between atoms: C_5  and  N_6
REMARK    3  A    between atoms: C_11  and  O_12
REMARK    4  A    between atoms: O_12  and  C_13
REMARK    5  A    between atoms: C_13  and  C_14
REMARK                            x       y       z     vdW  Elec       q    Type
REMARK                         _______ _______ _______ _____ _____    ______ ____
ROOT
ATOM      1  N   UNL     1       6.459   6.119  16.345  0.00  0.00    +0.000 NA
ATOM      2  C   UNL     1       7.264   6.979  17.287  0.00  0.00    +0.000 C 
ATOM      3  C   UNL     1       7.653   6.300  18.657  0.00  0.00    +0.000 C 
ATOM      4  O   UNL     1       6.610   5.478  19.276  0.00  0.00    +0.000 OA
ATOM      5  C   UNL     1       6.069   4.612  18.271  0.00  0.00    +0.000 C 
ATOM      6  C   UNL     1       5.001   3.530  18.514  0.00  0.00    +0.000 C 
ATOM      7  C   UNL     1       3.724   3.968  17.785  0.00  0.00    +0.000 C 
ATOM      8  C   UNL     1       4.144   4.966  16.717  0.00  0.00    +0.000 C 
ATOM      9  C   UNL     1       5.437   5.553  17.245  0.00  0.00    +0.000 C 
ENDROOT
BRANCH   1  10
ATOM     10  C   UNL     1       7.412   5.158  15.722  0.00  0.00    +0.000 C 
BRANCH  10  14
ATOM     11  C   UNL     1       6.177   3.794  12.486  0.00  0.00    +0.000 A 
ATOM     12  C   UNL     1       7.160   4.703  12.167  0.00  0.00    +0.000 A 
ATOM     13  O   UNL     1       7.743   5.187  13.293  0.00  0.00    +0.000 OA
ATOM     14  C   UNL     1       7.136   4.585  14.369  0.00  0.00    +0.000 A 
ATOM     15  C   UNL     1       6.177   3.701  13.898  0.00  0.00    +0.000 A 
ENDBRANCH  10  14
ENDBRANCH   1  10
BRANCH   6  16
ATOM     16  O   UNL     1       4.797   3.110  19.856  0.00  0.00    +0.000 OA
BRANCH  16  17
ATOM     17  C   UNL     1       3.576   2.365  19.965  0.00  0.00    +0.000 C 
BRANCH  17  18
ATOM     18  C   UNL     1       2.813   2.798  21.170  0.00  0.00    +0.000 C 
ATOM     19  C   UNL     1       2.070   4.107  21.192  0.00  0.00    +0.000 C 
ATOM     20  C   UNL     1       1.304   2.815  21.124  0.00  0.00    +0.000 C 
ENDBRANCH  17  18
ENDBRANCH  16  17
ENDBRANCH   6  16
TORSDOF 5
ENDMDL
MODEL 3
REMARK VINA RESULT:      -7.0      1.654      6.388
REMARK  Name = 
REMARK  5 active torsions:
REMARK  status: ('A' for Active; 'I' for Inactive)
REMARK    1  A    between atoms: C_4  and  C_5
REMARK    2  A    between atoms: C_5  and  N_6
REMARK    3  A    between atoms: C_11  and  O_12
REMARK    4  A    between atoms: O_12  and  C_13
REMARK    5  A    between atoms: C_13  and  C_14
REMARK                            x       y       z     vdW  Elec       q    Type
REMARK                         _______ _______ _______ _____ _____    ______ ____
ROOT
ATOM      1  N   UNL     1       5.007   4.519  19.422  0.00  0.00    +0.000 NA
ATOM      2  C   UNL     1       3.890   5.533  19.480  0.00  0.00    +0.000 C 
ATOM      3  C   UNL     1       3.221   5.880  18.094  0.00  0.00    +0.000 C 
ATOM      4  O   UNL     1       4.138   6.006  16.959  0.00  0.00    +0.000 OA
ATOM      5  C   UNL     1       5.020   4.876  16.970  0.00  0.00    +0.000 C 
ATOM      6  C   UNL     1       6.091   4.576  15.906  0.00  0.00    +0.000 C 
ATOM      7  C   UNL     1       7.463   4.729  16.574  0.00  0.00    +0.000 C 
ATOM      8  C   UNL     1       7.244   4.589  18.073  0.00  0.00    +0.000 C 
ATOM      9  C   UNL     1       5.802   5.005  18.278  0.00  0.00    +0.000 C 
ENDROOT
BRANCH   1  10
ATOM     10  C   UNL     1       4.365   3.183  19.274  0.00  0.00    +0.000 C 
BRANCH  10  14
ATOM     11  C   UNL     1       1.380   2.786  21.463  0.00  0.00    +0.000 A 
ATOM     12  C   UNL     1       0.902   2.862  20.175  0.00  0.00    +0.000 A 
ATOM     13  O   UNL     1       1.929   2.911  19.289  0.00  0.00    +0.000 OA
ATOM     14  C   UNL     1       3.100   2.864  20.005  0.00  0.00    +0.000 A 
ATOM     15  C   UNL     1       2.791   2.763  21.353  0.00  0.00    +0.000 A 
ENDBRANCH  10  14
ENDBRANCH   1  10
BRANCH   6  16
ATOM     16  O   UNL     1       5.968   5.242  14.656  0.00  0.00    +0.000 OA
BRANCH  16  17
ATOM     17  C   UNL     1       6.603   4.480  13.621  0.00  0.00    +0.000 C 
BRANCH  17  18
ATOM     18  C   UNL     1       5.693   3.403  13.140  0.00  0.00    +0.000 C 
ATOM     19  C   UNL     1       4.846   3.591  11.909  0.00  0.00    +0.000 C 
ATOM     20  C   UNL     1       6.029   2.663  11.867  0.00  0.00    +0.000 C 
ENDBRANCH  17  18
ENDBRANCH  16  17
ENDBRANCH   6  16
TORSDOF 5
ENDMDL
MODEL 4
REMARK VINA RESULT:      -6.9      1.203      1.652
REMARK  Name = 
REMARK  5 active torsions:
REMARK  status: ('A' for Active; 'I' for Inactive)
REMARK    1  A    between atoms: C_4  and  C_5
REMARK    2  A    between atoms: C_5  and  N_6
REMARK    3  A    between atoms: C_11  and  O_12
REMARK    4  A    between atoms: O_12  and  C_13
REMARK    5  A    between atoms: C_13  and  C_14
REMARK                            x       y       z     vdW  Elec       q    Type
REMARK                         _______ _______ _______ _____ _____    ______ ____
ROOT
ATOM      1  N   UNL     1       6.000   6.222  16.325  0.00  0.00    +0.000 NA
ATOM      2  C   UNL     1       7.292   6.032  17.081  0.00  0.00    +0.000 C 
ATOM      3  C   UNL     1       7.177   5.199  18.415  0.00  0.00    +0.000 C 
ATOM      4  O   UNL     1       5.993   5.470  19.234  0.00  0.00    +0.000 OA
ATOM      5  C   UNL     1       4.845   5.453  18.376  0.00  0.00    +0.000 C 
ATOM      6  C   UNL     1       3.387   5.617  18.843  0.00  0.00    +0.000 C 
ATOM      7  C   UNL     1       2.871   6.951  18.290  0.00  0.00    +0.000 C 
ATOM      8  C   UNL     1       3.761   7.316  17.112  0.00  0.00    +0.000 C 
ATOM      9  C   UNL     1       5.069   6.609  17.402  0.00  0.00    +0.000 C 
ENDROOT
BRANCH   1  10
ATOM     10  C   UNL     1       5.720   4.937  15.626  0.00  0.00    +0.000 C 
BRANCH  10  14
ATOM     11  C   UNL     1       6.955   4.071  12.222  0.00  0.00    +0.000 A 
ATOM     12  C   UNL     1       7.732   5.121  12.654  0.00  0.00    +0.000 A 
ATOM     13  O   UNL     1       7.420   5.448  13.934  0.00  0.00    +0.000 OA
ATOM     14  C   UNL     1       6.424   4.598  14.351  0.00  0.00    +0.000 A 
ATOM     15  C   UNL     1       6.131   3.720  13.318  0.00  0.00    +0.000 A 
ENDBRANCH  10  14
ENDBRANCH   1  10
BRANCH   6  16
ATOM     16  O   UNL     1       3.121   5.411  20.224  0.00  0.00    +0.000 OA
BRANCH  16  17
ATOM     17  C   UNL     1       1.754   5.021  20.415  0.00  0.00    +0.000 C 
BRANCH  17  18
ATOM     18  C   UNL     1       1.632   3.536  20.389  0.00  0.00    +0.000 C 
ATOM     19  C   UNL     1       2.708   2.656  20.969  0.00  0.00    +0.000 C 
ATOM     20  C   UNL     1       1.388   2.790  21.679  0.00  0.00    +0.000 C 
ENDBRANCH  17  18
ENDBRANCH  16  17
ENDBRANCH   6  16
TORSDOF 5
ENDMDL
MODEL 5
REMARK VINA RESULT:      -6.9      1.404      1.942
REMARK  Name = 
REMARK  5 active torsions:
REMARK  status: ('A' for Active; 'I' for Inactive)
REMARK    1  A    between atoms: C_4  and  C_5
REMARK    2  A    between atoms: C_5  and  N_6
REMARK    3  A    between atoms: C_11  and  O_12
REMARK    4  A    between atoms: O_12  and  C_13
REMARK    5  A    between atoms: C_13  and  C_14
REMARK                            x       y       z     vdW  Elec       q    Type
REMARK                         _______ _______ _______ _____ _____    ______ ____
ROOT
ATOM      1  N   UNL     1       4.952   5.013  16.117  0.00  0.00    +0.000 NA
ATOM      2  C   UNL     1       5.395   6.296  16.776  0.00  0.00    +0.000 C 
ATOM      3  C   UNL     1       5.854   6.160  18.279  0.00  0.00    +0.000 C 
ATOM      4  O   UNL     1       5.049   5.263  19.110  0.00  0.00    +0.000 OA
ATOM      5  C   UNL     1       4.863   4.036  18.391  0.00  0.00    +0.000 C 
ATOM      6  C   UNL     1       4.138   2.791  18.934  0.00  0.00    +0.000 C 
ATOM      7  C   UNL     1       2.852   2.612  18.119  0.00  0.00    +0.000 C 
ATOM      8  C   UNL     1       3.047   3.363  16.811  0.00  0.00    +0.000 C 
ATOM      9  C   UNL     1       4.069   4.431  17.146  0.00  0.00    +0.000 C 
ENDROOT
BRANCH   1  10
ATOM     10  C   UNL     1       6.188   4.253  15.784  0.00  0.00    +0.000 C 
BRANCH  10  14
ATOM     11  C   UNL     1       7.015   4.333  12.156  0.00  0.00    +0.000 A 
ATOM     12  C   UNL     1       7.865   5.231  12.760  0.00  0.00    +0.000 A 
ATOM     13  O   UNL     1       7.705   5.201  14.108  0.00  0.00    +0.000 OA
ATOM     14  C   UNL     1       6.737   4.269  14.393  0.00  0.00    +0.000 A 
ATOM     15  C   UNL     1       6.307   3.699  13.204  0.00  0.00    +0.000 A 
ENDBRANCH  10  14
ENDBRANCH   1  10
BRANCH   6  16
ATOM     16  O   UNL     1       3.959   2.707  20.342  0.00  0.00    +0.000 OA
BRANCH  16  17
ATOM     17  C   UNL     1       2.607   2.344  20.651  0.00  0.00    +0.000 C 
BRANCH  17  18
ATOM     18  C   UNL     1       1.914   3.471  21.337  0.00  0.00    +0.000 C 
ATOM     19  C   UNL     1       2.200   4.902  20.966  0.00  0.00    +0.000 C 
ATOM     20  C   UNL     1       0.887   4.279  20.580  0.00  0.00    +0.000 C 
ENDBRANCH  17  18
ENDBRANCH  16  17
ENDBRANCH   6  16
TORSDOF 5
ENDMDL
MODEL 6
REMARK VINA RESULT:      -6.7      1.020      1.366
REMARK  Name = 
REMARK  5 active torsions:
REMARK  status: ('A' for Active; 'I' for Inactive)
REMARK    1  A    between atoms: C_4  and  C_5
REMARK    2  A    between atoms: C_5  and  N_6
REMARK    3  A    between atoms: C_11  and  O_12
REMARK    4  A    between atoms: O_12  and  C_13
REMARK    5  A    between atoms: C_13  and  C_14
REMARK                            x       y       z     vdW  Elec       q    Type
REMARK                         _______ _______ _______ _____ _____    ______ ____
ROOT
ATOM      1  N   UNL     1       6.657   6.167  16.782  0.00  0.00    +0.000 NA
ATOM      2  C   UNL     1       7.757   6.241  17.813  0.00  0.00    +0.000 C 
ATOM      3  C   UNL     1       7.449   5.520  19.182  0.00  0.00    +0.000 C 
ATOM      4  O   UNL     1       6.085   5.680  19.691  0.00  0.00    +0.000 OA
ATOM      5  C   UNL     1       5.173   5.415  18.617  0.00  0.00    +0.000 C 
ATOM      6  C   UNL     1       3.639   5.398  18.740  0.00  0.00    +0.000 C 
ATOM      7  C   UNL     1       3.096   6.585  17.935  0.00  0.00    +0.000 C 
ATOM      8  C   UNL     1       4.177   6.976  16.938  0.00  0.00    +0.000 C 
ATOM      9  C   UNL     1       5.464   6.502  17.582  0.00  0.00    +0.000 C 
ENDROOT
BRANCH   1  10
ATOM     10  C   UNL     1       6.710   4.798  16.197  0.00  0.00    +0.000 C 
BRANCH  10  14
ATOM     11  C   UNL     1       6.856   4.316  12.509  0.00  0.00    +0.000 A 
ATOM     12  C   UNL     1       7.750   5.321  12.798  0.00  0.00    +0.000 A 
ATOM     13  O   UNL     1       7.841   5.504  14.139  0.00  0.00    +0.000 OA
ATOM     14  C   UNL     1       6.995   4.605  14.742  0.00  0.00    +0.000 A 
ATOM     15  C   UNL     1       6.388   3.840  13.757  0.00  0.00    +0.000 A 
ENDBRANCH  10  14
ENDBRANCH   1  10
BRANCH   6  16
ATOM     16  O   UNL     1       3.094   5.276  20.047  0.00  0.00    +0.000 OA
BRANCH  16  17
ATOM     17  C   UNL     1       1.816   4.629  19.996  0.00  0.00    +0.000 C 
BRANCH  17  18
ATOM     18  C   UNL     1       1.908   3.365  19.212  0.00  0.00    +0.000 C 
ATOM     19  C   UNL     1       1.521   2.043  19.819  0.00  0.00    +0.000 C 
ATOM     20  C   UNL     1       0.640   2.671  18.775  0.00  0.00    +0.000 C 
ENDBRANCH  17  18
ENDBRANCH  16  17
ENDBRANCH   6  16
TORSDOF 5
ENDMDL
MODEL 7
REMARK VINA RESULT:      -6.6      1.912      6.431
REMARK  Name = 
REMARK  5 active torsions:
REMARK  status: ('A' for Active; 'I' for Inactive)
REMARK    1  A    between atoms: C_4  and  C_5
REMARK    2  A    between atoms: C_5  and  N_6
REMARK    3  A    between atoms: C_11  and  O_12
REMARK    4  A    between atoms: O_12  and  C_13
REMARK    5  A    between atoms: C_13  and  C_14
REMARK                            x       y       z     vdW  Elec       q    Type
REMARK                         _______ _______ _______ _____ _____    ______ ____
ROOT
ATOM      1  N   UNL     1       2.955   5.344  18.232  0.00  0.00    +0.000 NA
ATOM      2  C   UNL     1       2.361   4.029  17.789  0.00  0.00    +0.000 C 
ATOM      3  C   UNL     1       3.407   2.906  17.422  0.00  0.00    +0.000 C 
ATOM      4  O   UNL     1       4.587   3.354  16.681  0.00  0.00    +0.000 OA
ATOM      5  C   UNL     1       5.111   4.517  17.336  0.00  0.00    +0.000 C 
ATOM      6  C   UNL     1       6.394   5.263  16.928  0.00  0.00    +0.000 C 
ATOM      7  C   UNL     1       5.981   6.644  16.405  0.00  0.00    +0.000 C 
ATOM      8  C   UNL     1       4.597   6.935  16.967  0.00  0.00    +0.000 C 
ATOM      9  C   UNL     1       4.003   5.563  17.218  0.00  0.00    +0.000 C 
ENDROOT
BRANCH   1  10
ATOM     10  C   UNL     1       3.410   5.156  19.638  0.00  0.00    +0.000 C 
BRANCH  10  14
ATOM     11  C   UNL     1       1.195   2.832  21.522  0.00  0.00    +0.000 A 
ATOM     12  C   UNL     1       2.447   2.263  21.538  0.00  0.00    +0.000 A 
ATOM     13  O   UNL     1       3.352   3.089  20.955  0.00  0.00    +0.000 OA
ATOM     14  C   UNL     1       2.685   4.221  20.552  0.00  0.00    +0.000 A 
ATOM     15  C   UNL     1       1.351   4.099  20.910  0.00  0.00    +0.000 A 
ENDBRANCH  10  14
ENDBRANCH   1  10
BRANCH   6  16
ATOM     16  O   UNL     1       7.311   4.568  16.094  0.00  0.00    +0.000 OA
BRANCH  16  17
ATOM     17  C   UNL     1       7.093   4.911  14.719  0.00  0.00    +0.000 C 
BRANCH  17  18
ATOM     18  C   UNL     1       6.466   3.769  13.995  0.00  0.00    +0.000 C 
ATOM     19  C   UNL     1       5.226   3.960  13.163  0.00  0.00    +0.000 C 
ATOM     20  C   UNL     1       6.547   3.713  12.489  0.00  0.00    +0.000 C 
ENDBRANCH  17  18
ENDBRANCH  16  17
ENDBRANCH   6  16
TORSDOF 5
ENDMDL
MODEL 8
REMARK VINA RESULT:      -6.6      1.134      1.274
REMARK  Name = 
REMARK  5 active torsions:
REMARK  status: ('A' for Active; 'I' for Inactive)
REMARK    1  A    between atoms: C_4  and  C_5
REMARK    2  A    between atoms: C_5  and  N_6
REMARK    3  A    between atoms: C_11  and  O_12
REMARK    4  A    between atoms: O_12  and  C_13
REMARK    5  A    between atoms: C_13  and  C_14
REMARK                            x       y       z     vdW  Elec       q    Type
REMARK                         _______ _______ _______ _____ _____    ______ ____
ROOT
ATOM      1  N   UNL     1       5.602   5.773  16.289  0.00  0.00    +0.000 NA
ATOM      2  C   UNL     1       6.345   6.810  17.095  0.00  0.00    +0.000 C 
ATOM      3  C   UNL     1       6.936   6.304  18.467  0.00  0.00    +0.000 C 
ATOM      4  O   UNL     1       6.079   5.396  19.232  0.00  0.00    +0.000 OA
ATOM      5  C   UNL     1       5.592   4.385  18.341  0.00  0.00    +0.000 C 
ATOM      6  C   UNL     1       4.717   3.187  18.752  0.00  0.00    +0.000 C 
ATOM      7  C   UNL     1       3.336   3.381  18.114  0.00  0.00    +0.000 C 
ATOM      8  C   UNL     1       3.518   4.340  16.946  0.00  0.00    +0.000 C 
ATOM      9  C   UNL     1       4.749   5.143  17.315  0.00  0.00    +0.000 C 
ENDROOT
BRANCH   1  10
ATOM     10  C   UNL     1       6.633   4.909  15.650  0.00  0.00    +0.000 C 
BRANCH  10  14
ATOM     11  C   UNL     1       7.055   4.123  12.036  0.00  0.00    +0.000 A 
ATOM     12  C   UNL     1       6.010   3.343  12.476  0.00  0.00    +0.000 A 
ATOM     13  O   UNL     1       5.714   3.633  13.769  0.00  0.00    +0.000 OA
ATOM     14  C   UNL     1       6.576   4.618  14.184  0.00  0.00    +0.000 A 
ATOM     15  C   UNL     1       7.404   4.957  13.124  0.00  0.00    +0.000 A 
ENDBRANCH  10  14
ENDBRANCH   1  10
BRANCH   6  16
ATOM     16  O   UNL     1       4.684   2.850  20.132  0.00  0.00    +0.000 OA
BRANCH  16  17
ATOM     17  C   UNL     1       3.538   2.038  20.421  0.00  0.00    +0.000 C 
BRANCH  17  18
ATOM     18  C   UNL     1       2.743   2.643  21.527  0.00  0.00    +0.000 C 
ATOM     19  C   UNL     1       2.097   3.994  21.373  0.00  0.00    +0.000 C 
ATOM     20  C   UNL     1       1.244   2.755  21.385  0.00  0.00    +0.000 C 
ENDBRANCH  17  18
ENDBRANCH  16  17
ENDBRANCH   6  16
TORSDOF 5
ENDMDL
MODEL 9
REMARK VINA RESULT:      -6.5      1.198      1.409
REMARK  Name = 
REMARK  5 active torsions:
REMARK  status: ('A' for Active; 'I' for Inactive)
REMARK    1  A    between atoms: C_4  and  C_5
REMARK    2  A    between atoms: C_5  and  N_6
REMARK    3  A    between atoms: C_11  and  O_12
REMARK    4  A    between atoms: O_12  and  C_13
REMARK    5  A    between atoms: C_13  and  C_14
REMARK                            x       y       z     vdW  Elec       q    Type
REMARK                         _______ _______ _______ _____ _____    ______ ____
ROOT
ATOM      1  N   UNL     1       5.995   6.089  16.101  0.00  0.00    +0.000 NA
ATOM      2  C   UNL     1       7.325   5.911  16.791  0.00  0.00    +0.000 C 
ATOM      3  C   UNL     1       7.269   5.181  18.188  0.00  0.00    +0.000 C 
ATOM      4  O   UNL     1       6.146   5.550  19.053  0.00  0.00    +0.000 OA
ATOM      5  C   UNL     1       4.946   5.510  18.269  0.00  0.00    +0.000 C 
ATOM      6  C   UNL     1       3.526   5.757  18.809  0.00  0.00    +0.000 C 
ATOM      7  C   UNL     1       3.016   7.064  18.189  0.00  0.00    +0.000 C 
ATOM      8  C   UNL     1       3.842   7.312  16.936  0.00  0.00    +0.000 C 
ATOM      9  C   UNL     1       5.144   6.585  17.200  0.00  0.00    +0.000 C 
ENDROOT
BRANCH   1  10
ATOM     10  C   UNL     1       5.635   4.767  15.517  0.00  0.00    +0.000 C 
BRANCH  10  14
ATOM     11  C   UNL     1       6.892   3.781  12.155  0.00  0.00    +0.000 A 
ATOM     12  C   UNL     1       5.588   3.346  12.217  0.00  0.00    +0.000 A 
ATOM     13  O   UNL     1       5.008   3.748  13.377  0.00  0.00    +0.000 OA
ATOM     14  C   UNL     1       5.945   4.459  14.087  0.00  0.00    +0.000 A 
ATOM     15  C   UNL     1       7.115   4.515  13.344  0.00  0.00    +0.000 A 
ENDBRANCH  10  14
ENDBRANCH   1  10
BRANCH   6  16
ATOM     16  O   UNL     1       3.340   5.660  20.214  0.00  0.00    +0.000 OA
BRANCH  16  17
ATOM     17  C   UNL     1       2.049   5.110  20.509  0.00  0.00    +0.000 C 
BRANCH  17  18
ATOM     18  C   UNL     1       2.076   3.626  20.371  0.00  0.00    +0.000 C 
ATOM     19  C   UNL     1       1.282   2.744  21.297  0.00  0.00    +0.000 C 
ATOM     20  C   UNL     1       0.848   2.907  19.867  0.00  0.00    +0.000 C 
ENDBRANCH  17  18
ENDBRANCH  16  17
ENDBRANCH   6  16
TORSDOF 5
ENDMDL
