MODEL 1
REMARK VINA RESULT:      -8.9      0.000      0.000
REMARK  Name = 
REMARK  7 active torsions:
REMARK  status: ('A' for Active; 'I' for Inactive)
REMARK    1  A    between atoms: C_2  and  C_3
REMARK    2  A    between atoms: N_13  and  C_14
REMARK    3  A    between atoms: C_14  and  C_15
REMARK    4  A    between atoms: C_19  and  C_20
REMARK    5  A    between atoms: C_25  and  C_26
REMARK    6  A    between atoms: C_26  and  C_27
REMARK    7  A    between atoms: C_27  and  C_28
REMARK                            x       y       z     vdW  Elec       q    Type
REMARK                         _______ _______ _______ _____ _____    ______ ____
ROOT
ATOM      1  O   UNL     1      -0.468   9.573  22.397  0.00  0.00    +0.000 OA
ATOM      2  C   UNL     1       0.085   9.894  21.356  0.00  0.00    +0.000 C 
ATOM      3  N   UNL     1       1.048   9.084  20.723  0.00  0.00    +0.000 N 
ATOM      4  C   UNL     1       1.697   9.401  19.462  0.00  0.00    +0.000 C 
ATOM      5  C   UNL     1       2.018   8.282  18.495  0.00  0.00    +0.000 C 
ATOM      6  O   UNL     1       2.291   8.560  17.326  0.00  0.00    +0.000 OA
ATOM      7  N   UNL     1       2.126   7.008  19.031  0.00  0.00    +0.000 N 
ATOM      8  C   UNL     1       1.380   6.687  20.280  0.00  0.00    +0.000 C 
ATOM      9  C   UNL     1       1.488   7.832  21.325  0.00  0.00    +0.000 C 
ENDROOT
BRANCH   2  10
ATOM     10  C   UNL     1      -0.339  11.153  20.670  0.00  0.00    +0.000 A 
ATOM     11  C   UNL     1       0.118  12.416  21.065  0.00  0.00    +0.000 A 
ATOM     12  C   UNL     1      -0.015  13.522  20.226  0.00  0.00    +0.000 A 
ATOM     13  C   UNL     1      -0.758  13.405  19.058  0.00  0.00    +0.000 A 
ATOM     14  C   UNL     1      -1.355  12.184  18.723  0.00  0.00    +0.000 A 
ATOM     15  C   UNL     1      -1.130  11.053  19.521  0.00  0.00    +0.000 A 
ENDBRANCH   2  10
BRANCH   7  16
ATOM     16  C   UNL     1       2.468   5.955  18.078  0.00  0.00    +0.000 C 
BRANCH  16  17
ATOM     17  C   UNL     1       3.952   5.708  17.924  0.00  0.00    +0.000 A 
ATOM     18  C   UNL     1       4.747   5.693  19.081  0.00  0.00    +0.000 A 
ATOM     19  C   UNL     1       6.103   5.381  19.014  0.00  0.00    +0.000 A 
ATOM     20  C   UNL     1       6.685   5.056  17.791  0.00  0.00    +0.000 A 
ATOM     21  C   UNL     1       5.914   5.040  16.620  0.00  0.00    +0.000 A 
ATOM     22  C   UNL     1       4.549   5.379  16.696  0.00  0.00    +0.000 A 
BRANCH  21  23
ATOM     23  C   UNL     1       6.521   4.633  15.299  0.00  0.00    +0.000 C 
ATOM     24  F   UNL     1       6.542   3.284  15.100  0.00  0.00    +0.000 F 
ATOM     25  F   UNL     1       5.849   5.153  14.235  0.00  0.00    +0.000 F 
ATOM     26  F   UNL     1       7.811   5.047  15.163  0.00  0.00    +0.000 F 
ENDBRANCH  21  23
ENDBRANCH  16  17
ENDBRANCH   7  16
BRANCH   8  27
ATOM     27  C   UNL     1       1.790   5.341  20.883  0.00  0.00    +0.000 C 
BRANCH  27  28
ATOM     28  C   UNL     1       0.934   4.161  20.416  0.00  0.00    +0.000 C 
BRANCH  28  29
ATOM     29  C   UNL     1       1.812   3.201  19.669  0.00  0.00    +0.000 A 
ATOM     30  C   UNL     1       3.068   2.858  20.193  0.00  0.00    +0.000 A 
ATOM     31  C   UNL     1       3.940   2.069  19.447  0.00  0.00    +0.000 A 
ATOM     32  C   UNL     1       3.570   1.619  18.180  0.00  0.00    +0.000 A 
ATOM     33  C   UNL     1       2.315   1.951  17.660  0.00  0.00    +0.000 A 
ATOM     34  C   UNL     1       1.444   2.737  18.402  0.00  0.00    +0.000 A 
ENDBRANCH  28  29
ENDBRANCH  27  28
ENDBRANCH   8  27
TORSDOF 7
ENDMDL
MODEL 2
REMARK VINA RESULT:      -8.8      0.349      1.119
REMARK  Name = 
REMARK  7 active torsions:
REMARK  status: ('A' for Active; 'I' for Inactive)
REMARK    1  A    between atoms: C_2  and  C_3
REMARK    2  A    between atoms: N_13  and  C_14
REMARK    3  A    between atoms: C_14  and  C_15
REMARK    4  A    between atoms: C_19  and  C_20
REMARK    5  A    between atoms: C_25  and  C_26
REMARK    6  A    between atoms: C_26  and  C_27
REMARK    7  A    between atoms: C_27  and  C_28
REMARK                            x       y       z     vdW  Elec       q    Type
REMARK                         _______ _______ _______ _____ _____    ______ ____
ROOT
ATOM      1  O   UNL     1      -0.401   9.726  22.485  0.00  0.00    +0.000 OA
ATOM      2  C   UNL     1       0.126  10.055  21.433  0.00  0.00    +0.000 C 
ATOM      3  N   UNL     1       1.070   9.249  20.768  0.00  0.00    +0.000 N 
ATOM      4  C   UNL     1       1.687   9.576  19.493  0.00  0.00    +0.000 C 
ATOM      5  C   UNL     1       1.978   8.466  18.507  0.00  0.00    +0.000 C 
ATOM      6  O   UNL     1       2.221   8.755  17.334  0.00  0.00    +0.000 OA
ATOM      7  N   UNL     1       2.095   7.186  19.027  0.00  0.00    +0.000 N 
ATOM      8  C   UNL     1       1.381   6.855  20.292  0.00  0.00    +0.000 C 
ATOM      9  C   UNL     1       1.520   7.989  21.345  0.00  0.00    +0.000 C 
ENDROOT
BRANCH   2  10
ATOM     10  C   UNL     1      -0.311  11.323  20.771  0.00  0.00    +0.000 A 
ATOM     11  C   UNL     1      -1.368  11.367  19.855  0.00  0.00    +0.000 A 
ATOM     12  C   UNL     1      -1.970  12.578  19.510  0.00  0.00    +0.000 A 
ATOM     13  C   UNL     1      -1.404  13.768  19.952  0.00  0.00    +0.000 A 
ATOM     14  C   UNL     1      -0.251  13.748  20.744  0.00  0.00    +0.000 A 
ATOM     15  C   UNL     1       0.285  12.524  21.168  0.00  0.00    +0.000 A 
ENDBRANCH   2  10
BRANCH   7  16
ATOM     16  C   UNL     1       2.409   6.141  18.056  0.00  0.00    +0.000 C 
BRANCH  16  17
ATOM     17  C   UNL     1       3.882   5.828  17.927  0.00  0.00    +0.000 A 
ATOM     18  C   UNL     1       4.660   5.798  19.095  0.00  0.00    +0.000 A 
ATOM     19  C   UNL     1       6.002   5.427  19.052  0.00  0.00    +0.000 A 
ATOM     20  C   UNL     1       6.585   5.055  17.843  0.00  0.00    +0.000 A 
ATOM     21  C   UNL     1       5.831   5.053  16.662  0.00  0.00    +0.000 A 
ATOM     22  C   UNL     1       4.481   5.452  16.713  0.00  0.00    +0.000 A 
BRANCH  21  23
ATOM     23  C   UNL     1       6.437   4.597  15.357  0.00  0.00    +0.000 C 
ATOM     24  F   UNL     1       7.626   5.198  15.068  0.00  0.00    +0.000 F 
ATOM     25  F   UNL     1       6.686   3.258  15.338  0.00  0.00    +0.000 F 
ATOM     26  F   UNL     1       5.629   4.842  14.288  0.00  0.00    +0.000 F 
ENDBRANCH  21  23
ENDBRANCH  16  17
ENDBRANCH   7  16
BRANCH   8  27
ATOM     27  C   UNL     1       1.802   5.502  20.872  0.00  0.00    +0.000 C 
BRANCH  27  28
ATOM     28  C   UNL     1       0.939   4.327  20.404  0.00  0.00    +0.000 C 
BRANCH  28  29
ATOM     29  C   UNL     1       1.823   3.327  19.720  0.00  0.00    +0.000 A 
ATOM     30  C   UNL     1       3.051   2.975  20.302  0.00  0.00    +0.000 A 
ATOM     31  C   UNL     1       3.933   2.147  19.614  0.00  0.00    +0.000 A 
ATOM     32  C   UNL     1       3.603   1.666  18.348  0.00  0.00    +0.000 A 
ATOM     33  C   UNL     1       2.376   2.007  17.770  0.00  0.00    +0.000 A 
ATOM     34  C   UNL     1       1.494   2.832  18.454  0.00  0.00    +0.000 A 
ENDBRANCH  28  29
ENDBRANCH  27  28
ENDBRANCH   8  27
TORSDOF 7
ENDMDL
MODEL 3
REMARK VINA RESULT:      -8.3      1.472      2.015
REMARK  Name = 
REMARK  7 active torsions:
REMARK  status: ('A' for Active; 'I' for Inactive)
REMARK    1  A    between atoms: C_2  and  C_3
REMARK    2  A    between atoms: N_13  and  C_14
REMARK    3  A    between atoms: C_14  and  C_15
REMARK    4  A    between atoms: C_19  and  C_20
REMARK    5  A    between atoms: C_25  and  C_26
REMARK    6  A    between atoms: C_26  and  C_27
REMARK    7  A    between atoms: C_27  and  C_28
REMARK                            x       y       z     vdW  Elec       q    Type
REMARK                         _______ _______ _______ _____ _____    ______ ____
ROOT
ATOM      1  O   UNL     1      -0.399   9.472  22.356  0.00  0.00    +0.000 OA
ATOM      2  C   UNL     1       0.102   9.876  21.317  0.00  0.00    +0.000 C 
ATOM      3  N   UNL     1       1.098   9.162  20.622  0.00  0.00    +0.000 N 
ATOM      4  C   UNL     1       1.688   9.579  19.360  0.00  0.00    +0.000 C 
ATOM      5  C   UNL     1       2.054   8.529  18.334  0.00  0.00    +0.000 C 
ATOM      6  O   UNL     1       2.273   8.878  17.173  0.00  0.00    +0.000 OA
ATOM      7  N   UNL     1       2.261   7.243  18.806  0.00  0.00    +0.000 N 
ATOM      8  C   UNL     1       1.574   6.816  20.058  0.00  0.00    +0.000 C 
ATOM      9  C   UNL     1       1.636   7.916  21.152  0.00  0.00    +0.000 C 
ENDROOT
BRANCH   2  10
ATOM     10  C   UNL     1      -0.424  11.134  20.702  0.00  0.00    +0.000 A 
ATOM     11  C   UNL     1      -1.362  11.129  19.663  0.00  0.00    +0.000 A 
ATOM     12  C   UNL     1      -2.079  12.280  19.337  0.00  0.00    +0.000 A 
ATOM     13  C   UNL     1      -1.738  13.486  19.937  0.00  0.00    +0.000 A 
ATOM     14  C   UNL     1      -0.694  13.539  20.868  0.00  0.00    +0.000 A 
ATOM     15  C   UNL     1      -0.049  12.358  21.263  0.00  0.00    +0.000 A 
ENDBRANCH   2  10
BRANCH   7  16
ATOM     16  C   UNL     1       2.644   6.259  17.796  0.00  0.00    +0.000 C 
BRANCH  16  17
ATOM     17  C   UNL     1       4.123   5.947  17.756  0.00  0.00    +0.000 A 
ATOM     18  C   UNL     1       4.516   4.626  17.494  0.00  0.00    +0.000 A 
ATOM     19  C   UNL     1       5.862   4.294  17.354  0.00  0.00    +0.000 A 
ATOM     20  C   UNL     1       6.838   5.282  17.452  0.00  0.00    +0.000 A 
ATOM     21  C   UNL     1       6.478   6.616  17.691  0.00  0.00    +0.000 A 
ATOM     22  C   UNL     1       5.116   6.936  17.853  0.00  0.00    +0.000 A 
BRANCH  21  23
ATOM     23  C   UNL     1       7.523   7.704  17.741  0.00  0.00    +0.000 C 
ATOM     24  F   UNL     1       8.394   7.576  18.782  0.00  0.00    +0.000 F 
ATOM     25  F   UNL     1       8.293   7.738  16.618  0.00  0.00    +0.000 F 
ATOM     26  F   UNL     1       6.982   8.947  17.861  0.00  0.00    +0.000 F 
ENDBRANCH  21  23
ENDBRANCH  16  17
ENDBRANCH   7  16
BRANCH   8  27
ATOM     27  C   UNL     1       2.089   5.474  20.586  0.00  0.00    +0.000 C 
BRANCH  27  28
ATOM     28  C   UNL     1       1.159   4.292  20.300  0.00  0.00    +0.000 C 
BRANCH  28  29
ATOM     29  C   UNL     1       1.971   3.176  19.714  0.00  0.00    +0.000 A 
ATOM     30  C   UNL     1       3.154   2.770  20.352  0.00  0.00    +0.000 A 
ATOM     31  C   UNL     1       3.979   1.824  19.748  0.00  0.00    +0.000 A 
ATOM     32  C   UNL     1       3.635   1.279  18.512  0.00  0.00    +0.000 A 
ATOM     33  C   UNL     1       2.452   1.674  17.880  0.00  0.00    +0.000 A 
ATOM     34  C   UNL     1       1.628   2.616  18.480  0.00  0.00    +0.000 A 
ENDBRANCH  28  29
ENDBRANCH  27  28
ENDBRANCH   8  27
TORSDOF 7
ENDMDL
MODEL 4
REMARK VINA RESULT:      -8.2      0.415      1.343
REMARK  Name = 
REMARK  7 active torsions:
REMARK  status: ('A' for Active; 'I' for Inactive)
REMARK    1  A    between atoms: C_2  and  C_3
REMARK    2  A    between atoms: N_13  and  C_14
REMARK    3  A    between atoms: C_14  and  C_15
REMARK    4  A    between atoms: C_19  and  C_20
REMARK    5  A    between atoms: C_25  and  C_26
REMARK    6  A    between atoms: C_26  and  C_27
REMARK    7  A    between atoms: C_27  and  C_28
REMARK                            x       y       z     vdW  Elec       q    Type
REMARK                         _______ _______ _______ _____ _____    ______ ____
ROOT
ATOM      1  O   UNL     1      -0.352   9.745  22.252  0.00  0.00    +0.000 OA
ATOM      2  C   UNL     1       0.195  10.036  21.199  0.00  0.00    +0.000 C 
ATOM      3  N   UNL     1       1.156   9.210  20.584  0.00  0.00    +0.000 N 
ATOM      4  C   UNL     1       1.798   9.492  19.310  0.00  0.00    +0.000 C 
ATOM      5  C   UNL     1       2.116   8.346  18.375  0.00  0.00    +0.000 C 
ATOM      6  O   UNL     1       2.381   8.591  17.197  0.00  0.00    +0.000 OA
ATOM      7  N   UNL     1       2.229   7.088  18.947  0.00  0.00    +0.000 N 
ATOM      8  C   UNL     1       1.491   6.802  20.209  0.00  0.00    +0.000 C 
ATOM      9  C   UNL     1       1.602   7.977  21.219  0.00  0.00    +0.000 C 
ENDROOT
BRANCH   2  10
ATOM     10  C   UNL     1      -0.235  11.274  20.479  0.00  0.00    +0.000 A 
ATOM     11  C   UNL     1      -1.570  11.521  20.137  0.00  0.00    +0.000 A 
ATOM     12  C   UNL     1      -1.995  12.800  19.777  0.00  0.00    +0.000 A 
ATOM     13  C   UNL     1      -1.051  13.803  19.593  0.00  0.00    +0.000 A 
ATOM     14  C   UNL     1       0.310  13.533  19.780  0.00  0.00    +0.000 A 
ATOM     15  C   UNL     1       0.715  12.272  20.240  0.00  0.00    +0.000 A 
ENDBRANCH   2  10
BRANCH   7  16
ATOM     16  C   UNL     1       2.568   6.009  18.023  0.00  0.00    +0.000 C 
BRANCH  16  17
ATOM     17  C   UNL     1       4.050   5.736  17.896  0.00  0.00    +0.000 A 
ATOM     18  C   UNL     1       4.822   5.705  19.067  0.00  0.00    +0.000 A 
ATOM     19  C   UNL     1       6.174   5.370  19.025  0.00  0.00    +0.000 A 
ATOM     20  C   UNL     1       6.772   5.035  17.812  0.00  0.00    +0.000 A 
ATOM     21  C   UNL     1       6.023   5.033  16.627  0.00  0.00    +0.000 A 
ATOM     22  C   UNL     1       4.663   5.396  16.679  0.00  0.00    +0.000 A 
BRANCH  21  23
ATOM     23  C   UNL     1       6.647   4.617  15.317  0.00  0.00    +0.000 C 
ATOM     24  F   UNL     1       6.233   5.362  14.253  0.00  0.00    +0.000 F 
ATOM     25  F   UNL     1       8.005   4.717  15.332  0.00  0.00    +0.000 F 
ATOM     26  F   UNL     1       6.372   3.323  14.992  0.00  0.00    +0.000 F 
ENDBRANCH  21  23
ENDBRANCH  16  17
ENDBRANCH   7  16
BRANCH   8  27
ATOM     27  C   UNL     1       1.906   5.475  20.849  0.00  0.00    +0.000 C 
BRANCH  27  28
ATOM     28  C   UNL     1       1.104   4.267  20.358  0.00  0.00    +0.000 C 
BRANCH  28  29
ATOM     29  C   UNL     1       2.030   3.347  19.618  0.00  0.00    +0.000 A 
ATOM     30  C   UNL     1       1.646   2.834  18.370  0.00  0.00    +0.000 A 
ATOM     31  C   UNL     1       2.440   1.882  17.736  0.00  0.00    +0.000 A 
ATOM     32  C   UNL     1       3.616   1.437  18.337  0.00  0.00    +0.000 A 
ATOM     33  C   UNL     1       4.007   1.954  19.576  0.00  0.00    +0.000 A 
ATOM     34  C   UNL     1       3.216   2.903  20.209  0.00  0.00    +0.000 A 
ENDBRANCH  28  29
ENDBRANCH  27  28
ENDBRANCH   8  27
TORSDOF 7
ENDMDL
MODEL 5
REMARK VINA RESULT:      -8.1      1.569      2.132
REMARK  Name = 
REMARK  7 active torsions:
REMARK  status: ('A' for Active; 'I' for Inactive)
REMARK    1  A    between atoms: C_2  and  C_3
REMARK    2  A    between atoms: N_13  and  C_14
REMARK    3  A    between atoms: C_14  and  C_15
REMARK    4  A    between atoms: C_19  and  C_20
REMARK    5  A    between atoms: C_25  and  C_26
REMARK    6  A    between atoms: C_26  and  C_27
REMARK    7  A    between atoms: C_27  and  C_28
REMARK                            x       y       z     vdW  Elec       q    Type
REMARK                         _______ _______ _______ _____ _____    ______ ____
ROOT
ATOM      1  O   UNL     1      -0.520   9.554  21.834  0.00  0.00    +0.000 OA
ATOM      2  C   UNL     1       0.064   9.885  20.814  0.00  0.00    +0.000 C 
ATOM      3  N   UNL     1       1.143   9.153  20.281  0.00  0.00    +0.000 N 
ATOM      4  C   UNL     1       1.837   9.480  19.046  0.00  0.00    +0.000 C 
ATOM      5  C   UNL     1       2.331   8.359  18.157  0.00  0.00    +0.000 C 
ATOM      6  O   UNL     1       2.649   8.614  16.994  0.00  0.00    +0.000 OA
ATOM      7  N   UNL     1       2.531   7.128  18.761  0.00  0.00    +0.000 N 
ATOM      8  C   UNL     1       1.742   6.786  19.977  0.00  0.00    +0.000 C 
ATOM      9  C   UNL     1       1.666   7.979  20.969  0.00  0.00    +0.000 C 
ENDROOT
BRANCH   2  10
ATOM     10  C   UNL     1      -0.439  11.063  20.041  0.00  0.00    +0.000 A 
ATOM     11  C   UNL     1       0.106  12.345  20.185  0.00  0.00    +0.000 A 
ATOM     12  C   UNL     1      -0.139  13.339  19.237  0.00  0.00    +0.000 A 
ATOM     13  C   UNL     1      -1.067  13.105  18.230  0.00  0.00    +0.000 A 
ATOM     14  C   UNL     1      -1.739  11.879  18.163  0.00  0.00    +0.000 A 
ATOM     15  C   UNL     1      -1.411  10.852  19.059  0.00  0.00    +0.000 A 
ENDBRANCH   2  10
BRANCH   7  16
ATOM     16  C   UNL     1       3.038   6.076  17.884  0.00  0.00    +0.000 C 
BRANCH  16  17
ATOM     17  C   UNL     1       4.538   5.894  17.927  0.00  0.00    +0.000 A 
ATOM     18  C   UNL     1       5.052   4.590  17.869  0.00  0.00    +0.000 A 
ATOM     19  C   UNL     1       6.425   4.362  17.813  0.00  0.00    +0.000 A 
ATOM     20  C   UNL     1       7.310   5.438  17.790  0.00  0.00    +0.000 A 
ATOM     21  C   UNL     1       6.829   6.754  17.824  0.00  0.00    +0.000 A 
ATOM     22  C   UNL     1       5.440   6.971  17.904  0.00  0.00    +0.000 A 
BRANCH  21  23
ATOM     23  C   UNL     1       7.776   7.927  17.742  0.00  0.00    +0.000 C 
ATOM     24  F   UNL     1       7.151   9.138  17.787  0.00  0.00    +0.000 F 
ATOM     25  F   UNL     1       8.679   7.940  18.762  0.00  0.00    +0.000 F 
ATOM     26  F   UNL     1       8.510   7.930  16.595  0.00  0.00    +0.000 F 
ENDBRANCH  21  23
ENDBRANCH  16  17
ENDBRANCH   7  16
BRANCH   8  27
ATOM     27  C   UNL     1       2.245   5.516  20.670  0.00  0.00    +0.000 C 
BRANCH  27  28
ATOM     28  C   UNL     1       1.387   4.277  20.402  0.00  0.00    +0.000 C 
BRANCH  28  29
ATOM     29  C   UNL     1       2.206   3.287  19.629  0.00  0.00    +0.000 A 
ATOM     30  C   UNL     1       1.806   2.915  18.336  0.00  0.00    +0.000 A 
ATOM     31  C   UNL     1       2.487   1.905  17.663  0.00  0.00    +0.000 A 
ATOM     32  C   UNL     1       3.566   1.261  18.267  0.00  0.00    +0.000 A 
ATOM     33  C   UNL     1       3.973   1.637  19.551  0.00  0.00    +0.000 A 
ATOM     34  C   UNL     1       3.296   2.644  20.224  0.00  0.00    +0.000 A 
ENDBRANCH  28  29
ENDBRANCH  27  28
ENDBRANCH   8  27
TORSDOF 7
ENDMDL
MODEL 6
REMARK VINA RESULT:      -8.0      1.475      1.904
REMARK  Name = 
REMARK  7 active torsions:
REMARK  status: ('A' for Active; 'I' for Inactive)
REMARK    1  A    between atoms: C_2  and  C_3
REMARK    2  A    between atoms: N_13  and  C_14
REMARK    3  A    between atoms: C_14  and  C_15
REMARK    4  A    between atoms: C_19  and  C_20
REMARK    5  A    between atoms: C_25  and  C_26
REMARK    6  A    between atoms: C_26  and  C_27
REMARK    7  A    between atoms: C_27  and  C_28
REMARK                            x       y       z     vdW  Elec       q    Type
REMARK                         _______ _______ _______ _____ _____    ______ ____
ROOT
ATOM      1  O   UNL     1       0.304   9.719  22.417  0.00  0.00    +0.000 OA
ATOM      2  C   UNL     1       0.719   9.940  21.289  0.00  0.00    +0.000 C 
ATOM      3  N   UNL     1       1.534   9.033  20.585  0.00  0.00    +0.000 N 
ATOM      4  C   UNL     1       2.012   9.231  19.226  0.00  0.00    +0.000 C 
ATOM      5  C   UNL     1       2.128   8.037  18.304  0.00  0.00    +0.000 C 
ATOM      6  O   UNL     1       2.245   8.226  17.092  0.00  0.00    +0.000 OA
ATOM      7  N   UNL     1       2.241   6.794  18.905  0.00  0.00    +0.000 N 
ATOM      8  C   UNL     1       1.666   6.597  20.266  0.00  0.00    +0.000 C 
ATOM      9  C   UNL     1       1.986   7.793  21.204  0.00  0.00    +0.000 C 
ENDROOT
BRANCH   2  10
ATOM     10  C   UNL     1       0.271  11.181  20.584  0.00  0.00    +0.000 A 
ATOM     11  C   UNL     1       0.987  12.381  20.646  0.00  0.00    +0.000 A 
ATOM     12  C   UNL     1       0.747  13.409  19.733  0.00  0.00    +0.000 A 
ATOM     13  C   UNL     1      -0.329  13.305  18.860  0.00  0.00    +0.000 A 
ATOM     14  C   UNL     1      -1.154  12.175  18.890  0.00  0.00    +0.000 A 
ATOM     15  C   UNL     1      -0.842  11.104  19.740  0.00  0.00    +0.000 A 
ENDBRANCH   2  10
BRANCH   7  16
ATOM     16  C   UNL     1       2.384   5.665  17.989  0.00  0.00    +0.000 C 
BRANCH  16  17
ATOM     17  C   UNL     1       3.814   5.266  17.706  0.00  0.00    +0.000 A 
ATOM     18  C   UNL     1       4.085   4.558  16.526  0.00  0.00    +0.000 A 
ATOM     19  C   UNL     1       5.394   4.241  16.165  0.00  0.00    +0.000 A 
ATOM     20  C   UNL     1       6.457   4.648  16.967  0.00  0.00    +0.000 A 
ATOM     21  C   UNL     1       6.222   5.376  18.142  0.00  0.00    +0.000 A 
ATOM     22  C   UNL     1       4.894   5.671  18.508  0.00  0.00    +0.000 A 
BRANCH  21  23
ATOM     23  C   UNL     1       7.370   5.872  18.988  0.00  0.00    +0.000 C 
ATOM     24  F   UNL     1       8.497   5.114  18.877  0.00  0.00    +0.000 F 
ATOM     25  F   UNL     1       7.744   7.141  18.665  0.00  0.00    +0.000 F 
ATOM     26  F   UNL     1       7.069   5.899  20.316  0.00  0.00    +0.000 F 
ENDBRANCH  21  23
ENDBRANCH  16  17
ENDBRANCH   7  16
BRANCH   8  27
ATOM     27  C   UNL     1       2.083   5.266  20.897  0.00  0.00    +0.000 C 
BRANCH  27  28
ATOM     28  C   UNL     1       1.181   4.087  20.521  0.00  0.00    +0.000 C 
BRANCH  28  29
ATOM     29  C   UNL     1       2.010   3.061  19.807  0.00  0.00    +0.000 A 
ATOM     30  C   UNL     1       3.289   2.744  20.291  0.00  0.00    +0.000 A 
ATOM     31  C   UNL     1       4.114   1.889  19.564  0.00  0.00    +0.000 A 
ATOM     32  C   UNL     1       3.674   1.347  18.358  0.00  0.00    +0.000 A 
ATOM     33  C   UNL     1       2.397   1.653  17.879  0.00  0.00    +0.000 A 
ATOM     34  C   UNL     1       1.573   2.504  18.602  0.00  0.00    +0.000 A 
ENDBRANCH  28  29
ENDBRANCH  27  28
ENDBRANCH   8  27
TORSDOF 7
ENDMDL
MODEL 7
REMARK VINA RESULT:      -7.7      1.508      2.046
REMARK  Name = 
REMARK  7 active torsions:
REMARK  status: ('A' for Active; 'I' for Inactive)
REMARK    1  A    between atoms: C_2  and  C_3
REMARK    2  A    between atoms: N_13  and  C_14
REMARK    3  A    between atoms: C_14  and  C_15
REMARK    4  A    between atoms: C_19  and  C_20
REMARK    5  A    between atoms: C_25  and  C_26
REMARK    6  A    between atoms: C_26  and  C_27
REMARK    7  A    between atoms: C_27  and  C_28
REMARK                            x       y       z     vdW  Elec       q    Type
REMARK                         _______ _______ _______ _____ _____    ______ ____
ROOT
ATOM      1  O   UNL     1       0.088   9.971  22.753  0.00  0.00    +0.000 OA
ATOM      2  C   UNL     1       0.441  10.363  21.651  0.00  0.00    +0.000 C 
ATOM      3  N   UNL     1       1.306   9.626  20.820  0.00  0.00    +0.000 N 
ATOM      4  C   UNL     1       1.715  10.028  19.484  0.00  0.00    +0.000 C 
ATOM      5  C   UNL     1       1.901   8.970  18.419  0.00  0.00    +0.000 C 
ATOM      6  O   UNL     1       1.957   9.315  17.237  0.00  0.00    +0.000 OA
ATOM      7  N   UNL     1       2.142   7.679  18.859  0.00  0.00    +0.000 N 
ATOM      8  C   UNL     1       1.635   7.268  20.198  0.00  0.00    +0.000 C 
ATOM      9  C   UNL     1       1.885   8.366  21.269  0.00  0.00    +0.000 C 
ENDROOT
BRANCH   2  10
ATOM     10  C   UNL     1      -0.137  11.635  21.116  0.00  0.00    +0.000 A 
ATOM     11  C   UNL     1       0.633  12.786  20.915  0.00  0.00    +0.000 A 
ATOM     12  C   UNL     1       0.167  13.832  20.119  0.00  0.00    +0.000 A 
ATOM     13  C   UNL     1      -1.144  13.805  19.659  0.00  0.00    +0.000 A 
ATOM     14  C   UNL     1      -1.981  12.730  19.982  0.00  0.00    +0.000 A 
ATOM     15  C   UNL     1      -1.471  11.637  20.696  0.00  0.00    +0.000 A 
ENDBRANCH   2  10
BRANCH   7  16
ATOM     16  C   UNL     1       2.348   6.687  17.807  0.00  0.00    +0.000 C 
BRANCH  16  17
ATOM     17  C   UNL     1       3.782   6.235  17.645  0.00  0.00    +0.000 A 
ATOM     18  C   UNL     1       4.020   4.927  17.196  0.00  0.00    +0.000 A 
ATOM     19  C   UNL     1       5.316   4.482  16.941  0.00  0.00    +0.000 A 
ATOM     20  C   UNL     1       6.395   5.346  17.107  0.00  0.00    +0.000 A 
ATOM     21  C   UNL     1       6.191   6.665  17.533  0.00  0.00    +0.000 A 
ATOM     22  C   UNL     1       4.879   7.097  17.809  0.00  0.00    +0.000 A 
BRANCH  21  23
ATOM     23  C   UNL     1       7.348   7.627  17.661  0.00  0.00    +0.000 C 
ATOM     24  F   UNL     1       8.188   7.335  18.694  0.00  0.00    +0.000 F 
ATOM     25  F   UNL     1       8.129   7.652  16.546  0.00  0.00    +0.000 F 
ATOM     26  F   UNL     1       6.944   8.911  17.862  0.00  0.00    +0.000 F 
ENDBRANCH  21  23
ENDBRANCH  16  17
ENDBRANCH   7  16
BRANCH   8  27
ATOM     27  C   UNL     1       2.188   5.913  20.650  0.00  0.00    +0.000 C 
BRANCH  27  28
ATOM     28  C   UNL     1       1.241   4.737  20.397  0.00  0.00    +0.000 C 
BRANCH  28  29
ATOM     29  C   UNL     1       2.011   3.641  19.723  0.00  0.00    +0.000 A 
ATOM     30  C   UNL     1       1.438   2.953  18.643  0.00  0.00    +0.000 A 
ATOM     31  C   UNL     1       2.091   1.852  18.094  0.00  0.00    +0.000 A 
ATOM     32  C   UNL     1       3.312   1.429  18.615  0.00  0.00    +0.000 A 
ATOM     33  C   UNL     1       3.891   2.118  19.685  0.00  0.00    +0.000 A 
ATOM     34  C   UNL     1       3.242   3.216  20.233  0.00  0.00    +0.000 A 
ENDBRANCH  28  29
ENDBRANCH  27  28
ENDBRANCH   8  27
TORSDOF 7
ENDMDL
MODEL 8
REMARK VINA RESULT:      -7.5      3.615      8.732
REMARK  Name = 
REMARK  7 active torsions:
REMARK  status: ('A' for Active; 'I' for Inactive)
REMARK    1  A    between atoms: C_2  and  C_3
REMARK    2  A    between atoms: N_13  and  C_14
REMARK    3  A    between atoms: C_14  and  C_15
REMARK    4  A    between atoms: C_19  and  C_20
REMARK    5  A    between atoms: C_25  and  C_26
REMARK    6  A    between atoms: C_26  and  C_27
REMARK    7  A    between atoms: C_27  and  C_28
REMARK                            x       y       z     vdW  Elec       q    Type
REMARK                         _______ _______ _______ _____ _____    ______ ____
ROOT
ATOM      1  O   UNL     1       2.963   4.721  21.143  0.00  0.00    +0.000 OA
ATOM      2  C   UNL     1       3.029   5.238  20.038  0.00  0.00    +0.000 C 
ATOM      3  N   UNL     1       2.161   6.267  19.624  0.00  0.00    +0.000 N 
ATOM      4  C   UNL     1       2.231   6.944  18.340  0.00  0.00    +0.000 C 
ATOM      5  C   UNL     1       1.913   8.421  18.266  0.00  0.00    +0.000 C 
ATOM      6  O   UNL     1       2.248   9.057  17.264  0.00  0.00    +0.000 OA
ATOM      7  N   UNL     1       1.127   8.941  19.282  0.00  0.00    +0.000 N 
ATOM      8  C   UNL     1       1.141   8.274  20.615  0.00  0.00    +0.000 C 
ATOM      9  C   UNL     1       1.079   6.728  20.485  0.00  0.00    +0.000 C 
ENDROOT
BRANCH   2  10
ATOM     10  C   UNL     1       4.133   4.833  19.114  0.00  0.00    +0.000 A 
ATOM     11  C   UNL     1       3.911   4.055  17.972  0.00  0.00    +0.000 A 
ATOM     12  C   UNL     1       4.871   3.971  16.963  0.00  0.00    +0.000 A 
ATOM     13  C   UNL     1       6.127   4.528  17.170  0.00  0.00    +0.000 A 
ATOM     14  C   UNL     1       6.418   5.178  18.375  0.00  0.00    +0.000 A 
ATOM     15  C   UNL     1       5.415   5.345  19.340  0.00  0.00    +0.000 A 
ENDBRANCH   2  10
BRANCH   7  16
ATOM     16  C   UNL     1       0.811  10.362  19.166  0.00  0.00    +0.000 C 
BRANCH  16  17
ATOM     17  C   UNL     1      -0.610  10.654  18.740  0.00  0.00    +0.000 A 
ATOM     18  C   UNL     1      -1.391  11.486  19.557  0.00  0.00    +0.000 A 
ATOM     19  C   UNL     1      -2.676  11.865  19.173  0.00  0.00    +0.000 A 
ATOM     20  C   UNL     1      -3.194  11.438  17.953  0.00  0.00    +0.000 A 
ATOM     21  C   UNL     1      -2.432  10.624  17.103  0.00  0.00    +0.000 A 
ATOM     22  C   UNL     1      -1.143  10.229  17.512  0.00  0.00    +0.000 A 
BRANCH  21  23
ATOM     23  C   UNL     1      -2.962  10.202  15.754  0.00  0.00    +0.000 C 
ATOM     24  F   UNL     1      -4.317  10.298  15.645  0.00  0.00    +0.000 F 
ATOM     25  F   UNL     1      -2.456  10.955  14.738  0.00  0.00    +0.000 F 
ATOM     26  F   UNL     1      -2.656   8.911  15.449  0.00  0.00    +0.000 F 
ENDBRANCH  21  23
ENDBRANCH  16  17
ENDBRANCH   7  16
BRANCH   8  27
ATOM     27  C   UNL     1       0.048   8.800  21.550  0.00  0.00    +0.000 C 
BRANCH  27  28
ATOM     28  C   UNL     1       0.549   9.795  22.599  0.00  0.00    +0.000 C 
BRANCH  28  29
ATOM     29  C   UNL     1      -0.416  10.941  22.670  0.00  0.00    +0.000 A 
ATOM     30  C   UNL     1      -0.006  12.220  22.264  0.00  0.00    +0.000 A 
ATOM     31  C   UNL     1      -0.852  13.311  22.445  0.00  0.00    +0.000 A 
ATOM     32  C   UNL     1      -2.106  13.138  23.029  0.00  0.00    +0.000 A 
ATOM     33  C   UNL     1      -2.522  11.863  23.424  0.00  0.00    +0.000 A 
ATOM     34  C   UNL     1      -1.680  10.774  23.244  0.00  0.00    +0.000 A 
ENDBRANCH  28  29
ENDBRANCH  27  28
ENDBRANCH   8  27
TORSDOF 7
ENDMDL
MODEL 9
REMARK VINA RESULT:      -7.5      1.800      4.207
REMARK  Name = 
REMARK  7 active torsions:
REMARK  status: ('A' for Active; 'I' for Inactive)
REMARK    1  A    between atoms: C_2  and  C_3
REMARK    2  A    between atoms: N_13  and  C_14
REMARK    3  A    between atoms: C_14  and  C_15
REMARK    4  A    between atoms: C_19  and  C_20
REMARK    5  A    between atoms: C_25  and  C_26
REMARK    6  A    between atoms: C_26  and  C_27
REMARK    7  A    between atoms: C_27  and  C_28
REMARK                            x       y       z     vdW  Elec       q    Type
REMARK                         _______ _______ _______ _____ _____    ______ ____
ROOT
ATOM      1  O   UNL     1       2.305  11.443  17.377  0.00  0.00    +0.000 OA
ATOM      2  C   UNL     1       1.630  11.207  18.367  0.00  0.00    +0.000 C 
ATOM      3  N   UNL     1       1.374   9.898  18.822  0.00  0.00    +0.000 N 
ATOM      4  C   UNL     1       0.617   9.570  20.019  0.00  0.00    +0.000 C 
ATOM      5  C   UNL     1       1.038   8.383  20.856  0.00  0.00    +0.000 C 
ATOM      6  O   UNL     1       0.600   8.273  22.002  0.00  0.00    +0.000 OA
ATOM      7  N   UNL     1       1.788   7.406  20.220  0.00  0.00    +0.000 N 
ATOM      8  C   UNL     1       2.622   7.790  19.046  0.00  0.00    +0.000 C 
ATOM      9  C   UNL     1       1.857   8.739  18.083  0.00  0.00    +0.000 C 
ENDROOT
BRANCH   2  10
ATOM     10  C   UNL     1       1.126  12.350  19.189  0.00  0.00    +0.000 A 
ATOM     11  C   UNL     1       1.857  12.892  20.252  0.00  0.00    +0.000 A 
ATOM     12  C   UNL     1       1.537  14.143  20.780  0.00  0.00    +0.000 A 
ATOM     13  C   UNL     1       0.378  14.783  20.359  0.00  0.00    +0.000 A 
ATOM     14  C   UNL     1      -0.451  14.181  19.404  0.00  0.00    +0.000 A 
ATOM     15  C   UNL     1      -0.066  12.973  18.806  0.00  0.00    +0.000 A 
ENDBRANCH   2  10
BRANCH   7  16
ATOM     16  C   UNL     1       2.152   6.258  21.046  0.00  0.00    +0.000 C 
BRANCH  16  17
ATOM     17  C   UNL     1       1.956   4.917  20.375  0.00  0.00    +0.000 A 
ATOM     18  C   UNL     1       0.646   4.451  20.191  0.00  0.00    +0.000 A 
ATOM     19  C   UNL     1       0.396   3.268  19.499  0.00  0.00    +0.000 A 
ATOM     20  C   UNL     1       1.454   2.541  18.957  0.00  0.00    +0.000 A 
ATOM     21  C   UNL     1       2.774   2.990  19.103  0.00  0.00    +0.000 A 
ATOM     22  C   UNL     1       3.015   4.176  19.824  0.00  0.00    +0.000 A 
BRANCH  21  23
ATOM     23  C   UNL     1       3.921   2.240  18.471  0.00  0.00    +0.000 C 
ATOM     24  F   UNL     1       4.322   2.761  17.277  0.00  0.00    +0.000 F 
ATOM     25  F   UNL     1       5.032   2.229  19.260  0.00  0.00    +0.000 F 
ATOM     26  F   UNL     1       3.624   0.934  18.226  0.00  0.00    +0.000 F 
ENDBRANCH  21  23
ENDBRANCH  16  17
ENDBRANCH   7  16
BRANCH   8  27
ATOM     27  C   UNL     1       3.188   6.578  18.301  0.00  0.00    +0.000 C 
BRANCH  27  28
ATOM     28  C   UNL     1       3.975   6.933  17.037  0.00  0.00    +0.000 C 
BRANCH  28  29
ATOM     29  C   UNL     1       5.243   6.132  17.023  0.00  0.00    +0.000 A 
ATOM     30  C   UNL     1       5.698   5.575  15.818  0.00  0.00    +0.000 A 
ATOM     31  C   UNL     1       6.802   4.727  15.818  0.00  0.00    +0.000 A 
ATOM     32  C   UNL     1       7.457   4.428  17.012  0.00  0.00    +0.000 A 
ATOM     33  C   UNL     1       7.012   4.990  18.213  0.00  0.00    +0.000 A 
ATOM     34  C   UNL     1       5.912   5.836  18.214  0.00  0.00    +0.000 A 
ENDBRANCH  28  29
ENDBRANCH  27  28
ENDBRANCH   8  27
TORSDOF 7
ENDMDL
