MODEL 1
REMARK VINA RESULT:      -8.3      0.000      0.000
REMARK  Name = 
REMARK  5 active torsions:
REMARK  status: ('A' for Active; 'I' for Inactive)
REMARK    1  A    between atoms: C_1  and  C_2
REMARK    2  A    between atoms: C_7  and  C_8
REMARK    3  A    between atoms: C_10  and  C_11
REMARK    4  A    between atoms: C_17  and  C_18
REMARK    5  A    between atoms: C_23  and  C_24
REMARK                            x       y       z     vdW  Elec       q    Type
REMARK                         _______ _______ _______ _____ _____    ______ ____
ROOT
ATOM      1  C   UNL     1       2.213   7.706  18.939  0.00  0.00    +0.000 A 
ATOM      2  N   UNL     1       2.096   6.586  19.611  0.00  0.00    +0.000 NA
ATOM      3  C   UNL     1       3.027   5.640  19.188  0.00  0.00    +0.000 A 
ATOM      4  C   UNL     1       3.855   6.047  18.136  0.00  0.00    +0.000 A 
ATOM      5  S   UNL     1       3.528   7.725  17.843  0.00  0.00    +0.000 S 
ENDROOT
BRANCH   1  12
ATOM      6  C   UNL     1       1.383   8.558  21.680  0.00  0.00    +0.000 C 
ATOM      7  C   UNL     1       0.942   9.291  20.437  0.00  0.00    +0.000 A 
ATOM      8  C   UNL     1       0.085  10.395  20.587  0.00  0.00    +0.000 A 
ATOM      9  C   UNL     1      -0.368  11.106  19.480  0.00  0.00    +0.000 A 
ATOM     10  C   UNL     1       0.017  10.715  18.204  0.00  0.00    +0.000 A 
ATOM     11  C   UNL     1       0.863   9.615  18.035  0.00  0.00    +0.000 A 
ATOM     12  C   UNL     1       1.347   8.887  19.140  0.00  0.00    +0.000 A 
ENDBRANCH   1  12
BRANCH   4  13
ATOM     13  C   UNL     1       4.936   5.350  17.386  0.00  0.00    +0.000 A 
ATOM     14  C   UNL     1       4.632   4.828  16.111  0.00  0.00    +0.000 A 
ATOM     15  C   UNL     1       5.614   4.311  15.264  0.00  0.00    +0.000 A 
ATOM     16  C   UNL     1       6.929   4.246  15.694  0.00  0.00    +0.000 A 
ATOM     17  C   UNL     1       7.251   4.675  16.975  0.00  0.00    +0.000 A 
ATOM     18  C   UNL     1       6.276   5.227  17.837  0.00  0.00    +0.000 A 
ATOM     19  C   UNL     1       6.751   5.651  19.201  0.00  0.00    +0.000 C 
ENDBRANCH   4  13
BRANCH   3  20
ATOM     20  C   UNL     1       3.071   4.364  19.909  0.00  0.00    +0.000 A 
ATOM     21  C   UNL     1       2.190   4.155  20.972  0.00  0.00    +0.000 A 
ATOM     22  C   UNL     1       2.273   2.971  21.702  0.00  0.00    +0.000 A 
ATOM     23  C   UNL     1       3.229   2.031  21.353  0.00  0.00    +0.000 A 
ATOM     24  C   UNL     1       4.053   2.305  20.273  0.00  0.00    +0.000 A 
ATOM     25  N   UNL     1       3.986   3.440  19.541  0.00  0.00    +0.000 NA
ENDBRANCH   3  20
TORSDOF 3
ENDMDL
MODEL 2
REMARK VINA RESULT:      -8.1      1.027      1.102
REMARK  Name = 
REMARK  5 active torsions:
REMARK  status: ('A' for Active; 'I' for Inactive)
REMARK    1  A    between atoms: C_1  and  C_2
REMARK    2  A    between atoms: C_7  and  C_8
REMARK    3  A    between atoms: C_10  and  C_11
REMARK    4  A    between atoms: C_17  and  C_18
REMARK    5  A    between atoms: C_23  and  C_24
REMARK                            x       y       z     vdW  Elec       q    Type
REMARK                         _______ _______ _______ _____ _____    ______ ____
ROOT
ATOM      1  C   UNL     1       2.160   7.836  18.670  0.00  0.00    +0.000 A 
ATOM      2  N   UNL     1       1.818   6.611  18.990  0.00  0.00    +0.000 NA
ATOM      3  C   UNL     1       2.742   5.684  18.510  0.00  0.00    +0.000 A 
ATOM      4  C   UNL     1       3.801   6.224  17.773  0.00  0.00    +0.000 A 
ATOM      5  S   UNL     1       3.675   7.950  17.878  0.00  0.00    +0.000 S 
ENDROOT
BRANCH   1  12
ATOM      6  C   UNL     1       1.393   8.417  21.499  0.00  0.00    +0.000 C 
ATOM      7  C   UNL     1       0.990   9.310  20.351  0.00  0.00    +0.000 A 
ATOM      8  C   UNL     1       0.201  10.438  20.635  0.00  0.00    +0.000 A 
ATOM      9  C   UNL     1      -0.216  11.295  19.620  0.00  0.00    +0.000 A 
ATOM     10  C   UNL     1       0.141  11.030  18.304  0.00  0.00    +0.000 A 
ATOM     11  C   UNL     1       0.920   9.910  18.002  0.00  0.00    +0.000 A 
ATOM     12  C   UNL     1       1.365   9.034  19.013  0.00  0.00    +0.000 A 
ENDBRANCH   1  12
BRANCH   4  13
ATOM     13  C   UNL     1       4.958   5.597  17.077  0.00  0.00    +0.000 A 
ATOM     14  C   UNL     1       4.857   5.370  15.689  0.00  0.00    +0.000 A 
ATOM     15  C   UNL     1       5.944   4.946  14.922  0.00  0.00    +0.000 A 
ATOM     16  C   UNL     1       7.157   4.678  15.535  0.00  0.00    +0.000 A 
ATOM     17  C   UNL     1       7.270   4.811  16.913  0.00  0.00    +0.000 A 
ATOM     18  C   UNL     1       6.189   5.265  17.703  0.00  0.00    +0.000 A 
ATOM     19  C   UNL     1       6.437   5.364  19.185  0.00  0.00    +0.000 C 
ENDBRANCH   4  13
BRANCH   3  20
ATOM     20  C   UNL     1       2.534   4.276  18.865  0.00  0.00    +0.000 A 
ATOM     21  C   UNL     1       1.507   3.564  18.242  0.00  0.00    +0.000 A 
ATOM     22  C   UNL     1       1.264   2.246  18.624  0.00  0.00    +0.000 A 
ATOM     23  C   UNL     1       2.050   1.676  19.613  0.00  0.00    +0.000 A 
ATOM     24  C   UNL     1       3.061   2.443  20.168  0.00  0.00    +0.000 A 
ATOM     25  N   UNL     1       3.326   3.719  19.809  0.00  0.00    +0.000 NA
ENDBRANCH   3  20
TORSDOF 3
ENDMDL
MODEL 3
REMARK VINA RESULT:      -7.9      0.927      1.519
REMARK  Name = 
REMARK  5 active torsions:
REMARK  status: ('A' for Active; 'I' for Inactive)
REMARK    1  A    between atoms: C_1  and  C_2
REMARK    2  A    between atoms: C_7  and  C_8
REMARK    3  A    between atoms: C_10  and  C_11
REMARK    4  A    between atoms: C_17  and  C_18
REMARK    5  A    between atoms: C_23  and  C_24
REMARK                            x       y       z     vdW  Elec       q    Type
REMARK                         _______ _______ _______ _____ _____    ______ ____
ROOT
ATOM      1  C   UNL     1       1.770   8.104  19.216  0.00  0.00    +0.000 A 
ATOM      2  N   UNL     1       1.647   6.977  19.873  0.00  0.00    +0.000 NA
ATOM      3  C   UNL     1       2.500   5.998  19.369  0.00  0.00    +0.000 A 
ATOM      4  C   UNL     1       3.272   6.388  18.269  0.00  0.00    +0.000 A 
ATOM      5  S   UNL     1       3.006   8.085  18.030  0.00  0.00    +0.000 S 
ENDROOT
BRANCH   1  12
ATOM      6  C   UNL     1       1.318   9.030  22.020  0.00  0.00    +0.000 C 
ATOM      7  C   UNL     1       0.751   9.758  20.826  0.00  0.00    +0.000 A 
ATOM      8  C   UNL     1      -0.041  10.896  21.059  0.00  0.00    +0.000 A 
ATOM      9  C   UNL     1      -0.604  11.605  20.002  0.00  0.00    +0.000 A 
ATOM     10  C   UNL     1      -0.394  11.180  18.696  0.00  0.00    +0.000 A 
ATOM     11  C   UNL     1       0.385  10.047  18.447  0.00  0.00    +0.000 A 
ATOM     12  C   UNL     1       0.977   9.319  19.498  0.00  0.00    +0.000 A 
ENDBRANCH   1  12
BRANCH   4  13
ATOM     13  C   UNL     1       4.264   5.659  17.432  0.00  0.00    +0.000 A 
ATOM     14  C   UNL     1       5.537   6.238  17.251  0.00  0.00    +0.000 A 
ATOM     15  C   UNL     1       6.584   5.556  16.628  0.00  0.00    +0.000 A 
ATOM     16  C   UNL     1       6.370   4.289  16.112  0.00  0.00    +0.000 A 
ATOM     17  C   UNL     1       5.106   3.720  16.199  0.00  0.00    +0.000 A 
ATOM     18  C   UNL     1       4.040   4.383  16.850  0.00  0.00    +0.000 A 
ATOM     19  C   UNL     1       2.718   3.663  16.874  0.00  0.00    +0.000 C 
ENDBRANCH   4  13
BRANCH   3  20
ATOM     20  C   UNL     1       2.534   4.706  20.062  0.00  0.00    +0.000 A 
ATOM     21  C   UNL     1       1.368   4.232  20.668  0.00  0.00    +0.000 A 
ATOM     22  C   UNL     1       1.411   3.037  21.384  0.00  0.00    +0.000 A 
ATOM     23  C   UNL     1       2.612   2.350  21.475  0.00  0.00    +0.000 A 
ATOM     24  C   UNL     1       3.718   2.877  20.829  0.00  0.00    +0.000 A 
ATOM     25  N   UNL     1       3.701   4.027  20.118  0.00  0.00    +0.000 NA
ENDBRANCH   3  20
TORSDOF 3
ENDMDL
MODEL 4
REMARK VINA RESULT:      -7.7      1.436      6.257
REMARK  Name = 
REMARK  5 active torsions:
REMARK  status: ('A' for Active; 'I' for Inactive)
REMARK    1  A    between atoms: C_1  and  C_2
REMARK    2  A    between atoms: C_7  and  C_8
REMARK    3  A    between atoms: C_10  and  C_11
REMARK    4  A    between atoms: C_17  and  C_18
REMARK    5  A    between atoms: C_23  and  C_24
REMARK                            x       y       z     vdW  Elec       q    Type
REMARK                         _______ _______ _______ _____ _____    ______ ____
ROOT
ATOM      1  C   UNL     1       4.485   5.503  17.078  0.00  0.00    +0.000 A 
ATOM      2  N   UNL     1       4.014   4.607  17.912  0.00  0.00    +0.000 NA
ATOM      3  C   UNL     1       3.119   5.175  18.816  0.00  0.00    +0.000 A 
ATOM      4  C   UNL     1       2.933   6.556  18.684  0.00  0.00    +0.000 A 
ATOM      5  S   UNL     1       3.787   7.056  17.260  0.00  0.00    +0.000 S 
ENDROOT
BRANCH   1  12
ATOM      6  C   UNL     1       7.308   6.453  17.310  0.00  0.00    +0.000 C 
ATOM      7  C   UNL     1       6.814   5.667  16.121  0.00  0.00    +0.000 A 
ATOM      8  C   UNL     1       7.720   5.404  15.078  0.00  0.00    +0.000 A 
ATOM      9  C   UNL     1       7.324   4.695  13.947  0.00  0.00    +0.000 A 
ATOM     10  C   UNL     1       6.013   4.249  13.837  0.00  0.00    +0.000 A 
ATOM     11  C   UNL     1       5.097   4.507  14.861  0.00  0.00    +0.000 A 
ATOM     12  C   UNL     1       5.477   5.211  16.022  0.00  0.00    +0.000 A 
ENDBRANCH   1  12
BRANCH   4  13
ATOM     13  C   UNL     1       2.108   7.532  19.447  0.00  0.00    +0.000 A 
ATOM     14  C   UNL     1       1.802   7.238  20.792  0.00  0.00    +0.000 A 
ATOM     15  C   UNL     1       1.182   8.164  21.634  0.00  0.00    +0.000 A 
ATOM     16  C   UNL     1       0.793   9.396  21.136  0.00  0.00    +0.000 A 
ATOM     17  C   UNL     1       1.004   9.688  19.794  0.00  0.00    +0.000 A 
ATOM     18  C   UNL     1       1.654   8.776  18.932  0.00  0.00    +0.000 A 
ATOM     19  C   UNL     1       1.820   9.209  17.500  0.00  0.00    +0.000 C 
ENDBRANCH   4  13
BRANCH   3  20
ATOM     20  C   UNL     1       2.445   4.276  19.758  0.00  0.00    +0.000 A 
ATOM     21  C   UNL     1       1.183   3.774  19.431  0.00  0.00    +0.000 A 
ATOM     22  C   UNL     1       0.510   2.973  20.351  0.00  0.00    +0.000 A 
ATOM     23  C   UNL     1       1.113   2.693  21.567  0.00  0.00    +0.000 A 
ATOM     24  C   UNL     1       2.374   3.212  21.807  0.00  0.00    +0.000 A 
ATOM     25  N   UNL     1       3.054   3.983  20.929  0.00  0.00    +0.000 NA
ENDBRANCH   3  20
TORSDOF 3
ENDMDL
MODEL 5
REMARK VINA RESULT:      -7.7      2.030      6.951
REMARK  Name = 
REMARK  5 active torsions:
REMARK  status: ('A' for Active; 'I' for Inactive)
REMARK    1  A    between atoms: C_1  and  C_2
REMARK    2  A    between atoms: C_7  and  C_8
REMARK    3  A    between atoms: C_10  and  C_11
REMARK    4  A    between atoms: C_17  and  C_18
REMARK    5  A    between atoms: C_23  and  C_24
REMARK                            x       y       z     vdW  Elec       q    Type
REMARK                         _______ _______ _______ _____ _____    ______ ____
ROOT
ATOM      1  C   UNL     1       4.848   4.592  16.177  0.00  0.00    +0.000 A 
ATOM      2  N   UNL     1       4.282   5.701  16.587  0.00  0.00    +0.000 NA
ATOM      3  C   UNL     1       3.510   5.487  17.727  0.00  0.00    +0.000 A 
ATOM      4  C   UNL     1       3.462   4.162  18.174  0.00  0.00    +0.000 A 
ATOM      5  S   UNL     1       4.578   3.251  17.208  0.00  0.00    +0.000 S 
ENDROOT
BRANCH   1  12
ATOM      6  C   UNL     1       7.496   5.970  16.057  0.00  0.00    +0.000 C 
ATOM      7  C   UNL     1       6.956   5.153  14.909  0.00  0.00    +0.000 A 
ATOM      8  C   UNL     1       7.726   5.070  13.736  0.00  0.00    +0.000 A 
ATOM      9  C   UNL     1       7.280   4.342  12.636  0.00  0.00    +0.000 A 
ATOM     10  C   UNL     1       6.051   3.697  12.688  0.00  0.00    +0.000 A 
ATOM     11  C   UNL     1       5.269   3.775  13.844  0.00  0.00    +0.000 A 
ATOM     12  C   UNL     1       5.704   4.494  14.976  0.00  0.00    +0.000 A 
ENDBRANCH   1  12
BRANCH   4  13
ATOM     13  C   UNL     1       2.749   3.513  19.309  0.00  0.00    +0.000 A 
ATOM     14  C   UNL     1       3.488   3.198  20.467  0.00  0.00    +0.000 A 
ATOM     15  C   UNL     1       2.879   2.746  21.640  0.00  0.00    +0.000 A 
ATOM     16  C   UNL     1       1.510   2.539  21.670  0.00  0.00    +0.000 A 
ATOM     17  C   UNL     1       0.761   2.761  20.521  0.00  0.00    +0.000 A 
ATOM     18  C   UNL     1       1.355   3.244  19.332  0.00  0.00    +0.000 A 
ATOM     19  C   UNL     1       0.436   3.440  18.156  0.00  0.00    +0.000 C 
ENDBRANCH   4  13
BRANCH   3  20
ATOM     20  C   UNL     1       2.883   6.656  18.350  0.00  0.00    +0.000 A 
ATOM     21  C   UNL     1       2.503   6.587  19.692  0.00  0.00    +0.000 A 
ATOM     22  C   UNL     1       1.847   7.672  20.271  0.00  0.00    +0.000 A 
ATOM     23  C   UNL     1       1.590   8.793  19.497  0.00  0.00    +0.000 A 
ATOM     24  C   UNL     1       2.017   8.791  18.179  0.00  0.00    +0.000 A 
ATOM     25  N   UNL     1       2.664   7.757  17.596  0.00  0.00    +0.000 NA
ENDBRANCH   3  20
TORSDOF 3
ENDMDL
MODEL 6
REMARK VINA RESULT:      -7.6      3.565      9.284
REMARK  Name = 
REMARK  5 active torsions:
REMARK  status: ('A' for Active; 'I' for Inactive)
REMARK    1  A    between atoms: C_1  and  C_2
REMARK    2  A    between atoms: C_7  and  C_8
REMARK    3  A    between atoms: C_10  and  C_11
REMARK    4  A    between atoms: C_17  and  C_18
REMARK    5  A    between atoms: C_23  and  C_24
REMARK                            x       y       z     vdW  Elec       q    Type
REMARK                         _______ _______ _______ _____ _____    ______ ____
ROOT
ATOM      1  C   UNL     1       0.666  10.025  18.823  0.00  0.00    +0.000 A 
ATOM      2  N   UNL     1      -0.573  10.035  18.395  0.00  0.00    +0.000 NA
ATOM      3  C   UNL     1      -1.148  11.297  18.534  0.00  0.00    +0.000 A 
ATOM      4  C   UNL     1      -0.326  12.266  19.118  0.00  0.00    +0.000 A 
ATOM      5  S   UNL     1       1.247  11.563  19.305  0.00  0.00    +0.000 S 
ENDROOT
BRANCH   1  12
ATOM      6  C   UNL     1       0.884   8.304  21.255  0.00  0.00    +0.000 C 
ATOM      7  C   UNL     1       1.645   8.011  19.986  0.00  0.00    +0.000 A 
ATOM      8  C   UNL     1       2.506   6.900  19.971  0.00  0.00    +0.000 A 
ATOM      9  C   UNL     1       3.246   6.582  18.836  0.00  0.00    +0.000 A 
ATOM     10  C   UNL     1       3.146   7.378  17.702  0.00  0.00    +0.000 A 
ATOM     11  C   UNL     1       2.300   8.490  17.700  0.00  0.00    +0.000 A 
ATOM     12  C   UNL     1       1.530   8.825  18.832  0.00  0.00    +0.000 A 
ENDBRANCH   1  12
BRANCH   4  13
ATOM     13  C   UNL     1      -0.556  13.696  19.466  0.00  0.00    +0.000 A 
ATOM     14  C   UNL     1      -0.098  14.681  18.566  0.00  0.00    +0.000 A 
ATOM     15  C   UNL     1      -0.413  16.033  18.719  0.00  0.00    +0.000 A 
ATOM     16  C   UNL     1      -1.149  16.449  19.816  0.00  0.00    +0.000 A 
ATOM     17  C   UNL     1      -1.546  15.517  20.766  0.00  0.00    +0.000 A 
ATOM     18  C   UNL     1      -1.261  14.140  20.615  0.00  0.00    +0.000 A 
ATOM     19  C   UNL     1      -1.743  13.232  21.715  0.00  0.00    +0.000 C 
ENDBRANCH   4  13
BRANCH   3  20
ATOM     20  C   UNL     1      -2.508  11.481  18.017  0.00  0.00    +0.000 A 
ATOM     21  C   UNL     1      -3.528  11.835  18.903  0.00  0.00    +0.000 A 
ATOM     22  C   UNL     1      -4.834  11.946  18.429  0.00  0.00    +0.000 A 
ATOM     23  C   UNL     1      -5.085  11.703  17.088  0.00  0.00    +0.000 A 
ATOM     24  C   UNL     1      -4.016  11.377  16.270  0.00  0.00    +0.000 A 
ATOM     25  N   UNL     1      -2.739  11.273  16.701  0.00  0.00    +0.000 NA
ENDBRANCH   3  20
TORSDOF 3
ENDMDL
MODEL 7
REMARK VINA RESULT:      -7.6      1.393      2.125
REMARK  Name = 
REMARK  5 active torsions:
REMARK  status: ('A' for Active; 'I' for Inactive)
REMARK    1  A    between atoms: C_1  and  C_2
REMARK    2  A    between atoms: C_7  and  C_8
REMARK    3  A    between atoms: C_10  and  C_11
REMARK    4  A    between atoms: C_17  and  C_18
REMARK    5  A    between atoms: C_23  and  C_24
REMARK                            x       y       z     vdW  Elec       q    Type
REMARK                         _______ _______ _______ _____ _____    ______ ____
ROOT
ATOM      1  C   UNL     1       2.745   6.908  19.013  0.00  0.00    +0.000 A 
ATOM      2  N   UNL     1       2.797   5.643  19.353  0.00  0.00    +0.000 NA
ATOM      3  C   UNL     1       3.687   4.935  18.549  0.00  0.00    +0.000 A 
ATOM      4  C   UNL     1       4.306   5.684  17.542  0.00  0.00    +0.000 A 
ATOM      5  S   UNL     1       3.855   7.341  17.782  0.00  0.00    +0.000 S 
ENDROOT
BRANCH   1  12
ATOM      6  C   UNL     1       1.849   9.353  17.550  0.00  0.00    +0.000 C 
ATOM      7  C   UNL     1       1.449   9.073  18.977  0.00  0.00    +0.000 A 
ATOM      8  C   UNL     1       0.649  10.020  19.639  0.00  0.00    +0.000 A 
ATOM      9  C   UNL     1       0.256   9.827  20.961  0.00  0.00    +0.000 A 
ATOM     10  C   UNL     1       0.668   8.690  21.644  0.00  0.00    +0.000 A 
ATOM     11  C   UNL     1       1.469   7.741  21.003  0.00  0.00    +0.000 A 
ATOM     12  C   UNL     1       1.869   7.906  19.662  0.00  0.00    +0.000 A 
ENDBRANCH   1  12
BRANCH   4  13
ATOM     13  C   UNL     1       5.277   5.317  16.475  0.00  0.00    +0.000 A 
ATOM     14  C   UNL     1       4.801   4.594  15.362  0.00  0.00    +0.000 A 
ATOM     15  C   UNL     1       5.593   4.352  14.237  0.00  0.00    +0.000 A 
ATOM     16  C   UNL     1       6.911   4.778  14.218  0.00  0.00    +0.000 A 
ATOM     17  C   UNL     1       7.437   5.420  15.331  0.00  0.00    +0.000 A 
ATOM     18  C   UNL     1       6.645   5.698  16.468  0.00  0.00    +0.000 A 
ATOM     19  C   UNL     1       7.334   6.397  17.610  0.00  0.00    +0.000 C 
ENDBRANCH   4  13
BRANCH   3  20
ATOM     20  C   UNL     1       3.914   3.522  18.870  0.00  0.00    +0.000 A 
ATOM     21  C   UNL     1       3.355   2.542  18.047  0.00  0.00    +0.000 A 
ATOM     22  C   UNL     1       3.511   1.199  18.384  0.00  0.00    +0.000 A 
ATOM     23  C   UNL     1       4.219   0.872  19.530  0.00  0.00    +0.000 A 
ATOM     24  C   UNL     1       4.759   1.902  20.283  0.00  0.00    +0.000 A 
ATOM     25  N   UNL     1       4.632   3.212  19.972  0.00  0.00    +0.000 NA
ENDBRANCH   3  20
TORSDOF 3
ENDMDL
MODEL 8
REMARK VINA RESULT:      -7.6      6.558      9.040
REMARK  Name = 
REMARK  5 active torsions:
REMARK  status: ('A' for Active; 'I' for Inactive)
REMARK    1  A    between atoms: C_1  and  C_2
REMARK    2  A    between atoms: C_7  and  C_8
REMARK    3  A    between atoms: C_10  and  C_11
REMARK    4  A    between atoms: C_17  and  C_18
REMARK    5  A    between atoms: C_23  and  C_24
REMARK                            x       y       z     vdW  Elec       q    Type
REMARK                         _______ _______ _______ _____ _____    ______ ____
ROOT
ATOM      1  C   UNL     1       0.094  14.500  18.977  0.00  0.00    +0.000 A 
ATOM      2  N   UNL     1      -0.677  13.692  18.291  0.00  0.00    +0.000 NA
ATOM      3  C   UNL     1      -0.910  12.504  18.981  0.00  0.00    +0.000 A 
ATOM      4  C   UNL     1      -0.264  12.396  20.217  0.00  0.00    +0.000 A 
ATOM      5  S   UNL     1       0.485  13.926  20.543  0.00  0.00    +0.000 S 
ENDROOT
BRANCH   1  12
ATOM      6  C   UNL     1       2.948  14.987  18.242  0.00  0.00    +0.000 C 
ATOM      7  C   UNL     1       1.895  16.065  18.156  0.00  0.00    +0.000 A 
ATOM      8  C   UNL     1       2.293  17.347  17.740  0.00  0.00    +0.000 A 
ATOM      9  C   UNL     1       1.373  18.389  17.652  0.00  0.00    +0.000 A 
ATOM     10  C   UNL     1       0.044  18.166  17.989  0.00  0.00    +0.000 A 
ATOM     11  C   UNL     1      -0.367  16.899  18.411  0.00  0.00    +0.000 A 
ATOM     12  C   UNL     1       0.541  15.825  18.496  0.00  0.00    +0.000 A 
ENDBRANCH   1  12
BRANCH   4  13
ATOM     13  C   UNL     1      -0.223  11.309  21.234  0.00  0.00    +0.000 A 
ATOM     14  C   UNL     1       0.769  10.315  21.106  0.00  0.00    +0.000 A 
ATOM     15  C   UNL     1       0.994   9.356  22.096  0.00  0.00    +0.000 A 
ATOM     16  C   UNL     1       0.190   9.326  23.223  0.00  0.00    +0.000 A 
ATOM     17  C   UNL     1      -0.851  10.239  23.343  0.00  0.00    +0.000 A 
ATOM     18  C   UNL     1      -1.078  11.235  22.365  0.00  0.00    +0.000 A 
ATOM     19  C   UNL     1      -2.239  12.161  22.611  0.00  0.00    +0.000 C 
ENDBRANCH   4  13
BRANCH   3  20
ATOM     20  C   UNL     1      -1.827  11.535  18.372  0.00  0.00    +0.000 A 
ATOM     21  C   UNL     1      -1.299  10.474  17.633  0.00  0.00    +0.000 A 
ATOM     22  C   UNL     1      -2.168   9.589  16.997  0.00  0.00    +0.000 A 
ATOM     23  C   UNL     1      -3.535   9.786  17.115  0.00  0.00    +0.000 A 
ATOM     24  C   UNL     1      -3.978  10.851  17.882  0.00  0.00    +0.000 A 
ATOM     25  N   UNL     1      -3.158  11.718  18.519  0.00  0.00    +0.000 NA
ENDBRANCH   3  20
TORSDOF 3
ENDMDL
MODEL 9
REMARK VINA RESULT:      -7.5      6.282      8.739
REMARK  Name = 
REMARK  5 active torsions:
REMARK  status: ('A' for Active; 'I' for Inactive)
REMARK    1  A    between atoms: C_1  and  C_2
REMARK    2  A    between atoms: C_7  and  C_8
REMARK    3  A    between atoms: C_10  and  C_11
REMARK    4  A    between atoms: C_17  and  C_18
REMARK    5  A    between atoms: C_23  and  C_24
REMARK                            x       y       z     vdW  Elec       q    Type
REMARK                         _______ _______ _______ _____ _____    ______ ____
ROOT
ATOM      1  C   UNL     1       1.103  13.670  19.209  0.00  0.00    +0.000 A 
ATOM      2  N   UNL     1       1.132  12.763  20.155  0.00  0.00    +0.000 NA
ATOM      3  C   UNL     1      -0.041  12.012  20.176  0.00  0.00    +0.000 A 
ATOM      4  C   UNL     1      -1.006  12.387  19.234  0.00  0.00    +0.000 A 
ATOM      5  S   UNL     1      -0.289  13.592  18.214  0.00  0.00    +0.000 S 
ENDROOT
BRANCH   1  12
ATOM      6  C   UNL     1       1.008  16.427  20.356  0.00  0.00    +0.000 C 
ATOM      7  C   UNL     1       2.147  15.950  19.489  0.00  0.00    +0.000 A 
ATOM      8  C   UNL     1       3.179  16.858  19.195  0.00  0.00    +0.000 A 
ATOM      9  C   UNL     1       4.253  16.485  18.390  0.00  0.00    +0.000 A 
ATOM     10  C   UNL     1       4.303  15.203  17.857  0.00  0.00    +0.000 A 
ATOM     11  C   UNL     1       3.281  14.290  18.133  0.00  0.00    +0.000 A 
ATOM     12  C   UNL     1       2.191  14.639  18.956  0.00  0.00    +0.000 A 
ENDBRANCH   1  12
BRANCH   4  13
ATOM     13  C   UNL     1      -2.375  11.877  18.947  0.00  0.00    +0.000 A 
ATOM     14  C   UNL     1      -3.464  12.488  19.602  0.00  0.00    +0.000 A 
ATOM     15  C   UNL     1      -4.790  12.196  19.274  0.00  0.00    +0.000 A 
ATOM     16  C   UNL     1      -5.066  11.236  18.315  0.00  0.00    +0.000 A 
ATOM     17  C   UNL     1      -4.019  10.555  17.708  0.00  0.00    +0.000 A 
ATOM     18  C   UNL     1      -2.670  10.854  18.007  0.00  0.00    +0.000 A 
ATOM     19  C   UNL     1      -1.628  10.044  17.284  0.00  0.00    +0.000 C 
ENDBRANCH   4  13
BRANCH   3  20
ATOM     20  C   UNL     1      -0.117  10.901  21.129  0.00  0.00    +0.000 A 
ATOM     21  C   UNL     1       0.022   9.593  20.659  0.00  0.00    +0.000 A 
ATOM     22  C   UNL     1      -0.116   8.530  21.550  0.00  0.00    +0.000 A 
ATOM     23  C   UNL     1      -0.386   8.801  22.882  0.00  0.00    +0.000 A 
ATOM     24  C   UNL     1      -0.489  10.126  23.273  0.00  0.00    +0.000 A 
ATOM     25  N   UNL     1      -0.350  11.175  22.432  0.00  0.00    +0.000 NA
ENDBRANCH   3  20
TORSDOF 3
ENDMDL
