MODEL 1
REMARK VINA RESULT:      -8.6      0.000      0.000
REMARK  Name = 
REMARK  4 active torsions:
REMARK  status: ('A' for Active; 'I' for Inactive)
REMARK    1  A    between atoms: C_1  and  C_2
REMARK    2  A    between atoms: C_2  and  C_4
REMARK    3  A    between atoms: C_7  and  C_8
REMARK    4  A    between atoms: C_14  and  C_15
REMARK                            x       y       z     vdW  Elec       q    Type
REMARK                         _______ _______ _______ _____ _____    ______ ____
ROOT
ATOM      1  C   UNL     1       4.486   5.969  17.227  0.00  0.00    +0.000 A 
ATOM      2  C   UNL     1       4.896   6.433  15.979  0.00  0.00    +0.000 A 
ATOM      3  N   UNL     1       5.561   5.751  15.039  0.00  0.00    +0.000 NA
ATOM      4  C   UNL     1       5.826   4.498  15.350  0.00  0.00    +0.000 A 
ATOM      5  N   UNL     1       6.413   3.735  14.354  0.00  0.00    +0.000 N 
ATOM      6  N   UNL     1       5.537   3.920  16.513  0.00  0.00    +0.000 NA
ATOM      7  C   UNL     1       4.857   4.650  17.453  0.00  0.00    +0.000 A 
ATOM      8  H   UNL     1       6.885   4.344  13.697  0.00  0.00    +0.000 HD
ATOM      9  H   UNL     1       6.938   2.978  14.754  0.00  0.00    +0.000 HD
ENDROOT
BRANCH   7  10
ATOM     10  C   UNL     1       4.408   3.797  18.577  0.00  0.00    +0.000 A 
ATOM     11  C   UNL     1       5.390   3.335  19.448  0.00  0.00    +0.000 A 
ATOM     12  N   UNL     1       4.811   2.547  20.390  0.00  0.00    +0.000 N 
ATOM     13  C   UNL     1       3.463   2.787  20.400  0.00  0.00    +0.000 A 
ATOM     14  C   UNL     1       2.543   2.481  21.413  0.00  0.00    +0.000 A 
ATOM     15  C   UNL     1       1.207   2.781  21.192  0.00  0.00    +0.000 A 
ATOM     16  C   UNL     1       0.806   3.279  19.959  0.00  0.00    +0.000 A 
ATOM     17  C   UNL     1       1.743   3.597  18.952  0.00  0.00    +0.000 A 
ATOM     18 BR   UNL     1       1.016   4.256  17.337  0.00  0.00    +0.000 Br
ATOM     19  C   UNL     1       3.135   3.428  19.188  0.00  0.00    +0.000 A 
ATOM     20  H   UNL     1       5.303   1.992  21.076  0.00  0.00    +0.000 HD
ENDBRANCH   7  10
BRANCH   1  24
ATOM     21  C   UNL     1       1.702   8.450  19.323  0.00  0.00    +0.000 A 
ATOM     22  C   UNL     1       2.268   7.346  19.971  0.00  0.00    +0.000 A 
ATOM     23  C   UNL     1       3.237   6.563  19.334  0.00  0.00    +0.000 A 
ATOM     24  C   UNL     1       3.656   6.872  18.039  0.00  0.00    +0.000 A 
ATOM     25  C   UNL     1       3.123   8.033  17.427  0.00  0.00    +0.000 A 
ATOM     26  C   UNL     1       2.146   8.805  18.051  0.00  0.00    +0.000 A 
BRANCH  21  28
ATOM     27  C   UNL     1       0.215   8.814  21.386  0.00  0.00    +0.000 C 
ATOM     28  C   UNL     1       0.592   9.190  19.978  0.00  0.00    +0.000 C 
ATOM     29  O   UNL     1       0.027  10.099  19.377  0.00  0.00    +0.000 OA
ENDBRANCH  21  28
ENDBRANCH   1  24
TORSDOF 3
ENDMDL
MODEL 2
REMARK VINA RESULT:      -8.3      0.507      1.071
REMARK  Name = 
REMARK  4 active torsions:
REMARK  status: ('A' for Active; 'I' for Inactive)
REMARK    1  A    between atoms: C_1  and  C_2
REMARK    2  A    between atoms: C_2  and  C_4
REMARK    3  A    between atoms: C_7  and  C_8
REMARK    4  A    between atoms: C_14  and  C_15
REMARK                            x       y       z     vdW  Elec       q    Type
REMARK                         _______ _______ _______ _____ _____    ______ ____
ROOT
ATOM      1  C   UNL     1       4.266   6.268  17.337  0.00  0.00    +0.000 A 
ATOM      2  C   UNL     1       4.723   6.830  16.146  0.00  0.00    +0.000 A 
ATOM      3  N   UNL     1       5.593   6.297  15.280  0.00  0.00    +0.000 NA
ATOM      4  C   UNL     1       6.034   5.099  15.608  0.00  0.00    +0.000 A 
ATOM      5  N   UNL     1       6.848   4.475  14.677  0.00  0.00    +0.000 N 
ATOM      6  N   UNL     1       5.724   4.448  16.726  0.00  0.00    +0.000 NA
ATOM      7  C   UNL     1       4.831   5.026  17.591  0.00  0.00    +0.000 A 
ATOM      8  H   UNL     1       7.276   5.173  14.082  0.00  0.00    +0.000 HD
ATOM      9  H   UNL     1       7.449   3.807  15.127  0.00  0.00    +0.000 HD
ENDROOT
BRANCH   7  10
ATOM     10  C   UNL     1       4.417   4.078  18.651  0.00  0.00    +0.000 A 
ATOM     11  C   UNL     1       5.398   3.670  19.550  0.00  0.00    +0.000 A 
ATOM     12  N   UNL     1       4.856   2.784  20.423  0.00  0.00    +0.000 N 
ATOM     13  C   UNL     1       3.492   2.891  20.375  0.00  0.00    +0.000 A 
ATOM     14  C   UNL     1       2.560   2.447  21.324  0.00  0.00    +0.000 A 
ATOM     15  C   UNL     1       1.213   2.627  21.047  0.00  0.00    +0.000 A 
ATOM     16  C   UNL     1       0.823   3.144  19.818  0.00  0.00    +0.000 A 
ATOM     17  C   UNL     1       1.771   3.602  18.877  0.00  0.00    +0.000 A 
ATOM     18 BR   UNL     1       1.059   4.267  17.258  0.00  0.00    +0.000 Br
ATOM     19  C   UNL     1       3.159   3.557  19.178  0.00  0.00    +0.000 A 
ATOM     20  H   UNL     1       5.368   2.245  21.108  0.00  0.00    +0.000 HD
ENDBRANCH   7  10
BRANCH   1  24
ATOM     21  C   UNL     1       1.544   8.570  19.701  0.00  0.00    +0.000 A 
ATOM     22  C   UNL     1       1.743   8.903  18.356  0.00  0.00    +0.000 A 
ATOM     23  C   UNL     1       2.570   8.121  17.542  0.00  0.00    +0.000 A 
ATOM     24  C   UNL     1       3.211   6.994  18.059  0.00  0.00    +0.000 A 
ATOM     25  C   UNL     1       2.941   6.635  19.403  0.00  0.00    +0.000 A 
ATOM     26  C   UNL     1       2.132   7.419  20.222  0.00  0.00    +0.000 A 
BRANCH  21  28
ATOM     27  C   UNL     1      -0.034   8.889  21.703  0.00  0.00    +0.000 C 
ATOM     28  C   UNL     1       0.758   9.484  20.570  0.00  0.00    +0.000 C 
ATOM     29  O   UNL     1       0.787  10.694  20.366  0.00  0.00    +0.000 OA
ENDBRANCH  21  28
ENDBRANCH   1  24
TORSDOF 3
ENDMDL
MODEL 3
REMARK VINA RESULT:      -8.2      3.803      6.014
REMARK  Name = 
REMARK  4 active torsions:
REMARK  status: ('A' for Active; 'I' for Inactive)
REMARK    1  A    between atoms: C_1  and  C_2
REMARK    2  A    between atoms: C_2  and  C_4
REMARK    3  A    between atoms: C_7  and  C_8
REMARK    4  A    between atoms: C_14  and  C_15
REMARK                            x       y       z     vdW  Elec       q    Type
REMARK                         _______ _______ _______ _____ _____    ______ ____
ROOT
ATOM      1  C   UNL     1       6.585   4.919  17.354  0.00  0.00    +0.000 A 
ATOM      2  C   UNL     1       7.940   4.854  17.669  0.00  0.00    +0.000 A 
ATOM      3  N   UNL     1       8.499   4.993  18.877  0.00  0.00    +0.000 NA
ATOM      4  C   UNL     1       7.644   5.193  19.861  0.00  0.00    +0.000 A 
ATOM      5  N   UNL     1       8.183   5.228  21.137  0.00  0.00    +0.000 N 
ATOM      6  N   UNL     1       6.327   5.318  19.717  0.00  0.00    +0.000 NA
ATOM      7  C   UNL     1       5.791   5.173  18.464  0.00  0.00    +0.000 A 
ATOM      8  H   UNL     1       9.163   5.474  21.082  0.00  0.00    +0.000 HD
ATOM      9  H   UNL     1       7.596   5.765  21.751  0.00  0.00    +0.000 HD
ENDROOT
BRANCH   7  10
ATOM     10  C   UNL     1       4.313   5.101  18.516  0.00  0.00    +0.000 A 
ATOM     11  C   UNL     1       3.611   6.154  17.935  0.00  0.00    +0.000 A 
ATOM     12  N   UNL     1       2.280   5.943  18.103  0.00  0.00    +0.000 N 
ATOM     13  C   UNL     1       2.076   4.627  18.420  0.00  0.00    +0.000 A 
ATOM     14  C   UNL     1       0.882   3.897  18.334  0.00  0.00    +0.000 A 
ATOM     15  C   UNL     1       0.896   2.574  18.750  0.00  0.00    +0.000 A 
ATOM     16  C   UNL     1       2.045   2.041  19.321  0.00  0.00    +0.000 A 
ATOM     17  C   UNL     1       3.246   2.782  19.389  0.00  0.00    +0.000 A 
ATOM     18 BR   UNL     1       4.704   1.900  20.205  0.00  0.00    +0.000 Br
ATOM     19  C   UNL     1       3.308   4.097  18.853  0.00  0.00    +0.000 A 
ATOM     20  H   UNL     1       1.548   6.603  17.880  0.00  0.00    +0.000 HD
ENDBRANCH   7  10
BRANCH   1  24
ATOM     21  C   UNL     1       5.823   3.689  13.328  0.00  0.00    +0.000 A 
ATOM     22  C   UNL     1       4.892   3.390  14.330  0.00  0.00    +0.000 A 
ATOM     23  C   UNL     1       5.081   3.846  15.639  0.00  0.00    +0.000 A 
ATOM     24  C   UNL     1       6.203   4.609  15.968  0.00  0.00    +0.000 A 
ATOM     25  C   UNL     1       7.097   4.959  14.925  0.00  0.00    +0.000 A 
ATOM     26  C   UNL     1       6.921   4.493  13.625  0.00  0.00    +0.000 A 
BRANCH  21  28
ATOM     27  C   UNL     1       4.338   3.273  11.273  0.00  0.00    +0.000 C 
ATOM     28  C   UNL     1       5.657   3.092  11.977  0.00  0.00    +0.000 C 
ATOM     29  O   UNL     1       6.593   2.493  11.456  0.00  0.00    +0.000 OA
ENDBRANCH  21  28
ENDBRANCH   1  24
TORSDOF 3
ENDMDL
MODEL 4
REMARK VINA RESULT:      -7.8      3.751      5.688
REMARK  Name = 
REMARK  4 active torsions:
REMARK  status: ('A' for Active; 'I' for Inactive)
REMARK    1  A    between atoms: C_1  and  C_2
REMARK    2  A    between atoms: C_2  and  C_4
REMARK    3  A    between atoms: C_7  and  C_8
REMARK    4  A    between atoms: C_14  and  C_15
REMARK                            x       y       z     vdW  Elec       q    Type
REMARK                         _______ _______ _______ _____ _____    ______ ____
ROOT
ATOM      1  C   UNL     1       6.425   4.981  17.335  0.00  0.00    +0.000 A 
ATOM      2  C   UNL     1       7.639   5.627  17.556  0.00  0.00    +0.000 A 
ATOM      3  N   UNL     1       8.216   5.885  18.736  0.00  0.00    +0.000 NA
ATOM      4  C   UNL     1       7.548   5.450  19.785  0.00  0.00    +0.000 A 
ATOM      5  N   UNL     1       8.174   5.602  21.011  0.00  0.00    +0.000 N 
ATOM      6  N   UNL     1       6.360   4.851  19.741  0.00  0.00    +0.000 NA
ATOM      7  C   UNL     1       5.798   4.606  18.515  0.00  0.00    +0.000 A 
ATOM      8  H   UNL     1       8.854   6.349  20.952  0.00  0.00    +0.000 HD
ATOM      9  H   UNL     1       7.494   5.640  21.750  0.00  0.00    +0.000 HD
ENDROOT
BRANCH   7  10
ATOM     10  C   UNL     1       4.610   3.730  18.633  0.00  0.00    +0.000 A 
ATOM     11  C   UNL     1       4.814   2.364  18.466  0.00  0.00    +0.000 A 
ATOM     12  N   UNL     1       3.623   1.722  18.571  0.00  0.00    +0.000 N 
ATOM     13  C   UNL     1       2.722   2.556  19.179  0.00  0.00    +0.000 A 
ATOM     14  C   UNL     1       1.514   2.210  19.798  0.00  0.00    +0.000 A 
ATOM     15  C   UNL     1       0.732   3.233  20.317  0.00  0.00    +0.000 A 
ATOM     16  C   UNL     1       1.110   4.555  20.127  0.00  0.00    +0.000 A 
ATOM     17  C   UNL     1       2.338   4.890  19.514  0.00  0.00    +0.000 A 
ATOM     18 BR   UNL     1       2.683   6.739  19.334  0.00  0.00    +0.000 Br
ATOM     19  C   UNL     1       3.229   3.868  19.088  0.00  0.00    +0.000 A 
ATOM     20  H   UNL     1       3.464   0.742  18.381  0.00  0.00    +0.000 HD
ENDBRANCH   7  10
BRANCH   1  24
ATOM     21  C   UNL     1       5.615   3.769  13.313  0.00  0.00    +0.000 A 
ATOM     22  C   UNL     1       4.583   3.759  14.259  0.00  0.00    +0.000 A 
ATOM     23  C   UNL     1       4.803   4.223  15.561  0.00  0.00    +0.000 A 
ATOM     24  C   UNL     1       6.058   4.702  15.938  0.00  0.00    +0.000 A 
ATOM     25  C   UNL     1       7.070   4.768  14.948  0.00  0.00    +0.000 A 
ATOM     26  C   UNL     1       6.860   4.293  13.656  0.00  0.00    +0.000 A 
BRANCH  21  28
ATOM     27  C   UNL     1       4.104   3.487  11.255  0.00  0.00    +0.000 C 
ATOM     28  C   UNL     1       5.385   3.162  11.977  0.00  0.00    +0.000 C 
ATOM     29  O   UNL     1       6.241   2.437  11.480  0.00  0.00    +0.000 OA
ENDBRANCH  21  28
ENDBRANCH   1  24
TORSDOF 3
ENDMDL
MODEL 5
REMARK VINA RESULT:      -7.0      5.484      7.944
REMARK  Name = 
REMARK  4 active torsions:
REMARK  status: ('A' for Active; 'I' for Inactive)
REMARK    1  A    between atoms: C_1  and  C_2
REMARK    2  A    between atoms: C_2  and  C_4
REMARK    3  A    between atoms: C_7  and  C_8
REMARK    4  A    between atoms: C_14  and  C_15
REMARK                            x       y       z     vdW  Elec       q    Type
REMARK                         _______ _______ _______ _____ _____    ______ ____
ROOT
ATOM      1  C   UNL     1      -0.208  12.861  18.983  0.00  0.00    +0.000 A 
ATOM      2  C   UNL     1      -0.088  14.250  18.982  0.00  0.00    +0.000 A 
ATOM      3  N   UNL     1       1.042  14.965  19.031  0.00  0.00    +0.000 NA
ATOM      4  C   UNL     1       2.148  14.250  19.063  0.00  0.00    +0.000 A 
ATOM      5  N   UNL     1       3.335  14.961  18.999  0.00  0.00    +0.000 N 
ATOM      6  N   UNL     1       2.199  12.921  19.108  0.00  0.00    +0.000 NA
ATOM      7  C   UNL     1       1.022  12.220  19.059  0.00  0.00    +0.000 A 
ATOM      8  H   UNL     1       3.177  15.909  19.319  0.00  0.00    +0.000 HD
ATOM      9  H   UNL     1       4.081  14.439  19.423  0.00  0.00    +0.000 HD
ENDROOT
BRANCH   7  10
ATOM     10  C   UNL     1       1.264  10.771  18.877  0.00  0.00    +0.000 A 
ATOM     11  C   UNL     1       1.960  10.387  17.735  0.00  0.00    +0.000 A 
ATOM     12  N   UNL     1       2.061   9.034  17.712  0.00  0.00    +0.000 N 
ATOM     13  C   UNL     1       1.806   8.549  18.968  0.00  0.00    +0.000 A 
ATOM     14  C   UNL     1       2.134   7.289  19.486  0.00  0.00    +0.000 A 
ATOM     15  C   UNL     1       1.739   6.995  20.783  0.00  0.00    +0.000 A 
ATOM     16  C   UNL     1       0.958   7.900  21.489  0.00  0.00    +0.000 A 
ATOM     17  C   UNL     1       0.646   9.173  20.962  0.00  0.00    +0.000 A 
ATOM     18 BR   UNL     1      -0.433  10.270  22.059  0.00  0.00    +0.000 Br
ATOM     19  C   UNL     1       1.144   9.564  19.689  0.00  0.00    +0.000 A 
ATOM     20  H   UNL     1       2.417   8.483  16.943  0.00  0.00    +0.000 HD
ENDBRANCH   7  10
BRANCH   1  24
ATOM     21  C   UNL     1      -4.276  11.690  18.369  0.00  0.00    +0.000 A 
ATOM     22  C   UNL     1      -3.310  11.362  17.410  0.00  0.00    +0.000 A 
ATOM     23  C   UNL     1      -1.961  11.667  17.623  0.00  0.00    +0.000 A 
ATOM     24  C   UNL     1      -1.556  12.304  18.796  0.00  0.00    +0.000 A 
ATOM     25  C   UNL     1      -2.538  12.565  19.784  0.00  0.00    +0.000 A 
ATOM     26  C   UNL     1      -3.884  12.278  19.570  0.00  0.00    +0.000 A 
BRANCH  21  28
ATOM     27  C   UNL     1      -6.440  10.382  18.820  0.00  0.00    +0.000 C 
ATOM     28  C   UNL     1      -5.712  11.461  18.064  0.00  0.00    +0.000 C 
ATOM     29  O   UNL     1      -6.278  12.164  17.232  0.00  0.00    +0.000 OA
ENDBRANCH  21  28
ENDBRANCH   1  24
TORSDOF 3
ENDMDL
MODEL 6
REMARK VINA RESULT:      -7.0      7.041     10.043
REMARK  Name = 
REMARK  4 active torsions:
REMARK  status: ('A' for Active; 'I' for Inactive)
REMARK    1  A    between atoms: C_1  and  C_2
REMARK    2  A    between atoms: C_2  and  C_4
REMARK    3  A    between atoms: C_7  and  C_8
REMARK    4  A    between atoms: C_14  and  C_15
REMARK                            x       y       z     vdW  Elec       q    Type
REMARK                         _______ _______ _______ _____ _____    ______ ____
ROOT
ATOM      1  C   UNL     1      -1.799  14.153  20.530  0.00  0.00    +0.000 A 
ATOM      2  C   UNL     1      -2.528  14.804  21.522  0.00  0.00    +0.000 A 
ATOM      3  N   UNL     1      -3.574  14.324  22.206  0.00  0.00    +0.000 NA
ATOM      4  C   UNL     1      -3.915  13.089  21.898  0.00  0.00    +0.000 A 
ATOM      5  N   UNL     1      -4.920  12.526  22.667  0.00  0.00    +0.000 N 
ATOM      6  N   UNL     1      -3.343  12.350  20.950  0.00  0.00    +0.000 NA
ATOM      7  C   UNL     1      -2.277  12.876  20.268  0.00  0.00    +0.000 A 
ATOM      8  H   UNL     1      -5.482  13.261  23.077  0.00  0.00    +0.000 HD
ATOM      9  H   UNL     1      -5.391  11.802  22.154  0.00  0.00    +0.000 HD
ENDROOT
BRANCH   7  10
ATOM     10  C   UNL     1      -1.615  11.851  19.429  0.00  0.00    +0.000 A 
ATOM     11  C   UNL     1      -1.719  12.002  18.050  0.00  0.00    +0.000 A 
ATOM     12  N   UNL     1      -1.090  10.964  17.442  0.00  0.00    +0.000 N 
ATOM     13  C   UNL     1      -0.258  10.359  18.347  0.00  0.00    +0.000 A 
ATOM     14  C   UNL     1       0.819   9.501  18.084  0.00  0.00    +0.000 A 
ATOM     15  C   UNL     1       1.504   8.966  19.166  0.00  0.00    +0.000 A 
ATOM     16  C   UNL     1       1.055   9.210  20.457  0.00  0.00    +0.000 A 
ATOM     17  C   UNL     1      -0.023  10.088  20.709  0.00  0.00    +0.000 A 
ATOM     18 BR   UNL     1      -0.501  10.293  22.526  0.00  0.00    +0.000 Br
ATOM     19  C   UNL     1      -0.667  10.759  19.635  0.00  0.00    +0.000 A 
ATOM     20  H   UNL     1      -1.107  10.764  16.452  0.00  0.00    +0.000 HD
ENDBRANCH   7  10
BRANCH   1  24
ATOM     21  C   UNL     1       1.713  15.793  18.719  0.00  0.00    +0.000 A 
ATOM     22  C   UNL     1       0.473  16.403  18.499  0.00  0.00    +0.000 A 
ATOM     23  C   UNL     1      -0.679  15.932  19.140  0.00  0.00    +0.000 A 
ATOM     24  C   UNL     1      -0.609  14.843  20.010  0.00  0.00    +0.000 A 
ATOM     25  C   UNL     1       0.667  14.284  20.273  0.00  0.00    +0.000 A 
ATOM     26  C   UNL     1       1.812  14.739  19.625  0.00  0.00    +0.000 A 
BRANCH  21  28
ATOM     27  C   UNL     1       3.997  15.247  17.678  0.00  0.00    +0.000 C 
ATOM     28  C   UNL     1       2.894  16.239  17.935  0.00  0.00    +0.000 C 
ATOM     29  O   UNL     1       2.937  17.384  17.496  0.00  0.00    +0.000 OA
ENDBRANCH  21  28
ENDBRANCH   1  24
TORSDOF 3
ENDMDL
MODEL 7
REMARK VINA RESULT:      -6.9      6.591      9.588
REMARK  Name = 
REMARK  4 active torsions:
REMARK  status: ('A' for Active; 'I' for Inactive)
REMARK    1  A    between atoms: C_1  and  C_2
REMARK    2  A    between atoms: C_2  and  C_4
REMARK    3  A    between atoms: C_7  and  C_8
REMARK    4  A    between atoms: C_14  and  C_15
REMARK                            x       y       z     vdW  Elec       q    Type
REMARK                         _______ _______ _______ _____ _____    ______ ____
ROOT
ATOM      1  C   UNL     1      -0.678  13.768  21.324  0.00  0.00    +0.000 A 
ATOM      2  C   UNL     1      -1.170  14.305  22.512  0.00  0.00    +0.000 A 
ATOM      3  N   UNL     1      -2.095  13.773  23.320  0.00  0.00    +0.000 NA
ATOM      4  C   UNL     1      -2.558  12.602  22.932  0.00  0.00    +0.000 A 
ATOM      5  N   UNL     1      -3.432  11.974  23.805  0.00  0.00    +0.000 N 
ATOM      6  N   UNL     1      -2.218  11.978  21.807  0.00  0.00    +0.000 NA
ATOM      7  C   UNL     1      -1.270  12.554  21.002  0.00  0.00    +0.000 A 
ATOM      8  H   UNL     1      -3.865  12.666  24.404  0.00  0.00    +0.000 HD
ATOM      9  H   UNL     1      -4.032  11.341  23.307  0.00  0.00    +0.000 HD
ENDROOT
BRANCH   7  10
ATOM     10  C   UNL     1      -0.838  11.629  19.931  0.00  0.00    +0.000 A 
ATOM     11  C   UNL     1      -1.048  12.042  18.618  0.00  0.00    +0.000 A 
ATOM     12  N   UNL     1      -0.628  11.066  17.774  0.00  0.00    +0.000 N 
ATOM     13  C   UNL     1       0.193  10.210  18.460  0.00  0.00    +0.000 A 
ATOM     14  C   UNL     1       1.112   9.293  17.931  0.00  0.00    +0.000 A 
ATOM     15  C   UNL     1       1.815   8.491  18.819  0.00  0.00    +0.000 A 
ATOM     16  C   UNL     1       1.527   8.546  20.176  0.00  0.00    +0.000 A 
ATOM     17  C   UNL     1       0.609   9.484  20.698  0.00  0.00    +0.000 A 
ATOM     18 BR   UNL     1       0.336   9.409  22.566  0.00  0.00    +0.000 Br
ATOM     19  C   UNL     1      -0.034  10.413  19.836  0.00  0.00    +0.000 A 
ATOM     20  H   UNL     1      -0.766  11.054  16.773  0.00  0.00    +0.000 HD
ENDBRANCH   7  10
BRANCH   1  24
ATOM     21  C   UNL     1       2.553  15.492  19.113  0.00  0.00    +0.000 A 
ATOM     22  C   UNL     1       1.299  16.113  19.100  0.00  0.00    +0.000 A 
ATOM     23  C   UNL     1       0.246  15.612  19.875  0.00  0.00    +0.000 A 
ATOM     24  C   UNL     1       0.431  14.483  20.674  0.00  0.00    +0.000 A 
ATOM     25  C   UNL     1       1.727  13.910  20.726  0.00  0.00    +0.000 A 
ATOM     26  C   UNL     1       2.772  14.396  19.945  0.00  0.00    +0.000 A 
BRANCH  21  28
ATOM     27  C   UNL     1       4.768  15.056  17.886  0.00  0.00    +0.000 C 
ATOM     28  C   UNL     1       3.615  15.974  18.192  0.00  0.00    +0.000 C 
ATOM     29  O   UNL     1       3.521  17.088  17.684  0.00  0.00    +0.000 OA
ENDBRANCH  21  28
ENDBRANCH   1  24
TORSDOF 3
ENDMDL
MODEL 8
REMARK VINA RESULT:      -6.9      7.011      9.728
REMARK  Name = 
REMARK  4 active torsions:
REMARK  status: ('A' for Active; 'I' for Inactive)
REMARK    1  A    between atoms: C_1  and  C_2
REMARK    2  A    between atoms: C_2  and  C_4
REMARK    3  A    between atoms: C_7  and  C_8
REMARK    4  A    between atoms: C_14  and  C_15
REMARK                            x       y       z     vdW  Elec       q    Type
REMARK                         _______ _______ _______ _____ _____    ______ ____
ROOT
ATOM      1  C   UNL     1       0.121  12.334  20.287  0.00  0.00    +0.000 A 
ATOM      2  C   UNL     1       1.063  11.832  21.183  0.00  0.00    +0.000 A 
ATOM      3  N   UNL     1       1.188  10.568  21.603  0.00  0.00    +0.000 NA
ATOM      4  C   UNL     1       0.324   9.723  21.079  0.00  0.00    +0.000 A 
ATOM      5  N   UNL     1       0.500   8.389  21.408  0.00  0.00    +0.000 N 
ATOM      6  N   UNL     1      -0.657  10.052  20.242  0.00  0.00    +0.000 NA
ATOM      7  C   UNL     1      -0.757  11.358  19.835  0.00  0.00    +0.000 A 
ATOM      8  H   UNL     1       1.011   8.322  22.279  0.00  0.00    +0.000 HD
ATOM      9  H   UNL     1      -0.369   7.891  21.331  0.00  0.00    +0.000 HD
ENDROOT
BRANCH   7  10
ATOM     10  C   UNL     1      -1.736  11.506  18.734  0.00  0.00    +0.000 A 
ATOM     11  C   UNL     1      -1.345  11.051  17.478  0.00  0.00    +0.000 A 
ATOM     12  N   UNL     1      -2.342  11.294  16.589  0.00  0.00    +0.000 N 
ATOM     13  C   UNL     1      -3.502  11.530  17.278  0.00  0.00    +0.000 A 
ATOM     14  C   UNL     1      -4.816  11.474  16.793  0.00  0.00    +0.000 A 
ATOM     15  C   UNL     1      -5.846  11.792  17.666  0.00  0.00    +0.000 A 
ATOM     16  C   UNL     1      -5.552  12.244  18.946  0.00  0.00    +0.000 A 
ATOM     17  C   UNL     1      -4.225  12.282  19.428  0.00  0.00    +0.000 A 
ATOM     18 BR   UNL     1      -4.014  12.931  21.190  0.00  0.00    +0.000 Br
ATOM     19  C   UNL     1      -3.152  11.838  18.609  0.00  0.00    +0.000 A 
ATOM     20  H   UNL     1      -2.281  11.170  15.589  0.00  0.00    +0.000 HD
ENDBRANCH   7  10
BRANCH   1  24
ATOM     21  C   UNL     1       0.546  16.266  18.658  0.00  0.00    +0.000 A 
ATOM     22  C   UNL     1      -0.666  15.891  19.251  0.00  0.00    +0.000 A 
ATOM     23  C   UNL     1      -0.805  14.638  19.858  0.00  0.00    +0.000 A 
ATOM     24  C   UNL     1       0.263  13.740  19.882  0.00  0.00    +0.000 A 
ATOM     25  C   UNL     1       1.501  14.166  19.338  0.00  0.00    +0.000 A 
ATOM     26  C   UNL     1       1.639  15.405  18.719  0.00  0.00    +0.000 A 
BRANCH  21  28
ATOM     27  C   UNL     1      -0.655  18.246  17.545  0.00  0.00    +0.000 C 
ATOM     28  C   UNL     1       0.628  17.553  17.919  0.00  0.00    +0.000 C 
ATOM     29  O   UNL     1       1.725  18.034  17.653  0.00  0.00    +0.000 OA
ENDBRANCH  21  28
ENDBRANCH   1  24
TORSDOF 3
ENDMDL
MODEL 9
REMARK VINA RESULT:      -6.9      5.911      8.999
REMARK  Name = 
REMARK  4 active torsions:
REMARK  status: ('A' for Active; 'I' for Inactive)
REMARK    1  A    between atoms: C_1  and  C_2
REMARK    2  A    between atoms: C_2  and  C_4
REMARK    3  A    between atoms: C_7  and  C_8
REMARK    4  A    between atoms: C_14  and  C_15
REMARK                            x       y       z     vdW  Elec       q    Type
REMARK                         _______ _______ _______ _____ _____    ______ ____
ROOT
ATOM      1  C   UNL     1       1.011  12.297  18.904  0.00  0.00    +0.000 A 
ATOM      2  C   UNL     1       2.195  12.920  18.513  0.00  0.00    +0.000 A 
ATOM      3  N   UNL     1       2.401  14.231  18.338  0.00  0.00    +0.000 NA
ATOM      4  C   UNL     1       1.356  14.993  18.592  0.00  0.00    +0.000 A 
ATOM      5  N   UNL     1       1.571  16.360  18.530  0.00  0.00    +0.000 N 
ATOM      6  N   UNL     1       0.150  14.548  18.936  0.00  0.00    +0.000 NA
ATOM      7  C   UNL     1      -0.025  13.199  19.103  0.00  0.00    +0.000 A 
ATOM      8  H   UNL     1       2.371  16.548  17.940  0.00  0.00    +0.000 HD
ATOM      9  H   UNL     1       0.713  16.841  18.328  0.00  0.00    +0.000 HD
ENDROOT
BRANCH   7  10
ATOM     10  C   UNL     1      -1.340  12.898  19.712  0.00  0.00    +0.000 A 
ATOM     11  C   UNL     1      -1.643  13.542  20.908  0.00  0.00    +0.000 A 
ATOM     12  N   UNL     1      -2.862  13.126  21.338  0.00  0.00    +0.000 N 
ATOM     13  C   UNL     1      -3.526  12.543  20.292  0.00  0.00    +0.000 A 
ATOM     14  C   UNL     1      -4.901  12.299  20.176  0.00  0.00    +0.000 A 
ATOM     15  C   UNL     1      -5.354  11.653  19.034  0.00  0.00    +0.000 A 
ATOM     16  C   UNL     1      -4.442  11.186  18.097  0.00  0.00    +0.000 A 
ATOM     17  C   UNL     1      -3.060  11.451  18.218  0.00  0.00    +0.000 A 
ATOM     18 BR   UNL     1      -1.968  10.731  16.854  0.00  0.00    +0.000 Br
ATOM     19  C   UNL     1      -2.570  12.224  19.306  0.00  0.00    +0.000 A 
ATOM     20  H   UNL     1      -3.276  13.347  22.233  0.00  0.00    +0.000 HD
ENDBRANCH   7  10
BRANCH   1  24
ATOM     21  C   UNL     1       1.644   8.129  19.628  0.00  0.00    +0.000 A 
ATOM     22  C   UNL     1       1.079   8.926  20.630  0.00  0.00    +0.000 A 
ATOM     23  C   UNL     1       0.792  10.275  20.392  0.00  0.00    +0.000 A 
ATOM     24  C   UNL     1       1.066  10.848  19.149  0.00  0.00    +0.000 A 
ATOM     25  C   UNL     1       1.573  10.007  18.127  0.00  0.00    +0.000 A 
ATOM     26  C   UNL     1       1.876   8.669  18.365  0.00  0.00    +0.000 A 
BRANCH  21  28
ATOM     27  C   UNL     1       3.138   6.100  19.126  0.00  0.00    +0.000 C 
ATOM     28  C   UNL     1       2.047   6.734  19.946  0.00  0.00    +0.000 C 
ATOM     29  O   UNL     1       1.508   6.141  20.876  0.00  0.00    +0.000 OA
ENDBRANCH  21  28
ENDBRANCH   1  24
TORSDOF 3
ENDMDL
