MODEL 1
REMARK VINA RESULT:      -6.5      0.000      0.000
REMARK  Name = 
REMARK  4 active torsions:
REMARK  status: ('A' for Active; 'I' for Inactive)
REMARK    1  A    between atoms: C_1  and  C_2
REMARK    2  A    between atoms: C_6  and  C_7
REMARK    3  A    between atoms: C_8  and  C_9
REMARK    4  A    between atoms: C_17  and  C_18
REMARK                            x       y       z     vdW  Elec       q    Type
REMARK                         _______ _______ _______ _____ _____    ______ ____
ROOT
ATOM      1  C   UNL     1      11.025  16.176  16.616  0.00  0.00    +0.000 C 
ATOM      2  C   UNL     1      10.358  15.760  17.934  0.00  0.00    +0.000 C 
ATOM      3  C   UNL     1      10.614  16.850  18.979  0.00  0.00    +0.000 C 
ATOM      4  C   UNL     1       9.986  16.506  20.323  0.00  0.00    +0.000 C 
ATOM      5  C   UNL     1      10.540  15.181  20.865  0.00  0.00    +0.000 C 
ATOM      6  C   UNL     1       9.961  14.787  22.250  0.00  0.00    +0.000 C 
ATOM      7  C   UNL     1      10.128  15.900  23.290  0.00  0.00    +0.000 C 
ATOM      8  C   UNL     1       8.502  14.299  22.134  0.00  0.00    +0.000 C 
ATOM      9  O   UNL     1       8.389  13.233  21.193  0.00  0.00    +0.000 OA
ATOM     10  C   UNL     1       8.859  13.536  19.884  0.00  0.00    +0.000 C 
ATOM     11  O   UNL     1       8.660  12.369  19.076  0.00  0.00    +0.000 OA
ATOM     12  C   UNL     1       9.820  11.535  19.112  0.00  0.00    +0.000 C 
ATOM     13  C   UNL     1       9.354  10.081  19.081  0.00  0.00    +0.000 C 
ATOM     14  C   UNL     1      10.708  11.835  17.888  0.00  0.00    +0.000 C 
ATOM     15  C   UNL     1      10.578  13.280  17.387  0.00  0.00    +0.000 C 
ATOM     16  C   UNL     1      10.860  14.381  18.436  0.00  0.00    +0.000 C 
ATOM     17  C   UNL     1      10.342  14.019  19.862  0.00  0.00    +0.000 C 
ATOM     18  O   UNL     1      11.250  12.973  20.303  0.00  0.00    +0.000 OA
ATOM     19  O   UNL     1      10.541  11.696  20.340  0.00  0.00    +0.000 OA
ENDROOT
BRANCH   8  20
ATOM     20  C   UNL     1       8.036  13.715  23.431  0.00  0.00    +0.000 A 
ATOM     21  C   UNL     1       8.462  12.642  24.183  0.00  0.00    +0.000 A 
ATOM     22  C   UNL     1       7.686  12.644  25.364  0.00  0.00    +0.000 A 
ATOM     23  C   UNL     1       6.823  13.704  25.249  0.00  0.00    +0.000 A 
ATOM     24  O   UNL     1       7.022  14.363  24.078  0.00  0.00    +0.000 OA
ENDBRANCH   8  20
TORSDOF 1
ENDMDL
MODEL 2
REMARK VINA RESULT:      -6.0      9.106     11.229
REMARK  Name = 
REMARK  4 active torsions:
REMARK  status: ('A' for Active; 'I' for Inactive)
REMARK    1  A    between atoms: C_1  and  C_2
REMARK    2  A    between atoms: C_6  and  C_7
REMARK    3  A    between atoms: C_8  and  C_9
REMARK    4  A    between atoms: C_17  and  C_18
REMARK                            x       y       z     vdW  Elec       q    Type
REMARK                         _______ _______ _______ _____ _____    ______ ____
ROOT
ATOM      1  C   UNL     1       1.208   8.752  20.612  0.00  0.00    +0.000 C 
ATOM      2  C   UNL     1       0.628   9.961  21.359  0.00  0.00    +0.000 C 
ATOM      3  C   UNL     1      -0.424   9.464  22.355  0.00  0.00    +0.000 C 
ATOM      4  C   UNL     1      -1.054  10.610  23.134  0.00  0.00    +0.000 C 
ATOM      5  C   UNL     1      -1.725  11.615  22.187  0.00  0.00    +0.000 C 
ATOM      6  C   UNL     1      -2.413  12.795  22.922  0.00  0.00    +0.000 C 
ATOM      7  C   UNL     1      -3.408  12.319  23.987  0.00  0.00    +0.000 C 
ATOM      8  C   UNL     1      -1.378  13.793  23.483  0.00  0.00    +0.000 C 
ATOM      9  O   UNL     1      -0.497  14.251  22.458  0.00  0.00    +0.000 OA
ATOM     10  C   UNL     1       0.206  13.224  21.768  0.00  0.00    +0.000 C 
ATOM     11  O   UNL     1       1.044  13.859  20.794  0.00  0.00    +0.000 OA
ATOM     12  C   UNL     1       0.353  13.983  19.548  0.00  0.00    +0.000 C 
ATOM     13  C   UNL     1       0.773  15.304  18.907  0.00  0.00    +0.000 C 
ATOM     14  C   UNL     1       0.730  12.802  18.631  0.00  0.00    +0.000 C 
ATOM     15  C   UNL     1       1.097  11.529  19.404  0.00  0.00    +0.000 C 
ATOM     16  C   UNL     1       0.024  11.013  20.393  0.00  0.00    +0.000 C 
ATOM     17  C   UNL     1      -0.736  12.159  21.128  0.00  0.00    +0.000 C 
ATOM     18  O   UNL     1      -1.571  12.741  20.088  0.00  0.00    +0.000 OA
ATOM     19  O   UNL     1      -1.065  14.068  19.744  0.00  0.00    +0.000 OA
ENDROOT
BRANCH   8  20
ATOM     20  C   UNL     1      -2.055  15.029  23.988  0.00  0.00    +0.000 A 
ATOM     21  C   UNL     1      -2.128  15.616  25.232  0.00  0.00    +0.000 A 
ATOM     22  C   UNL     1      -2.836  16.828  25.065  0.00  0.00    +0.000 A 
ATOM     23  C   UNL     1      -3.167  16.893  23.736  0.00  0.00    +0.000 A 
ATOM     24  O   UNL     1      -2.702  15.805  23.068  0.00  0.00    +0.000 OA
ENDBRANCH   8  20
TORSDOF 1
ENDMDL
MODEL 3
REMARK VINA RESULT:      -6.0      1.090      1.156
REMARK  Name = 
REMARK  4 active torsions:
REMARK  status: ('A' for Active; 'I' for Inactive)
REMARK    1  A    between atoms: C_1  and  C_2
REMARK    2  A    between atoms: C_6  and  C_7
REMARK    3  A    between atoms: C_8  and  C_9
REMARK    4  A    between atoms: C_17  and  C_18
REMARK                            x       y       z     vdW  Elec       q    Type
REMARK                         _______ _______ _______ _____ _____    ______ ____
ROOT
ATOM      1  C   UNL     1      10.923  17.583  17.100  0.00  0.00    +0.000 C 
ATOM      2  C   UNL     1      10.220  16.740  18.174  0.00  0.00    +0.000 C 
ATOM      3  C   UNL     1      10.143  17.557  19.467  0.00  0.00    +0.000 C 
ATOM      4  C   UNL     1       9.462  16.783  20.587  0.00  0.00    +0.000 C 
ATOM      5  C   UNL     1      10.212  15.477  20.887  0.00  0.00    +0.000 C 
ATOM      6  C   UNL     1       9.585  14.653  22.042  0.00  0.00    +0.000 C 
ATOM      7  C   UNL     1       9.416  15.478  23.323  0.00  0.00    +0.000 C 
ATOM      8  C   UNL     1       8.272  13.971  21.602  0.00  0.00    +0.000 C 
ATOM      9  O   UNL     1       8.473  13.175  20.435  0.00  0.00    +0.000 OA
ATOM     10  C   UNL     1       9.005  13.874  19.315  0.00  0.00    +0.000 C 
ATOM     11  O   UNL     1       9.129  12.934  18.241  0.00  0.00    +0.000 OA
ATOM     12  C   UNL     1      10.423  12.326  18.257  0.00  0.00    +0.000 C 
ATOM     13  C   UNL     1      10.264  10.870  17.825  0.00  0.00    +0.000 C 
ATOM     14  C   UNL     1      11.354  13.073  17.281  0.00  0.00    +0.000 C 
ATOM     15  C   UNL     1      10.989  14.554  17.111  0.00  0.00    +0.000 C 
ATOM     16  C   UNL     1      10.934  15.385  18.415  0.00  0.00    +0.000 C 
ATOM     17  C   UNL     1      10.355  14.591  19.626  0.00  0.00    +0.000 C 
ATOM     18  O   UNL     1      11.405  13.637  19.946  0.00  0.00    +0.000 OA
ATOM     19  O   UNL     1      10.966  12.291  19.583  0.00  0.00    +0.000 OA
ENDROOT
BRANCH   8  20
ATOM     20  C   UNL     1       7.802  13.007  22.646  0.00  0.00    +0.000 A 
ATOM     21  C   UNL     1       8.438  12.017  23.362  0.00  0.00    +0.000 A 
ATOM     22  C   UNL     1       7.487  11.506  24.276  0.00  0.00    +0.000 A 
ATOM     23  C   UNL     1       6.328  12.202  24.044  0.00  0.00    +0.000 A 
ATOM     24  O   UNL     1       6.503  13.116  23.054  0.00  0.00    +0.000 OA
ENDBRANCH   8  20
TORSDOF 1
ENDMDL
MODEL 4
REMARK VINA RESULT:      -6.0      8.615     10.455
REMARK  Name = 
REMARK  4 active torsions:
REMARK  status: ('A' for Active; 'I' for Inactive)
REMARK    1  A    between atoms: C_1  and  C_2
REMARK    2  A    between atoms: C_6  and  C_7
REMARK    3  A    between atoms: C_8  and  C_9
REMARK    4  A    between atoms: C_17  and  C_18
REMARK                            x       y       z     vdW  Elec       q    Type
REMARK                         _______ _______ _______ _____ _____    ______ ____
ROOT
ATOM      1  C   UNL     1       1.746   8.604  18.594  0.00  0.00    +0.000 C 
ATOM      2  C   UNL     1       1.283  10.066  18.647  0.00  0.00    +0.000 C 
ATOM      3  C   UNL     1       2.301  10.931  17.898  0.00  0.00    +0.000 C 
ATOM      4  C   UNL     1       1.914  12.403  17.912  0.00  0.00    +0.000 C 
ATOM      5  C   UNL     1       1.802  12.929  19.350  0.00  0.00    +0.000 C 
ATOM      6  C   UNL     1       1.438  14.434  19.435  0.00  0.00    +0.000 C 
ATOM      7  C   UNL     1       2.394  15.312  18.619  0.00  0.00    +0.000 C 
ATOM      8  C   UNL     1      -0.042  14.679  19.074  0.00  0.00    +0.000 C 
ATOM      9  O   UNL     1      -0.907  13.882  19.882  0.00  0.00    +0.000 OA
ATOM     10  C   UNL     1      -0.662  12.481  19.822  0.00  0.00    +0.000 C 
ATOM     11  O   UNL     1      -1.619  11.841  20.675  0.00  0.00    +0.000 OA
ATOM     12  C   UNL     1      -1.092  11.700  21.997  0.00  0.00    +0.000 C 
ATOM     13  C   UNL     1      -2.240  11.899  22.984  0.00  0.00    +0.000 C 
ATOM     14  C   UNL     1      -0.486  10.293  22.161  0.00  0.00    +0.000 C 
ATOM     15  C   UNL     1       0.045   9.706  20.847  0.00  0.00    +0.000 C 
ATOM     16  C   UNL     1       1.091  10.568  20.102  0.00  0.00    +0.000 C 
ATOM     17  C   UNL     1       0.804  12.098  20.193  0.00  0.00    +0.000 C 
ATOM     18  O   UNL     1       1.106  12.424  21.577  0.00  0.00    +0.000 OA
ATOM     19  O   UNL     1      -0.134  12.726  22.288  0.00  0.00    +0.000 OA
ENDROOT
BRANCH   8  20
ATOM     20  C   UNL     1      -0.433  16.093  19.375  0.00  0.00    +0.000 A 
ATOM     21  C   UNL     1      -0.478  16.824  20.542  0.00  0.00    +0.000 A 
ATOM     22  C   UNL     1      -0.839  18.141  20.178  0.00  0.00    +0.000 A 
ATOM     23  C   UNL     1      -1.011  18.124  18.817  0.00  0.00    +0.000 A 
ATOM     24  O   UNL     1      -0.771  16.885  18.315  0.00  0.00    +0.000 OA
ENDBRANCH   8  20
TORSDOF 1
ENDMDL
MODEL 5
REMARK VINA RESULT:      -5.9      1.887      3.589
REMARK  Name = 
REMARK  4 active torsions:
REMARK  status: ('A' for Active; 'I' for Inactive)
REMARK    1  A    between atoms: C_1  and  C_2
REMARK    2  A    between atoms: C_6  and  C_7
REMARK    3  A    between atoms: C_8  and  C_9
REMARK    4  A    between atoms: C_17  and  C_18
REMARK                            x       y       z     vdW  Elec       q    Type
REMARK                         _______ _______ _______ _____ _____    ______ ____
ROOT
ATOM      1  C   UNL     1      12.149  15.767  17.067  0.00  0.00    +0.000 C 
ATOM      2  C   UNL     1      11.468  15.118  18.280  0.00  0.00    +0.000 C 
ATOM      3  C   UNL     1      11.891  13.648  18.352  0.00  0.00    +0.000 C 
ATOM      4  C   UNL     1      11.249  12.930  19.531  0.00  0.00    +0.000 C 
ATOM      5  C   UNL     1       9.717  12.987  19.441  0.00  0.00    +0.000 C 
ATOM      6  C   UNL     1       9.000  12.247  20.600  0.00  0.00    +0.000 C 
ATOM      7  C   UNL     1       9.473  10.796  20.747  0.00  0.00    +0.000 C 
ATOM      8  C   UNL     1       9.097  13.037  21.922  0.00  0.00    +0.000 C 
ATOM      9  O   UNL     1       8.607  14.368  21.762  0.00  0.00    +0.000 OA
ATOM     10  C   UNL     1       9.251  15.127  20.744  0.00  0.00    +0.000 C 
ATOM     11  O   UNL     1       8.648  16.426  20.732  0.00  0.00    +0.000 OA
ATOM     12  C   UNL     1       7.548  16.457  19.818  0.00  0.00    +0.000 C 
ATOM     13  C   UNL     1       6.467  17.356  20.414  0.00  0.00    +0.000 C 
ATOM     14  C   UNL     1       8.021  17.018  18.463  0.00  0.00    +0.000 C 
ATOM     15  C   UNL     1       9.502  16.738  18.176  0.00  0.00    +0.000 C 
ATOM     16  C   UNL     1       9.924  15.250  18.226  0.00  0.00    +0.000 C 
ATOM     17  C   UNL     1       9.198  14.442  19.344  0.00  0.00    +0.000 C 
ATOM     18  O   UNL     1       7.832  14.330  18.856  0.00  0.00    +0.000 OA
ATOM     19  O   UNL     1       6.953  15.161  19.675  0.00  0.00    +0.000 OA
ENDROOT
BRANCH   8  20
ATOM     20  C   UNL     1       8.217  12.428  22.968  0.00  0.00    +0.000 A 
ATOM     21  C   UNL     1       8.458  11.973  24.246  0.00  0.00    +0.000 A 
ATOM     22  C   UNL     1       7.206  11.592  24.781  0.00  0.00    +0.000 A 
ATOM     23  C   UNL     1       6.286  11.819  23.789  0.00  0.00    +0.000 A 
ATOM     24  O   UNL     1       6.886  12.324  22.680  0.00  0.00    +0.000 OA
ENDBRANCH   8  20
TORSDOF 1
ENDMDL
MODEL 6
REMARK VINA RESULT:      -5.9     11.827     14.504
REMARK  Name = 
REMARK  4 active torsions:
REMARK  status: ('A' for Active; 'I' for Inactive)
REMARK    1  A    between atoms: C_1  and  C_2
REMARK    2  A    between atoms: C_6  and  C_7
REMARK    3  A    between atoms: C_8  and  C_9
REMARK    4  A    between atoms: C_17  and  C_18
REMARK                            x       y       z     vdW  Elec       q    Type
REMARK                         _______ _______ _______ _____ _____    ______ ____
ROOT
ATOM      1  C   UNL     1      -5.779  11.741  18.319  0.00  0.00    +0.000 C 
ATOM      2  C   UNL     1      -5.039  12.541  19.400  0.00  0.00    +0.000 C 
ATOM      3  C   UNL     1      -3.548  12.195  19.332  0.00  0.00    +0.000 C 
ATOM      4  C   UNL     1      -2.743  12.947  20.382  0.00  0.00    +0.000 C 
ATOM      5  C   UNL     1      -3.247  12.625  21.796  0.00  0.00    +0.000 C 
ATOM      6  C   UNL     1      -2.448  13.338  22.918  0.00  0.00    +0.000 C 
ATOM      7  C   UNL     1      -0.941  13.077  22.817  0.00  0.00    +0.000 C 
ATOM      8  C   UNL     1      -2.784  14.843  22.982  0.00  0.00    +0.000 C 
ATOM      9  O   UNL     1      -4.189  15.051  23.122  0.00  0.00    +0.000 OA
ATOM     10  C   UNL     1      -4.987  14.462  22.101  0.00  0.00    +0.000 C 
ATOM     11  O   UNL     1      -6.355  14.778  22.391  0.00  0.00    +0.000 OA
ATOM     12  C   UNL     1      -6.941  13.754  23.200  0.00  0.00    +0.000 C 
ATOM     13  C   UNL     1      -7.907  14.422  24.176  0.00  0.00    +0.000 C 
ATOM     14  C   UNL     1      -7.698  12.758  22.299  0.00  0.00    +0.000 C 
ATOM     15  C   UNL     1      -7.106  12.648  20.888  0.00  0.00    +0.000 C 
ATOM     16  C   UNL     1      -5.606  12.275  20.818  0.00  0.00    +0.000 C 
ATOM     17  C   UNL     1      -4.757  12.927  21.953  0.00  0.00    +0.000 C 
ATOM     18  O   UNL     1      -5.170  12.207  23.148  0.00  0.00    +0.000 OA
ATOM     19  O   UNL     1      -5.954  13.094  24.003  0.00  0.00    +0.000 OA
ENDROOT
BRANCH   8  20
ATOM     20  C   UNL     1      -2.181  15.468  24.202  0.00  0.00    +0.000 A 
ATOM     21  C   UNL     1      -2.327  15.222  25.550  0.00  0.00    +0.000 A 
ATOM     22  C   UNL     1      -1.421  16.080  26.215  0.00  0.00    +0.000 A 
ATOM     23  C   UNL     1      -0.797  16.807  25.234  0.00  0.00    +0.000 A 
ATOM     24  O   UNL     1      -1.251  16.449  24.005  0.00  0.00    +0.000 OA
ENDBRANCH   8  20
TORSDOF 1
ENDMDL
MODEL 7
REMARK VINA RESULT:      -5.7      1.789      3.575
REMARK  Name = 
REMARK  4 active torsions:
REMARK  status: ('A' for Active; 'I' for Inactive)
REMARK    1  A    between atoms: C_1  and  C_2
REMARK    2  A    between atoms: C_6  and  C_7
REMARK    3  A    between atoms: C_8  and  C_9
REMARK    4  A    between atoms: C_17  and  C_18
REMARK                            x       y       z     vdW  Elec       q    Type
REMARK                         _______ _______ _______ _____ _____    ______ ____
ROOT
ATOM      1  C   UNL     1      11.775  12.419  17.212  0.00  0.00    +0.000 C 
ATOM      2  C   UNL     1      11.195  12.788  18.584  0.00  0.00    +0.000 C 
ATOM      3  C   UNL     1      10.953  11.499  19.377  0.00  0.00    +0.000 C 
ATOM      4  C   UNL     1      10.369  11.782  20.754  0.00  0.00    +0.000 C 
ATOM      5  C   UNL     1       9.035  12.535  20.641  0.00  0.00    +0.000 C 
ATOM      6  C   UNL     1       8.370  12.828  22.012  0.00  0.00    +0.000 C 
ATOM      7  C   UNL     1       8.199  11.563  22.860  0.00  0.00    +0.000 C 
ATOM      8  C   UNL     1       9.108  13.952  22.769  0.00  0.00    +0.000 C 
ATOM      9  O   UNL     1       9.211  15.130  21.969  0.00  0.00    +0.000 OA
ATOM     10  C   UNL     1       9.853  14.948  20.712  0.00  0.00    +0.000 C 
ATOM     11  O   UNL     1       9.878  16.221  20.055  0.00  0.00    +0.000 OA
ATOM     12  C   UNL     1       8.714  16.385  19.242  0.00  0.00    +0.000 C 
ATOM     13  C   UNL     1       8.297  17.853  19.309  0.00  0.00    +0.000 C 
ATOM     14  C   UNL     1       9.042  15.991  17.788  0.00  0.00    +0.000 C 
ATOM     15  C   UNL     1      10.146  14.930  17.684  0.00  0.00    +0.000 C 
ATOM     16  C   UNL     1       9.891  13.619  18.466  0.00  0.00    +0.000 C 
ATOM     17  C   UNL     1       9.180  13.848  19.834  0.00  0.00    +0.000 C 
ATOM     18  O   UNL     1       7.824  14.219  19.460  0.00  0.00    +0.000 OA
ATOM     19  O   UNL     1       7.608  15.633  19.756  0.00  0.00    +0.000 OA
ENDROOT
BRANCH   8  20
ATOM     20  C   UNL     1       8.331  14.376  23.976  0.00  0.00    +0.000 A 
ATOM     21  C   UNL     1       8.677  14.556  25.297  0.00  0.00    +0.000 A 
ATOM     22  C   UNL     1       7.528  15.059  25.949  0.00  0.00    +0.000 A 
ATOM     23  C   UNL     1       6.550  15.133  24.990  0.00  0.00    +0.000 A 
ATOM     24  O   UNL     1       7.022  14.717  23.786  0.00  0.00    +0.000 OA
ENDBRANCH   8  20
TORSDOF 1
ENDMDL
MODEL 8
REMARK VINA RESULT:      -5.7      8.839     10.855
REMARK  Name = 
REMARK  4 active torsions:
REMARK  status: ('A' for Active; 'I' for Inactive)
REMARK    1  A    between atoms: C_1  and  C_2
REMARK    2  A    between atoms: C_6  and  C_7
REMARK    3  A    between atoms: C_8  and  C_9
REMARK    4  A    between atoms: C_17  and  C_18
REMARK                            x       y       z     vdW  Elec       q    Type
REMARK                         _______ _______ _______ _____ _____    ______ ____
ROOT
ATOM      1  C   UNL     1       1.303   9.141  19.517  0.00  0.00    +0.000 C 
ATOM      2  C   UNL     1       0.797  10.215  20.489  0.00  0.00    +0.000 C 
ATOM      3  C   UNL     1      -0.241   9.583  21.421  0.00  0.00    +0.000 C 
ATOM      4  C   UNL     1      -0.798  10.592  22.417  0.00  0.00    +0.000 C 
ATOM      5  C   UNL     1      -1.458  11.773  21.691  0.00  0.00    +0.000 C 
ATOM      6  C   UNL     1      -2.073  12.826  22.650  0.00  0.00    +0.000 C 
ATOM      7  C   UNL     1      -3.051  12.201  23.652  0.00  0.00    +0.000 C 
ATOM      8  C   UNL     1      -0.981  13.670  23.339  0.00  0.00    +0.000 C 
ATOM      9  O   UNL     1      -0.116  14.274  22.378  0.00  0.00    +0.000 OA
ATOM     10  C   UNL     1       0.523  13.364  21.489  0.00  0.00    +0.000 C 
ATOM     11  O   UNL     1       1.353  14.134  20.611  0.00  0.00    +0.000 OA
ATOM     12  C   UNL     1       0.627  14.503  19.435  0.00  0.00    +0.000 C 
ATOM     13  C   UNL     1       1.079  15.902  19.024  0.00  0.00    +0.000 C 
ATOM     14  C   UNL     1       0.926  13.494  18.308  0.00  0.00    +0.000 C 
ATOM     15  C   UNL     1       1.265  12.091  18.828  0.00  0.00    +0.000 C 
ATOM     16  C   UNL     1       0.206  11.443  19.751  0.00  0.00    +0.000 C 
ATOM     17  C   UNL     1      -0.483  12.464  20.707  0.00  0.00    +0.000 C 
ATOM     18  O   UNL     1      -1.326  13.251  19.821  0.00  0.00    +0.000 OA
ATOM     19  O   UNL     1      -0.778  14.600  19.699  0.00  0.00    +0.000 OA
ENDROOT
BRANCH   8  20
ATOM     20  C   UNL     1      -1.589  14.819  24.081  0.00  0.00    +0.000 A 
ATOM     21  C   UNL     1      -2.663  15.641  23.818  0.00  0.00    +0.000 A 
ATOM     22  C   UNL     1      -2.809  16.485  24.942  0.00  0.00    +0.000 A 
ATOM     23  C   UNL     1      -1.804  16.139  25.808  0.00  0.00    +0.000 A 
ATOM     24  O   UNL     1      -1.052  15.129  25.298  0.00  0.00    +0.000 OA
ENDBRANCH   8  20
TORSDOF 1
ENDMDL
MODEL 9
REMARK VINA RESULT:      -5.7      9.736     11.554
REMARK  Name = 
REMARK  4 active torsions:
REMARK  status: ('A' for Active; 'I' for Inactive)
REMARK    1  A    between atoms: C_1  and  C_2
REMARK    2  A    between atoms: C_6  and  C_7
REMARK    3  A    between atoms: C_8  and  C_9
REMARK    4  A    between atoms: C_17  and  C_18
REMARK                            x       y       z     vdW  Elec       q    Type
REMARK                         _______ _______ _______ _____ _____    ______ ____
ROOT
ATOM      1  C   UNL     1       1.835   9.934  17.825  0.00  0.00    +0.000 C 
ATOM      2  C   UNL     1       0.704  10.476  18.711  0.00  0.00    +0.000 C 
ATOM      3  C   UNL     1      -0.636  10.006  18.137  0.00  0.00    +0.000 C 
ATOM      4  C   UNL     1      -1.813  10.511  18.961  0.00  0.00    +0.000 C 
ATOM      5  C   UNL     1      -1.826  12.045  19.020  0.00  0.00    +0.000 C 
ATOM      6  C   UNL     1      -3.020  12.626  19.821  0.00  0.00    +0.000 C 
ATOM      7  C   UNL     1      -4.370  12.100  19.321  0.00  0.00    +0.000 C 
ATOM      8  C   UNL     1      -2.833  12.424  21.340  0.00  0.00    +0.000 C 
ATOM      9  O   UNL     1      -1.589  12.964  21.781  0.00  0.00    +0.000 OA
ATOM     10  C   UNL     1      -0.440  12.444  21.121  0.00  0.00    +0.000 C 
ATOM     11  O   UNL     1       0.709  13.083  21.692  0.00  0.00    +0.000 OA
ATOM     12  C   UNL     1       1.037  14.266  20.959  0.00  0.00    +0.000 C 
ATOM     13  C   UNL     1       1.542  15.309  21.952  0.00  0.00    +0.000 C 
ATOM     14  C   UNL     1       2.133  13.942  19.923  0.00  0.00    +0.000 C 
ATOM     15  C   UNL     1       2.092  12.488  19.435  0.00  0.00    +0.000 C 
ATOM     16  C   UNL     1       0.744  12.021  18.834  0.00  0.00    +0.000 C 
ATOM     17  C   UNL     1      -0.496  12.613  19.571  0.00  0.00    +0.000 C 
ATOM     18  O   UNL     1      -0.488  14.015  19.186  0.00  0.00    +0.000 OA
ATOM     19  O   UNL     1      -0.124  14.834  20.339  0.00  0.00    +0.000 OA
ENDROOT
BRANCH   8  20
ATOM     20  C   UNL     1      -3.873  13.181  22.106  0.00  0.00    +0.000 A 
ATOM     21  C   UNL     1      -4.174  14.522  22.203  0.00  0.00    +0.000 A 
ATOM     22  C   UNL     1      -5.330  14.617  23.011  0.00  0.00    +0.000 A 
ATOM     23  C   UNL     1      -5.647  13.333  23.372  0.00  0.00    +0.000 A 
ATOM     24  O   UNL     1      -4.768  12.448  22.832  0.00  0.00    +0.000 OA
ENDBRANCH   8  20
TORSDOF 1
ENDMDL
