MODEL 1
REMARK VINA RESULT:      -5.7      0.000      0.000
REMARK  Name = 
REMARK  6 active torsions:
REMARK  status: ('A' for Active; 'I' for Inactive)
REMARK    1  A    between atoms: C_2  and  C_3
REMARK    2  A    between atoms: C_3  and  C_4
REMARK    3  A    between atoms: C_4  and  C_5
REMARK    4  A    between atoms: C_5  and  N_6
REMARK    5  A    between atoms: C_10  and  C_11
REMARK    6  A    between atoms: N_12  and  O_13
REMARK                            x       y       z     vdW  Elec       q    Type
REMARK                         _______ _______ _______ _____ _____    ______ ____
ROOT
ATOM      1  N   UNL     1       5.322   4.454  16.704  0.00  0.00    +0.000 N 
ATOM      2  C   UNL     1       5.551   4.286  15.359  0.00  0.00    +0.000 A 
ATOM      3  C   UNL     1       6.888   4.524  15.174  0.00  0.00    +0.000 A 
ATOM      4  N   UNL     1       7.476   4.857  16.360  0.00  0.00    +0.000 NA
ATOM      5  C   UNL     1       6.519   4.835  17.276  0.00  0.00    +0.000 A 
ENDROOT
BRANCH   5   6
ATOM      6  C   UNL     1       6.835   5.209  18.632  0.00  0.00    +0.000 C 
ATOM      7  N   UNL     1       7.997   5.037  19.177  0.00  0.00    +0.000 NA
BRANCH   7   8
ATOM      8  O   UNL     1       7.941   5.488  20.504  0.00  0.00    +0.000 OA
ATOM      9  H   UNL     1       8.765   6.003  20.593  0.00  0.00    +0.000 HD
ENDBRANCH   7   8
ENDBRANCH   5   6
BRANCH   1  10
ATOM     10  C   UNL     1       4.014   4.275  17.322  0.00  0.00    +0.000 C 
BRANCH  10  11
ATOM     11  C   UNL     1       3.782   2.828  17.775  0.00  0.00    +0.000 C 
BRANCH  11  12
ATOM     12  C   UNL     1       2.306   2.426  17.796  0.00  0.00    +0.000 C 
BRANCH  12  14
ATOM     13  C   UNL     1       1.076   3.582  19.667  0.00  0.00    +0.000 C 
ATOM     14  C   UNL     1       1.492   3.541  18.397  0.00  0.00    +0.000 C 
ENDBRANCH  12  14
ENDBRANCH  11  12
ENDBRANCH  10  11
ENDBRANCH   1  10
TORSDOF 6
ENDMDL
MODEL 2
REMARK VINA RESULT:      -5.4      1.121      1.356
REMARK  Name = 
REMARK  6 active torsions:
REMARK  status: ('A' for Active; 'I' for Inactive)
REMARK    1  A    between atoms: C_2  and  C_3
REMARK    2  A    between atoms: C_3  and  C_4
REMARK    3  A    between atoms: C_4  and  C_5
REMARK    4  A    between atoms: C_5  and  N_6
REMARK    5  A    between atoms: C_10  and  C_11
REMARK    6  A    between atoms: N_12  and  O_13
REMARK                            x       y       z     vdW  Elec       q    Type
REMARK                         _______ _______ _______ _____ _____    ______ ____
ROOT
ATOM      1  N   UNL     1       5.217   5.518  17.201  0.00  0.00    +0.000 N 
ATOM      2  C   UNL     1       5.311   5.116  15.891  0.00  0.00    +0.000 A 
ATOM      3  C   UNL     1       6.491   4.428  15.794  0.00  0.00    +0.000 A 
ATOM      4  N   UNL     1       7.133   4.420  16.999  0.00  0.00    +0.000 NA
ATOM      5  C   UNL     1       6.368   5.100  17.839  0.00  0.00    +0.000 A 
ENDROOT
BRANCH   5   6
ATOM      6  C   UNL     1       6.823   5.312  19.190  0.00  0.00    +0.000 C 
ATOM      7  N   UNL     1       8.054   5.175  19.568  0.00  0.00    +0.000 NA
BRANCH   7   8
ATOM      8  O   UNL     1       8.131   5.434  20.945  0.00  0.00    +0.000 OA
ATOM      9  H   UNL     1       7.691   4.657  21.336  0.00  0.00    +0.000 HD
ENDBRANCH   7   8
ENDBRANCH   5   6
BRANCH   1  10
ATOM     10  C   UNL     1       4.088   6.275  17.728  0.00  0.00    +0.000 C 
BRANCH  10  11
ATOM     11  C   UNL     1       3.162   5.407  18.589  0.00  0.00    +0.000 C 
BRANCH  11  12
ATOM     12  C   UNL     1       2.110   4.647  17.777  0.00  0.00    +0.000 C 
BRANCH  12  14
ATOM     13  C   UNL     1       1.017   2.606  18.770  0.00  0.00    +0.000 C 
ATOM     14  C   UNL     1       2.076   3.209  18.221  0.00  0.00    +0.000 C 
ENDBRANCH  12  14
ENDBRANCH  11  12
ENDBRANCH  10  11
ENDBRANCH   1  10
TORSDOF 6
ENDMDL
MODEL 3
REMARK VINA RESULT:      -5.3      1.166      1.318
REMARK  Name = 
REMARK  6 active torsions:
REMARK  status: ('A' for Active; 'I' for Inactive)
REMARK    1  A    between atoms: C_2  and  C_3
REMARK    2  A    between atoms: C_3  and  C_4
REMARK    3  A    between atoms: C_4  and  C_5
REMARK    4  A    between atoms: C_5  and  N_6
REMARK    5  A    between atoms: C_10  and  C_11
REMARK    6  A    between atoms: N_12  and  O_13
REMARK                            x       y       z     vdW  Elec       q    Type
REMARK                         _______ _______ _______ _____ _____    ______ ____
ROOT
ATOM      1  N   UNL     1       5.674   4.205  16.213  0.00  0.00    +0.000 N 
ATOM      2  C   UNL     1       5.555   4.373  14.854  0.00  0.00    +0.000 A 
ATOM      3  C   UNL     1       6.782   4.801  14.420  0.00  0.00    +0.000 A 
ATOM      4  N   UNL     1       7.638   4.926  15.476  0.00  0.00    +0.000 NA
ATOM      5  C   UNL     1       6.956   4.586  16.559  0.00  0.00    +0.000 A 
ENDROOT
BRANCH   5   6
ATOM      6  C   UNL     1       7.592   4.679  17.849  0.00  0.00    +0.000 C 
ATOM      7  N   UNL     1       7.455   5.687  18.651  0.00  0.00    +0.000 NA
BRANCH   7   8
ATOM      8  O   UNL     1       8.229   5.454  19.798  0.00  0.00    +0.000 OA
ATOM      9  H   UNL     1       8.748   6.275  19.879  0.00  0.00    +0.000 HD
ENDBRANCH   7   8
ENDBRANCH   5   6
BRANCH   1  10
ATOM     10  C   UNL     1       4.585   3.740  17.061  0.00  0.00    +0.000 C 
BRANCH  10  11
ATOM     11  C   UNL     1       3.779   4.902  17.656  0.00  0.00    +0.000 C 
BRANCH  11  12
ATOM     12  C   UNL     1       2.440   4.469  18.259  0.00  0.00    +0.000 C 
BRANCH  12  14
ATOM     13  C   UNL     1       1.631   5.075  20.566  0.00  0.00    +0.000 C 
ATOM     14  C   UNL     1       2.533   4.505  19.761  0.00  0.00    +0.000 C 
ENDBRANCH  12  14
ENDBRANCH  11  12
ENDBRANCH  10  11
ENDBRANCH   1  10
TORSDOF 6
ENDMDL
MODEL 4
REMARK VINA RESULT:      -5.3      1.488      2.267
REMARK  Name = 
REMARK  6 active torsions:
REMARK  status: ('A' for Active; 'I' for Inactive)
REMARK    1  A    between atoms: C_2  and  C_3
REMARK    2  A    between atoms: C_3  and  C_4
REMARK    3  A    between atoms: C_4  and  C_5
REMARK    4  A    between atoms: C_5  and  N_6
REMARK    5  A    between atoms: C_10  and  C_11
REMARK    6  A    between atoms: N_12  and  O_13
REMARK                            x       y       z     vdW  Elec       q    Type
REMARK                         _______ _______ _______ _____ _____    ______ ____
ROOT
ATOM      1  N   UNL     1       3.879   5.037  18.480  0.00  0.00    +0.000 N 
ATOM      2  C   UNL     1       3.435   4.576  17.263  0.00  0.00    +0.000 A 
ATOM      3  C   UNL     1       4.549   4.133  16.601  0.00  0.00    +0.000 A 
ATOM      4  N   UNL     1       5.663   4.333  17.365  0.00  0.00    +0.000 NA
ATOM      5  C   UNL     1       5.253   4.900  18.490  0.00  0.00    +0.000 A 
ENDROOT
BRANCH   5   6
ATOM      6  C   UNL     1       6.228   5.288  19.478  0.00  0.00    +0.000 C 
ATOM      7  N   UNL     1       7.496   5.046  19.375  0.00  0.00    +0.000 NA
BRANCH   7   8
ATOM      8  O   UNL     1       8.140   5.538  20.521  0.00  0.00    +0.000 OA
ATOM      9  H   UNL     1       8.778   6.177  20.152  0.00  0.00    +0.000 HD
ENDBRANCH   7   8
ENDBRANCH   5   6
BRANCH   1  10
ATOM     10  C   UNL     1       2.995   5.585  19.500  0.00  0.00    +0.000 C 
BRANCH  10  11
ATOM     11  C   UNL     1       2.613   4.541  20.556  0.00  0.00    +0.000 C 
BRANCH  11  12
ATOM     12  C   UNL     1       1.127   4.172  20.538  0.00  0.00    +0.000 C 
BRANCH  12  14
ATOM     13  C   UNL     1       1.725   2.038  19.339  0.00  0.00    +0.000 C 
ATOM     14  C   UNL     1       0.897   3.069  19.540  0.00  0.00    +0.000 C 
ENDBRANCH  12  14
ENDBRANCH  11  12
ENDBRANCH  10  11
ENDBRANCH   1  10
TORSDOF 6
ENDMDL
MODEL 5
REMARK VINA RESULT:      -5.3      1.512      1.766
REMARK  Name = 
REMARK  6 active torsions:
REMARK  status: ('A' for Active; 'I' for Inactive)
REMARK    1  A    between atoms: C_2  and  C_3
REMARK    2  A    between atoms: C_3  and  C_4
REMARK    3  A    between atoms: C_4  and  C_5
REMARK    4  A    between atoms: C_5  and  N_6
REMARK    5  A    between atoms: C_10  and  C_11
REMARK    6  A    between atoms: N_12  and  O_13
REMARK                            x       y       z     vdW  Elec       q    Type
REMARK                         _______ _______ _______ _____ _____    ______ ____
ROOT
ATOM      1  N   UNL     1       4.610   5.560  18.164  0.00  0.00    +0.000 N 
ATOM      2  C   UNL     1       4.414   5.842  16.833  0.00  0.00    +0.000 A 
ATOM      3  C   UNL     1       5.664   5.968  16.288  0.00  0.00    +0.000 A 
ATOM      4  N   UNL     1       6.617   5.797  17.250  0.00  0.00    +0.000 NA
ATOM      5  C   UNL     1       5.973   5.574  18.386  0.00  0.00    +0.000 A 
ENDROOT
BRANCH   5   6
ATOM      6  C   UNL     1       6.728   5.414  19.604  0.00  0.00    +0.000 C 
ATOM      7  N   UNL     1       8.021   5.362  19.650  0.00  0.00    +0.000 NA
BRANCH   7   8
ATOM      8  O   UNL     1       8.414   5.178  20.985  0.00  0.00    +0.000 OA
ATOM      9  H   UNL     1       8.183   4.245  21.151  0.00  0.00    +0.000 HD
ENDBRANCH   7   8
ENDBRANCH   5   6
BRANCH   1  10
ATOM     10  C   UNL     1       3.520   5.337  19.105  0.00  0.00    +0.000 C 
BRANCH  10  11
ATOM     11  C   UNL     1       2.197   5.026  18.394  0.00  0.00    +0.000 C 
BRANCH  11  12
ATOM     12  C   UNL     1       1.703   3.596  18.625  0.00  0.00    +0.000 C 
BRANCH  12  14
ATOM     13  C   UNL     1       1.418   3.190  21.096  0.00  0.00    +0.000 C 
ATOM     14  C   UNL     1       0.915   3.540  19.907  0.00  0.00    +0.000 C 
ENDBRANCH  12  14
ENDBRANCH  11  12
ENDBRANCH  10  11
ENDBRANCH   1  10
TORSDOF 6
ENDMDL
MODEL 6
REMARK VINA RESULT:      -5.3      2.492      2.893
REMARK  Name = 
REMARK  6 active torsions:
REMARK  status: ('A' for Active; 'I' for Inactive)
REMARK    1  A    between atoms: C_2  and  C_3
REMARK    2  A    between atoms: C_3  and  C_4
REMARK    3  A    between atoms: C_4  and  C_5
REMARK    4  A    between atoms: C_5  and  N_6
REMARK    5  A    between atoms: C_10  and  C_11
REMARK    6  A    between atoms: N_12  and  O_13
REMARK                            x       y       z     vdW  Elec       q    Type
REMARK                         _______ _______ _______ _____ _____    ______ ____
ROOT
ATOM      1  N   UNL     1       5.445   5.187  16.643  0.00  0.00    +0.000 N 
ATOM      2  C   UNL     1       5.634   5.144  15.282  0.00  0.00    +0.000 A 
ATOM      3  C   UNL     1       6.954   4.832  15.096  0.00  0.00    +0.000 A 
ATOM      4  N   UNL     1       7.584   4.708  16.301  0.00  0.00    +0.000 NA
ATOM      5  C   UNL     1       6.671   4.947  17.231  0.00  0.00    +0.000 A 
ENDROOT
BRANCH   5   6
ATOM      6  C   UNL     1       7.064   4.946  18.618  0.00  0.00    +0.000 C 
ATOM      7  N   UNL     1       7.863   5.819  19.143  0.00  0.00    +0.000 NA
BRANCH   7   8
ATOM      8  O   UNL     1       8.043   5.503  20.499  0.00  0.00    +0.000 OA
ATOM      9  H   UNL     1       7.490   4.708  20.610  0.00  0.00    +0.000 HD
ENDBRANCH   7   8
ENDBRANCH   5   6
BRANCH   1  10
ATOM     10  C   UNL     1       4.159   5.475  17.265  0.00  0.00    +0.000 C 
BRANCH  10  11
ATOM     11  C   UNL     1       3.978   6.971  17.551  0.00  0.00    +0.000 C 
BRANCH  11  12
ATOM     12  C   UNL     1       2.612   7.315  18.150  0.00  0.00    +0.000 C 
BRANCH  12  14
ATOM     13  C   UNL     1       1.263   9.437  18.306  0.00  0.00    +0.000 C 
ATOM     14  C   UNL     1       2.209   8.699  17.716  0.00  0.00    +0.000 C 
ENDBRANCH  12  14
ENDBRANCH  11  12
ENDBRANCH  10  11
ENDBRANCH   1  10
TORSDOF 6
ENDMDL
MODEL 7
REMARK VINA RESULT:      -5.3      2.630      4.542
REMARK  Name = 
REMARK  6 active torsions:
REMARK  status: ('A' for Active; 'I' for Inactive)
REMARK    1  A    between atoms: C_2  and  C_3
REMARK    2  A    between atoms: C_3  and  C_4
REMARK    3  A    between atoms: C_4  and  C_5
REMARK    4  A    between atoms: C_5  and  N_6
REMARK    5  A    between atoms: C_10  and  C_11
REMARK    6  A    between atoms: N_12  and  O_13
REMARK                            x       y       z     vdW  Elec       q    Type
REMARK                         _______ _______ _______ _____ _____    ______ ____
ROOT
ATOM      1  N   UNL     1       6.132   5.696  17.646  0.00  0.00    +0.000 N 
ATOM      2  C   UNL     1       7.322   6.377  17.731  0.00  0.00    +0.000 A 
ATOM      3  C   UNL     1       7.813   6.119  18.983  0.00  0.00    +0.000 A 
ATOM      4  N   UNL     1       6.947   5.322  19.674  0.00  0.00    +0.000 NA
ATOM      5  C   UNL     1       5.922   5.089  18.868  0.00  0.00    +0.000 A 
ENDROOT
BRANCH   5   6
ATOM      6  C   UNL     1       4.808   4.314  19.354  0.00  0.00    +0.000 C 
ATOM      7  N   UNL     1       4.858   3.040  19.582  0.00  0.00    +0.000 NA
BRANCH   7   8
ATOM      8  O   UNL     1       3.595   2.613  20.019  0.00  0.00    +0.000 OA
ATOM      9  H   UNL     1       3.504   1.740  19.596  0.00  0.00    +0.000 HD
ENDBRANCH   7   8
ENDBRANCH   5   6
BRANCH   1  10
ATOM     10  C   UNL     1       5.291   5.697  16.455  0.00  0.00    +0.000 C 
BRANCH  10  11
ATOM     11  C   UNL     1       5.321   4.348  15.725  0.00  0.00    +0.000 C 
BRANCH  11  12
ATOM     12  C   UNL     1       6.440   4.244  14.686  0.00  0.00    +0.000 C 
BRANCH  12  14
ATOM     13  C   UNL     1       6.564   3.609  12.251  0.00  0.00    +0.000 C 
ATOM     14  C   UNL     1       5.872   3.734  13.388  0.00  0.00    +0.000 C 
ENDBRANCH  12  14
ENDBRANCH  11  12
ENDBRANCH  10  11
ENDBRANCH   1  10
TORSDOF 6
ENDMDL
MODEL 8
REMARK VINA RESULT:      -5.3      2.381      3.184
REMARK  Name = 
REMARK  6 active torsions:
REMARK  status: ('A' for Active; 'I' for Inactive)
REMARK    1  A    between atoms: C_2  and  C_3
REMARK    2  A    between atoms: C_3  and  C_4
REMARK    3  A    between atoms: C_4  and  C_5
REMARK    4  A    between atoms: C_5  and  N_6
REMARK    5  A    between atoms: C_10  and  C_11
REMARK    6  A    between atoms: N_12  and  O_13
REMARK                            x       y       z     vdW  Elec       q    Type
REMARK                         _______ _______ _______ _____ _____    ______ ____
ROOT
ATOM      1  N   UNL     1       5.577   4.547  18.044  0.00  0.00    +0.000 N 
ATOM      2  C   UNL     1       6.287   5.231  19.001  0.00  0.00    +0.000 A 
ATOM      3  C   UNL     1       7.454   5.617  18.398  0.00  0.00    +0.000 A 
ATOM      4  N   UNL     1       7.491   5.167  17.110  0.00  0.00    +0.000 NA
ATOM      5  C   UNL     1       6.364   4.501  16.909  0.00  0.00    +0.000 A 
ENDROOT
BRANCH   5   6
ATOM      6  C   UNL     1       6.146   3.852  15.641  0.00  0.00    +0.000 C 
ATOM      7  N   UNL     1       6.710   4.220  14.535  0.00  0.00    +0.000 NA
BRANCH   7   8
ATOM      8  O   UNL     1       6.254   3.387  13.501  0.00  0.00    +0.000 OA
ATOM      9  H   UNL     1       6.746   2.560  13.658  0.00  0.00    +0.000 HD
ENDBRANCH   7   8
ENDBRANCH   5   6
BRANCH   1  10
ATOM     10  C   UNL     1       4.257   3.976  18.279  0.00  0.00    +0.000 C 
BRANCH  10  11
ATOM     11  C   UNL     1       3.136   4.868  17.732  0.00  0.00    +0.000 C 
BRANCH  11  12
ATOM     12  C   UNL     1       1.742   4.255  17.882  0.00  0.00    +0.000 C 
BRANCH  12  14
ATOM     13  C   UNL     1       0.896   3.055  19.931  0.00  0.00    +0.000 C 
ATOM     14  C   UNL     1       1.397   4.148  19.344  0.00  0.00    +0.000 C 
ENDBRANCH  12  14
ENDBRANCH  11  12
ENDBRANCH  10  11
ENDBRANCH   1  10
TORSDOF 6
ENDMDL
MODEL 9
REMARK VINA RESULT:      -5.3      1.896      2.653
REMARK  Name = 
REMARK  6 active torsions:
REMARK  status: ('A' for Active; 'I' for Inactive)
REMARK    1  A    between atoms: C_2  and  C_3
REMARK    2  A    between atoms: C_3  and  C_4
REMARK    3  A    between atoms: C_4  and  C_5
REMARK    4  A    between atoms: C_5  and  N_6
REMARK    5  A    between atoms: C_10  and  C_11
REMARK    6  A    between atoms: N_12  and  O_13
REMARK                            x       y       z     vdW  Elec       q    Type
REMARK                         _______ _______ _______ _____ _____    ______ ____
ROOT
ATOM      1  N   UNL     1       3.746   4.901  17.921  0.00  0.00    +0.000 N 
ATOM      2  C   UNL     1       2.875   5.953  18.073  0.00  0.00    +0.000 A 
ATOM      3  C   UNL     1       3.582   7.077  17.741  0.00  0.00    +0.000 A 
ATOM      4  N   UNL     1       4.866   6.747  17.415  0.00  0.00    +0.000 NA
ATOM      5  C   UNL     1       4.965   5.433  17.548  0.00  0.00    +0.000 A 
ENDROOT
BRANCH   5   6
ATOM      6  C   UNL     1       6.239   4.797  17.326  0.00  0.00    +0.000 C 
ATOM      7  N   UNL     1       7.135   4.634  18.246  0.00  0.00    +0.000 NA
BRANCH   7   8
ATOM      8  O   UNL     1       8.253   4.005  17.677  0.00  0.00    +0.000 OA
ATOM      9  H   UNL     1       8.992   4.355  18.208  0.00  0.00    +0.000 HD
ENDBRANCH   7   8
ENDBRANCH   5   6
BRANCH   1  10
ATOM     10  C   UNL     1       3.376   3.512  18.164  0.00  0.00    +0.000 C 
BRANCH  10  11
ATOM     11  C   UNL     1       1.886   3.258  17.907  0.00  0.00    +0.000 C 
BRANCH  11  12
ATOM     12  C   UNL     1       1.192   2.506  19.046  0.00  0.00    +0.000 C 
BRANCH  12  14
ATOM     13  C   UNL     1       1.450   2.727  21.543  0.00  0.00    +0.000 C 
ATOM     14  C   UNL     1       1.981   2.683  20.316  0.00  0.00    +0.000 C 
ENDBRANCH  12  14
ENDBRANCH  11  12
ENDBRANCH  10  11
ENDBRANCH   1  10
TORSDOF 6
ENDMDL
