MODEL 1
REMARK VINA RESULT:      -6.8      0.000      0.000
REMARK  Name = 
REMARK  7 active torsions:
REMARK  status: ('A' for Active; 'I' for Inactive)
REMARK    1  A    between atoms: C_1  and  N_2
REMARK    2  A    between atoms: C_6  and  S_7
REMARK    3  A    between atoms: S_7  and  C_8
REMARK    4  A    between atoms: C_8  and  C_9
REMARK    5  A    between atoms: N_11  and  N_12
REMARK    6  A    between atoms: C_16  and  C_17
REMARK    7  A    between atoms: N_24  and  C_25
REMARK                            x       y       z     vdW  Elec       q    Type
REMARK                         _______ _______ _______ _____ _____    ______ ____
ROOT
ATOM      1  N   UNL     1      -3.289  13.400  20.490  0.00  0.00    +0.000 NA
ATOM      2  C   UNL     1      -2.203  12.695  20.489  0.00  0.00    +0.000 A 
ATOM      3  S   UNL     1      -1.095  13.167  21.846  0.00  0.00    +0.000 S 
ATOM      4  C   UNL     1       0.035  11.930  21.414  0.00  0.00    +0.000 A 
ATOM      5  C   UNL     1      -0.359  11.249  20.330  0.00  0.00    +0.000 A 
ATOM      6  N   UNL     1      -1.599  11.644  19.760  0.00  0.00    +0.000 N 
ENDROOT
BRANCH   5   7
ATOM      7  C   UNL     1       0.546  10.231  19.779  0.00  0.00    +0.000 A 
ATOM      8  C   UNL     1       0.847   9.076  20.520  0.00  0.00    +0.000 A 
ATOM      9  C   UNL     1       1.621   8.059  19.956  0.00  0.00    +0.000 A 
ATOM     10  C   UNL     1       2.150   8.224  18.679  0.00  0.00    +0.000 A 
ATOM     11 CL   UNL     1       3.077   6.958  17.971  0.00  0.00    +0.000 Cl
ATOM     12  C   UNL     1       1.917   9.395  17.960  0.00  0.00    +0.000 A 
ATOM     13  C   UNL     1       1.113  10.400  18.510  0.00  0.00    +0.000 A 
ENDBRANCH   5   7
BRANCH   6  14
ATOM     14  C   UNL     1      -2.116  11.126  18.525  0.00  0.00    +0.000 A 
ATOM     15  C   UNL     1      -1.942  11.795  17.296  0.00  0.00    +0.000 A 
ATOM     16  C   UNL     1      -2.401  11.272  16.082  0.00  0.00    +0.000 A 
ATOM     17  C   UNL     1      -2.979  10.012  16.050  0.00  0.00    +0.000 A 
ATOM     18  C   UNL     1      -3.174   9.324  17.240  0.00  0.00    +0.000 A 
ATOM     19  C   UNL     1      -2.809   9.908  18.461  0.00  0.00    +0.000 A 
ENDBRANCH   6  14
BRANCH   1  22
ATOM     20  C   UNL     1      -5.549  13.733  19.779  0.00  0.00    +0.000 C 
ATOM     21  O   UNL     1      -6.404  13.528  18.917  0.00  0.00    +0.000 OA
ATOM     22  N   UNL     1      -4.329  13.089  19.684  0.00  0.00    +0.000 N 
ATOM     23  H   UNL     1      -4.198  12.459  18.897  0.00  0.00    +0.000 HD
BRANCH  20  24
ATOM     24  C   UNL     1      -5.703  14.703  20.948  0.00  0.00    +0.000 C 
BRANCH  24  25
ATOM     25  S   UNL     1      -7.423  14.770  21.552  0.00  0.00    +0.000 S 
BRANCH  25  31
ATOM     26  C   UNL     1      -7.917  11.535  21.355  0.00  0.00    +0.000 C 
ATOM     27  N   UNL     1      -7.601  12.236  22.568  0.00  0.00    +0.000 N 
ATOM     28  N   UNL     1      -7.481  11.567  23.728  0.00  0.00    +0.000 NA
ATOM     29  N   UNL     1      -7.196  12.494  24.635  0.00  0.00    +0.000 NA
ATOM     30  N   UNL     1      -7.134  13.743  24.063  0.00  0.00    +0.000 NA
ATOM     31  C   UNL     1      -7.378  13.565  22.785  0.00  0.00    +0.000 A 
ENDBRANCH  25  31
ENDBRANCH  24  25
ENDBRANCH  20  24
ENDBRANCH   1  22
TORSDOF 6
ENDMDL
MODEL 2
REMARK VINA RESULT:      -6.8      5.490      9.147
REMARK  Name = 
REMARK  7 active torsions:
REMARK  status: ('A' for Active; 'I' for Inactive)
REMARK    1  A    between atoms: C_1  and  N_2
REMARK    2  A    between atoms: C_6  and  S_7
REMARK    3  A    between atoms: S_7  and  C_8
REMARK    4  A    between atoms: C_8  and  C_9
REMARK    5  A    between atoms: N_11  and  N_12
REMARK    6  A    between atoms: C_16  and  C_17
REMARK    7  A    between atoms: N_24  and  C_25
REMARK                            x       y       z     vdW  Elec       q    Type
REMARK                         _______ _______ _______ _____ _____    ______ ____
ROOT
ATOM      1  N   UNL     1       0.991   8.737  20.464  0.00  0.00    +0.000 NA
ATOM      2  C   UNL     1       0.297   9.547  21.196  0.00  0.00    +0.000 A 
ATOM      3  S   UNL     1      -0.099   8.821  22.811  0.00  0.00    +0.000 S 
ATOM      4  C   UNL     1      -0.885  10.275  23.323  0.00  0.00    +0.000 A 
ATOM      5  C   UNL     1      -0.887  11.208  22.362  0.00  0.00    +0.000 A 
ATOM      6  N   UNL     1      -0.252  10.851  21.142  0.00  0.00    +0.000 N 
ENDROOT
BRANCH   5   7
ATOM      7  C   UNL     1      -1.608  12.464  22.610  0.00  0.00    +0.000 A 
ATOM      8  C   UNL     1      -2.960  12.587  22.251  0.00  0.00    +0.000 A 
ATOM      9  C   UNL     1      -3.675  13.741  22.581  0.00  0.00    +0.000 A 
ATOM     10  C   UNL     1      -3.023  14.798  23.211  0.00  0.00    +0.000 A 
ATOM     11 CL   UNL     1      -3.910  16.207  23.648  0.00  0.00    +0.000 Cl
ATOM     12  C   UNL     1      -1.664  14.717  23.511  0.00  0.00    +0.000 A 
ATOM     13  C   UNL     1      -0.955  13.548  23.211  0.00  0.00    +0.000 A 
ENDBRANCH   5   7
BRANCH   6  14
ATOM     14  C   UNL     1      -0.273  11.662  19.959  0.00  0.00    +0.000 A 
ATOM     15  C   UNL     1      -1.272  11.531  18.972  0.00  0.00    +0.000 A 
ATOM     16  C   UNL     1      -1.325  12.352  17.840  0.00  0.00    +0.000 A 
ATOM     17  C   UNL     1      -0.420  13.393  17.701  0.00  0.00    +0.000 A 
ATOM     18  C   UNL     1       0.583  13.552  18.648  0.00  0.00    +0.000 A 
ATOM     19  C   UNL     1       0.691  12.654  19.720  0.00  0.00    +0.000 A 
ENDBRANCH   6  14
BRANCH   1  22
ATOM     20  C   UNL     1       2.270   8.285  18.492  0.00  0.00    +0.000 C 
ATOM     21  O   UNL     1       2.615   8.663  17.373  0.00  0.00    +0.000 OA
ATOM     22  N   UNL     1       1.551   9.145  19.302  0.00  0.00    +0.000 N 
ATOM     23  H   UNL     1       1.346  10.068  18.930  0.00  0.00    +0.000 HD
BRANCH  20  24
ATOM     24  C   UNL     1       2.530   6.892  19.062  0.00  0.00    +0.000 C 
BRANCH  24  25
ATOM     25  S   UNL     1       3.377   5.814  17.859  0.00  0.00    +0.000 S 
BRANCH  25  31
ATOM     26  C   UNL     1       4.302   3.086  19.424  0.00  0.00    +0.000 C 
ATOM     27  N   UNL     1       3.030   3.261  18.782  0.00  0.00    +0.000 N 
ATOM     28  N   UNL     1       2.117   2.274  18.799  0.00  0.00    +0.000 NA
ATOM     29  N   UNL     1       1.078   2.751  18.124  0.00  0.00    +0.000 NA
ATOM     30  N   UNL     1       1.322   4.029  17.679  0.00  0.00    +0.000 NA
ATOM     31  C   UNL     1       2.528   4.332  18.100  0.00  0.00    +0.000 A 
ENDBRANCH  25  31
ENDBRANCH  24  25
ENDBRANCH  20  24
ENDBRANCH   1  22
TORSDOF 6
ENDMDL
MODEL 3
REMARK VINA RESULT:      -6.8      5.459      9.131
REMARK  Name = 
REMARK  7 active torsions:
REMARK  status: ('A' for Active; 'I' for Inactive)
REMARK    1  A    between atoms: C_1  and  N_2
REMARK    2  A    between atoms: C_6  and  S_7
REMARK    3  A    between atoms: S_7  and  C_8
REMARK    4  A    between atoms: C_8  and  C_9
REMARK    5  A    between atoms: N_11  and  N_12
REMARK    6  A    between atoms: C_16  and  C_17
REMARK    7  A    between atoms: N_24  and  C_25
REMARK                            x       y       z     vdW  Elec       q    Type
REMARK                         _______ _______ _______ _____ _____    ______ ____
ROOT
ATOM      1  N   UNL     1       0.891   8.783  20.452  0.00  0.00    +0.000 NA
ATOM      2  C   UNL     1       0.219   9.562  21.238  0.00  0.00    +0.000 A 
ATOM      3  S   UNL     1      -0.103   8.781  22.844  0.00  0.00    +0.000 S 
ATOM      4  C   UNL     1      -0.881  10.208  23.433  0.00  0.00    +0.000 A 
ATOM      5  C   UNL     1      -0.933  11.171  22.504  0.00  0.00    +0.000 A 
ATOM      6  N   UNL     1      -0.345  10.860  21.248  0.00  0.00    +0.000 N 
ENDROOT
BRANCH   5   7
ATOM      7  C   UNL     1      -1.655  12.410  22.822  0.00  0.00    +0.000 A 
ATOM      8  C   UNL     1      -0.948  13.600  23.061  0.00  0.00    +0.000 A 
ATOM      9  C   UNL     1      -1.635  14.801  23.259  0.00  0.00    +0.000 A 
ATOM     10  C   UNL     1      -3.028  14.801  23.285  0.00  0.00    +0.000 A 
ATOM     11 CL   UNL     1      -3.875  16.284  23.496  0.00  0.00    +0.000 Cl
ATOM     12  C   UNL     1      -3.741  13.615  23.118  0.00  0.00    +0.000 A 
ATOM     13  C   UNL     1      -3.054  12.418  22.886  0.00  0.00    +0.000 A 
ENDBRANCH   5   7
BRANCH   6  14
ATOM     14  C   UNL     1      -0.422  11.708  20.094  0.00  0.00    +0.000 A 
ATOM     15  C   UNL     1       0.555  12.685  19.809  0.00  0.00    +0.000 A 
ATOM     16  C   UNL     1       0.511  13.482  18.660  0.00  0.00    +0.000 A 
ATOM     17  C   UNL     1      -0.475  13.267  17.709  0.00  0.00    +0.000 A 
ATOM     18  C   UNL     1      -1.460  12.319  17.955  0.00  0.00    +0.000 A 
ATOM     19  C   UNL     1      -1.466  11.604  19.162  0.00  0.00    +0.000 A 
ENDBRANCH   6  14
BRANCH   1  22
ATOM     20  C   UNL     1       2.144   8.424  18.445  0.00  0.00    +0.000 C 
ATOM     21  O   UNL     1       2.439   8.832  17.322  0.00  0.00    +0.000 OA
ATOM     22  N   UNL     1       1.398   9.234  19.283  0.00  0.00    +0.000 N 
ATOM     23  H   UNL     1       1.132  10.148  18.926  0.00  0.00    +0.000 HD
BRANCH  20  24
ATOM     24  C   UNL     1       2.494   7.042  18.991  0.00  0.00    +0.000 C 
BRANCH  24  25
ATOM     25  S   UNL     1       3.401   6.038  17.768  0.00  0.00    +0.000 S 
BRANCH  25  31
ATOM     26  C   UNL     1       4.481   3.372  19.340  0.00  0.00    +0.000 C 
ATOM     27  N   UNL     1       3.211   3.464  18.676  0.00  0.00    +0.000 N 
ATOM     28  N   UNL     1       2.367   2.418  18.675  0.00  0.00    +0.000 NA
ATOM     29  N   UNL     1       1.309   2.827  17.984  0.00  0.00    +0.000 NA
ATOM     30  N   UNL     1       1.474   4.120  17.547  0.00  0.00    +0.000 NA
ATOM     31  C   UNL     1       2.649   4.502  17.990  0.00  0.00    +0.000 A 
ENDBRANCH  25  31
ENDBRANCH  24  25
ENDBRANCH  20  24
ENDBRANCH   1  22
TORSDOF 6
ENDMDL
MODEL 4
REMARK VINA RESULT:      -6.7      5.703      9.676
REMARK  Name = 
REMARK  7 active torsions:
REMARK  status: ('A' for Active; 'I' for Inactive)
REMARK    1  A    between atoms: C_1  and  N_2
REMARK    2  A    between atoms: C_6  and  S_7
REMARK    3  A    between atoms: S_7  and  C_8
REMARK    4  A    between atoms: C_8  and  C_9
REMARK    5  A    between atoms: N_11  and  N_12
REMARK    6  A    between atoms: C_16  and  C_17
REMARK    7  A    between atoms: N_24  and  C_25
REMARK                            x       y       z     vdW  Elec       q    Type
REMARK                         _______ _______ _______ _____ _____    ______ ____
ROOT
ATOM      1  N   UNL     1       0.913   8.620  20.373  0.00  0.00    +0.000 NA
ATOM      2  C   UNL     1       0.270   9.437  21.145  0.00  0.00    +0.000 A 
ATOM      3  S   UNL     1      -0.132   8.674  22.742  0.00  0.00    +0.000 S 
ATOM      4  C   UNL     1      -0.840  10.144  23.317  0.00  0.00    +0.000 A 
ATOM      5  C   UNL     1      -0.813  11.109  22.388  0.00  0.00    +0.000 A 
ATOM      6  N   UNL     1      -0.217  10.766  21.146  0.00  0.00    +0.000 N 
ENDROOT
BRANCH   5   7
ATOM      7  C   UNL     1      -1.469  12.388  22.693  0.00  0.00    +0.000 A 
ATOM      8  C   UNL     1      -0.703  13.554  22.860  0.00  0.00    +0.000 A 
ATOM      9  C   UNL     1      -1.331  14.789  23.045  0.00  0.00    +0.000 A 
ATOM     10  C   UNL     1      -2.720  14.850  23.129  0.00  0.00    +0.000 A 
ATOM     11 CL   UNL     1      -3.495  16.374  23.324  0.00  0.00    +0.000 Cl
ATOM     12  C   UNL     1      -3.488  13.691  23.034  0.00  0.00    +0.000 A 
ATOM     13  C   UNL     1      -2.863  12.458  22.816  0.00  0.00    +0.000 A 
ENDBRANCH   5   7
BRANCH   6  14
ATOM     14  C   UNL     1      -0.219  11.618  19.992  0.00  0.00    +0.000 A 
ATOM     15  C   UNL     1      -1.256  11.590  19.036  0.00  0.00    +0.000 A 
ATOM     16  C   UNL     1      -1.288  12.452  17.934  0.00  0.00    +0.000 A 
ATOM     17  C   UNL     1      -0.318  13.434  17.799  0.00  0.00    +0.000 A 
ATOM     18  C   UNL     1       0.724  13.490  18.715  0.00  0.00    +0.000 A 
ATOM     19  C   UNL     1       0.803  12.549  19.753  0.00  0.00    +0.000 A 
ENDBRANCH   6  14
BRANCH   1  22
ATOM     20  C   UNL     1       2.294   8.227  18.459  0.00  0.00    +0.000 C 
ATOM     21  O   UNL     1       2.640   8.600  17.338  0.00  0.00    +0.000 OA
ATOM     22  N   UNL     1       1.472   9.042  19.216  0.00  0.00    +0.000 N 
ATOM     23  H   UNL     1       1.195   9.930  18.806  0.00  0.00    +0.000 HD
BRANCH  20  24
ATOM     24  C   UNL     1       2.660   6.883  19.083  0.00  0.00    +0.000 C 
BRANCH  24  25
ATOM     25  S   UNL     1       3.191   5.672  17.826  0.00  0.00    +0.000 S 
BRANCH  25  31
ATOM     26  C   UNL     1       5.686   4.199  16.293  0.00  0.00    +0.000 C 
ATOM     27  N   UNL     1       5.728   4.663  17.651  0.00  0.00    +0.000 N 
ATOM     28  N   UNL     1       6.843   4.514  18.387  0.00  0.00    +0.000 NA
ATOM     29  N   UNL     1       6.549   5.034  19.572  0.00  0.00    +0.000 NA
ATOM     30  N   UNL     1       5.259   5.511  19.597  0.00  0.00    +0.000 NA
ATOM     31  C   UNL     1       4.769   5.281  18.401  0.00  0.00    +0.000 A 
ENDBRANCH  25  31
ENDBRANCH  24  25
ENDBRANCH  20  24
ENDBRANCH   1  22
TORSDOF 6
ENDMDL
MODEL 5
REMARK VINA RESULT:      -6.7      5.618      9.273
REMARK  Name = 
REMARK  7 active torsions:
REMARK  status: ('A' for Active; 'I' for Inactive)
REMARK    1  A    between atoms: C_1  and  N_2
REMARK    2  A    between atoms: C_6  and  S_7
REMARK    3  A    between atoms: S_7  and  C_8
REMARK    4  A    between atoms: C_8  and  C_9
REMARK    5  A    between atoms: N_11  and  N_12
REMARK    6  A    between atoms: C_16  and  C_17
REMARK    7  A    between atoms: N_24  and  C_25
REMARK                            x       y       z     vdW  Elec       q    Type
REMARK                         _______ _______ _______ _____ _____    ______ ____
ROOT
ATOM      1  N   UNL     1       0.988   8.716  20.311  0.00  0.00    +0.000 NA
ATOM      2  C   UNL     1       0.330   9.463  21.138  0.00  0.00    +0.000 A 
ATOM      3  S   UNL     1       0.098   8.647  22.742  0.00  0.00    +0.000 S 
ATOM      4  C   UNL     1      -0.691  10.043  23.390  0.00  0.00    +0.000 A 
ATOM      5  C   UNL     1      -0.807  11.020  22.480  0.00  0.00    +0.000 A 
ATOM      6  N   UNL     1      -0.266  10.746  21.196  0.00  0.00    +0.000 N 
ENDROOT
BRANCH   5   7
ATOM      7  C   UNL     1      -1.547  12.234  22.851  0.00  0.00    +0.000 A 
ATOM      8  C   UNL     1      -2.946  12.201  22.969  0.00  0.00    +0.000 A 
ATOM      9  C   UNL     1      -3.642  13.324  23.423  0.00  0.00    +0.000 A 
ATOM     10  C   UNL     1      -2.947  14.500  23.695  0.00  0.00    +0.000 A 
ATOM     11 CL   UNL     1      -3.799  15.875  24.286  0.00  0.00    +0.000 Cl
ATOM     12  C   UNL     1      -1.567  14.567  23.516  0.00  0.00    +0.000 A 
ATOM     13  C   UNL     1      -0.865  13.432  23.093  0.00  0.00    +0.000 A 
ENDBRANCH   5   7
BRANCH   6  14
ATOM     14  C   UNL     1      -0.414  11.611  20.061  0.00  0.00    +0.000 A 
ATOM     15  C   UNL     1       0.518  12.627  19.761  0.00  0.00    +0.000 A 
ATOM     16  C   UNL     1       0.404  13.442  18.629  0.00  0.00    +0.000 A 
ATOM     17  C   UNL     1      -0.607  13.209  17.710  0.00  0.00    +0.000 A 
ATOM     18  C   UNL     1      -1.549  12.222  17.973  0.00  0.00    +0.000 A 
ATOM     19  C   UNL     1      -1.486  11.486  19.165  0.00  0.00    +0.000 A 
ENDBRANCH   6  14
BRANCH   1  22
ATOM     20  C   UNL     1       2.246   8.458  18.291  0.00  0.00    +0.000 C 
ATOM     21  O   UNL     1       2.485   8.879  17.160  0.00  0.00    +0.000 OA
ATOM     22  N   UNL     1       1.433   9.200  19.129  0.00  0.00    +0.000 N 
ATOM     23  H   UNL     1       1.073  10.078  18.766  0.00  0.00    +0.000 HD
BRANCH  20  24
ATOM     24  C   UNL     1       2.739   7.125  18.849  0.00  0.00    +0.000 C 
BRANCH  24  25
ATOM     25  S   UNL     1       3.902   6.301  17.709  0.00  0.00    +0.000 S 
BRANCH  25  31
ATOM     26  C   UNL     1       1.857   3.744  17.862  0.00  0.00    +0.000 C 
ATOM     27  N   UNL     1       3.154   3.783  18.476  0.00  0.00    +0.000 N 
ATOM     28  N   UNL     1       3.613   2.724  19.165  0.00  0.00    +0.000 NA
ATOM     29  N   UNL     1       4.816   3.085  19.596  0.00  0.00    +0.000 NA
ATOM     30  N   UNL     1       5.124   4.362  19.188  0.00  0.00    +0.000 NA
ATOM     31  C   UNL     1       4.092   4.775  18.491  0.00  0.00    +0.000 A 
ENDBRANCH  25  31
ENDBRANCH  24  25
ENDBRANCH  20  24
ENDBRANCH   1  22
TORSDOF 6
ENDMDL
MODEL 6
REMARK VINA RESULT:      -6.7      6.541     10.161
REMARK  Name = 
REMARK  7 active torsions:
REMARK  status: ('A' for Active; 'I' for Inactive)
REMARK    1  A    between atoms: C_1  and  N_2
REMARK    2  A    between atoms: C_6  and  S_7
REMARK    3  A    between atoms: S_7  and  C_8
REMARK    4  A    between atoms: C_8  and  C_9
REMARK    5  A    between atoms: N_11  and  N_12
REMARK    6  A    between atoms: C_16  and  C_17
REMARK    7  A    between atoms: N_24  and  C_25
REMARK                            x       y       z     vdW  Elec       q    Type
REMARK                         _______ _______ _______ _____ _____    ______ ____
ROOT
ATOM      1  N   UNL     1       2.731   6.418  19.513  0.00  0.00    +0.000 NA
ATOM      2  C   UNL     1       2.357   7.597  19.134  0.00  0.00    +0.000 A 
ATOM      3  S   UNL     1       2.967   7.994  17.472  0.00  0.00    +0.000 S 
ATOM      4  C   UNL     1       2.143   9.515  17.482  0.00  0.00    +0.000 A 
ATOM      5  C   UNL     1       1.500   9.728  18.638  0.00  0.00    +0.000 A 
ATOM      6  N   UNL     1       1.597   8.694  19.607  0.00  0.00    +0.000 N 
ENDROOT
BRANCH   5   7
ATOM      7  C   UNL     1       0.836  11.023  18.838  0.00  0.00    +0.000 A 
ATOM      8  C   UNL     1      -0.529  11.171  18.544  0.00  0.00    +0.000 A 
ATOM      9  C   UNL     1      -1.186  12.370  18.833  0.00  0.00    +0.000 A 
ATOM     10  C   UNL     1      -0.465  13.443  19.353  0.00  0.00    +0.000 A 
ATOM     11 CL   UNL     1      -1.280  14.909  19.739  0.00  0.00    +0.000 Cl
ATOM     12  C   UNL     1       0.905  13.331  19.584  0.00  0.00    +0.000 A 
ATOM     13  C   UNL     1       1.557  12.120  19.327  0.00  0.00    +0.000 A 
ENDBRANCH   5   7
BRANCH   6  14
ATOM     14  C   UNL     1       1.092   8.799  20.946  0.00  0.00    +0.000 A 
ATOM     15  C   UNL     1       1.919   9.133  22.039  0.00  0.00    +0.000 A 
ATOM     16  C   UNL     1       1.424   9.284  23.339  0.00  0.00    +0.000 A 
ATOM     17  C   UNL     1       0.061   9.188  23.573  0.00  0.00    +0.000 A 
ATOM     18  C   UNL     1      -0.786   8.854  22.524  0.00  0.00    +0.000 A 
ATOM     19  C   UNL     1      -0.263   8.597  21.249  0.00  0.00    +0.000 A 
ENDBRANCH   6  14
BRANCH   1  22
ATOM     20  C   UNL     1       2.144   4.478  20.786  0.00  0.00    +0.000 C 
ATOM     21  O   UNL     1       1.840   4.014  21.885  0.00  0.00    +0.000 OA
ATOM     22  N   UNL     1       2.233   5.850  20.634  0.00  0.00    +0.000 N 
ATOM     23  H   UNL     1       2.030   6.419  21.451  0.00  0.00    +0.000 HD
BRANCH  20  24
ATOM     24  C   UNL     1       2.493   3.647  19.553  0.00  0.00    +0.000 C 
BRANCH  24  25
ATOM     25  S   UNL     1       4.146   2.886  19.694  0.00  0.00    +0.000 S 
BRANCH  25  31
ATOM     26  C   UNL     1       4.425   3.965  16.611  0.00  0.00    +0.000 C 
ATOM     27  N   UNL     1       5.155   4.498  17.726  0.00  0.00    +0.000 N 
ATOM     28  N   UNL     1       6.019   5.513  17.551  0.00  0.00    +0.000 NA
ATOM     29  N   UNL     1       6.517   5.755  18.758  0.00  0.00    +0.000 NA
ATOM     30  N   UNL     1       5.980   4.905  19.695  0.00  0.00    +0.000 NA
ATOM     31  C   UNL     1       5.134   4.141  19.044  0.00  0.00    +0.000 A 
ENDBRANCH  25  31
ENDBRANCH  24  25
ENDBRANCH  20  24
ENDBRANCH   1  22
TORSDOF 6
ENDMDL
MODEL 7
REMARK VINA RESULT:      -6.6      5.666      9.584
REMARK  Name = 
REMARK  7 active torsions:
REMARK  status: ('A' for Active; 'I' for Inactive)
REMARK    1  A    between atoms: C_1  and  N_2
REMARK    2  A    between atoms: C_6  and  S_7
REMARK    3  A    between atoms: S_7  and  C_8
REMARK    4  A    between atoms: C_8  and  C_9
REMARK    5  A    between atoms: N_11  and  N_12
REMARK    6  A    between atoms: C_16  and  C_17
REMARK    7  A    between atoms: N_24  and  C_25
REMARK                            x       y       z     vdW  Elec       q    Type
REMARK                         _______ _______ _______ _____ _____    ______ ____
ROOT
ATOM      1  N   UNL     1       0.932   8.737  20.515  0.00  0.00    +0.000 NA
ATOM      2  C   UNL     1       0.268   9.550  21.273  0.00  0.00    +0.000 A 
ATOM      3  S   UNL     1       0.026   8.869  22.937  0.00  0.00    +0.000 S 
ATOM      4  C   UNL     1      -0.770  10.313  23.462  0.00  0.00    +0.000 A 
ATOM      5  C   UNL     1      -0.881  11.211  22.474  0.00  0.00    +0.000 A 
ATOM      6  N   UNL     1      -0.330  10.832  21.220  0.00  0.00    +0.000 N 
ENDROOT
BRANCH   5   7
ATOM      7  C   UNL     1      -1.625  12.450  22.737  0.00  0.00    +0.000 A 
ATOM      8  C   UNL     1      -3.018  12.489  22.561  0.00  0.00    +0.000 A 
ATOM      9  C   UNL     1      -3.740  13.633  22.911  0.00  0.00    +0.000 A 
ATOM     10  C   UNL     1      -3.064  14.760  23.374  0.00  0.00    +0.000 A 
ATOM     11 CL   UNL     1      -3.955  16.157  23.836  0.00  0.00    +0.000 Cl
ATOM     12  C   UNL     1      -1.674  14.757  23.487  0.00  0.00    +0.000 A 
ATOM     13  C   UNL     1      -0.953  13.601  23.169  0.00  0.00    +0.000 A 
ENDBRANCH   5   7
BRANCH   6  14
ATOM     14  C   UNL     1      -0.472  11.599  20.016  0.00  0.00    +0.000 A 
ATOM     15  C   UNL     1       0.451  12.601  19.648  0.00  0.00    +0.000 A 
ATOM     16  C   UNL     1       0.346  13.320  18.452  0.00  0.00    +0.000 A 
ATOM     17  C   UNL     1      -0.647  12.997  17.540  0.00  0.00    +0.000 A 
ATOM     18  C   UNL     1      -1.580  12.022  17.868  0.00  0.00    +0.000 A 
ATOM     19  C   UNL     1      -1.527  11.387  19.117  0.00  0.00    +0.000 A 
ENDBRANCH   6  14
BRANCH   1  22
ATOM     20  C   UNL     1       2.151   8.289  18.505  0.00  0.00    +0.000 C 
ATOM     21  O   UNL     1       2.395   8.625  17.346  0.00  0.00    +0.000 OA
ATOM     22  N   UNL     1       1.385   9.122  19.301  0.00  0.00    +0.000 N 
ATOM     23  H   UNL     1       1.063   9.992  18.884  0.00  0.00    +0.000 HD
BRANCH  20  24
ATOM     24  C   UNL     1       2.587   6.972  19.143  0.00  0.00    +0.000 C 
BRANCH  24  25
ATOM     25  S   UNL     1       3.063   5.736  17.889  0.00  0.00    +0.000 S 
BRANCH  25  31
ATOM     26  C   UNL     1       5.483   4.164  16.334  0.00  0.00    +0.000 C 
ATOM     27  N   UNL     1       5.567   4.652  17.681  0.00  0.00    +0.000 N 
ATOM     28  N   UNL     1       6.693   4.487  18.396  0.00  0.00    +0.000 NA
ATOM     29  N   UNL     1       6.439   5.038  19.577  0.00  0.00    +0.000 NA
ATOM     30  N   UNL     1       5.164   5.550  19.619  0.00  0.00    +0.000 NA
ATOM     31  C   UNL     1       4.642   5.312  18.438  0.00  0.00    +0.000 A 
ENDBRANCH  25  31
ENDBRANCH  24  25
ENDBRANCH  20  24
ENDBRANCH   1  22
TORSDOF 6
ENDMDL
MODEL 8
REMARK VINA RESULT:      -6.6      5.616      9.418
REMARK  Name = 
REMARK  7 active torsions:
REMARK  status: ('A' for Active; 'I' for Inactive)
REMARK    1  A    between atoms: C_1  and  N_2
REMARK    2  A    between atoms: C_6  and  S_7
REMARK    3  A    between atoms: S_7  and  C_8
REMARK    4  A    between atoms: C_8  and  C_9
REMARK    5  A    between atoms: N_11  and  N_12
REMARK    6  A    between atoms: C_16  and  C_17
REMARK    7  A    between atoms: N_24  and  C_25
REMARK                            x       y       z     vdW  Elec       q    Type
REMARK                         _______ _______ _______ _____ _____    ______ ____
ROOT
ATOM      1  N   UNL     1       0.904   8.844  20.327  0.00  0.00    +0.000 NA
ATOM      2  C   UNL     1       0.244   9.565  21.176  0.00  0.00    +0.000 A 
ATOM      3  S   UNL     1      -0.046   8.675  22.730  0.00  0.00    +0.000 S 
ATOM      4  C   UNL     1      -0.819  10.056  23.430  0.00  0.00    +0.000 A 
ATOM      5  C   UNL     1      -0.890  11.080  22.568  0.00  0.00    +0.000 A 
ATOM      6  N   UNL     1      -0.324  10.857  21.285  0.00  0.00    +0.000 N 
ENDROOT
BRANCH   5   7
ATOM      7  C   UNL     1      -1.610  12.291  22.983  0.00  0.00    +0.000 A 
ATOM      8  C   UNL     1      -3.001  12.254  23.181  0.00  0.00    +0.000 A 
ATOM      9  C   UNL     1      -3.672  13.375  23.676  0.00  0.00    +0.000 A 
ATOM     10  C   UNL     1      -2.966  14.553  23.910  0.00  0.00    +0.000 A 
ATOM     11 CL   UNL     1      -3.785  15.924  24.550  0.00  0.00    +0.000 Cl
ATOM     12  C   UNL     1      -1.598  14.624  23.651  0.00  0.00    +0.000 A 
ATOM     13  C   UNL     1      -0.919  13.491  23.188  0.00  0.00    +0.000 A 
ENDBRANCH   5   7
BRANCH   6  14
ATOM     14  C   UNL     1      -0.425  11.781  20.192  0.00  0.00    +0.000 A 
ATOM     15  C   UNL     1       0.522  12.806  19.982  0.00  0.00    +0.000 A 
ATOM     16  C   UNL     1       0.456  13.680  18.890  0.00  0.00    +0.000 A 
ATOM     17  C   UNL     1      -0.520  13.501  17.923  0.00  0.00    +0.000 A 
ATOM     18  C   UNL     1      -1.475  12.508  18.096  0.00  0.00    +0.000 A 
ATOM     19  C   UNL     1      -1.462  11.710  19.250  0.00  0.00    +0.000 A 
ENDBRANCH   6  14
BRANCH   1  22
ATOM     20  C   UNL     1       2.199   8.655  18.324  0.00  0.00    +0.000 C 
ATOM     21  O   UNL     1       2.475   9.127  17.221  0.00  0.00    +0.000 OA
ATOM     22  N   UNL     1       1.389   9.376  19.182  0.00  0.00    +0.000 N 
ATOM     23  H   UNL     1       1.061  10.281  18.858  0.00  0.00    +0.000 HD
BRANCH  20  24
ATOM     24  C   UNL     1       2.644   7.281  18.821  0.00  0.00    +0.000 C 
BRANCH  24  25
ATOM     25  S   UNL     1       3.750   6.453  17.630  0.00  0.00    +0.000 S 
BRANCH  25  31
ATOM     26  C   UNL     1       6.334   5.304  19.289  0.00  0.00    +0.000 C 
ATOM     27  N   UNL     1       5.116   4.575  19.076  0.00  0.00    +0.000 N 
ATOM     28  N   UNL     1       4.970   3.335  19.576  0.00  0.00    +0.000 NA
ATOM     29  N   UNL     1       3.756   2.951  19.201  0.00  0.00    +0.000 NA
ATOM     30  N   UNL     1       3.130   3.933  18.470  0.00  0.00    +0.000 NA
ATOM     31  C   UNL     1       3.980   4.932  18.409  0.00  0.00    +0.000 A 
ENDBRANCH  25  31
ENDBRANCH  24  25
ENDBRANCH  20  24
ENDBRANCH   1  22
TORSDOF 6
ENDMDL
MODEL 9
REMARK VINA RESULT:      -6.6      5.616      9.183
REMARK  Name = 
REMARK  7 active torsions:
REMARK  status: ('A' for Active; 'I' for Inactive)
REMARK    1  A    between atoms: C_1  and  N_2
REMARK    2  A    between atoms: C_6  and  S_7
REMARK    3  A    between atoms: S_7  and  C_8
REMARK    4  A    between atoms: C_8  and  C_9
REMARK    5  A    between atoms: N_11  and  N_12
REMARK    6  A    between atoms: C_16  and  C_17
REMARK    7  A    between atoms: N_24  and  C_25
REMARK                            x       y       z     vdW  Elec       q    Type
REMARK                         _______ _______ _______ _____ _____    ______ ____
ROOT
ATOM      1  N   UNL     1       0.945   8.686  20.530  0.00  0.00    +0.000 NA
ATOM      2  C   UNL     1       0.270   9.519  21.256  0.00  0.00    +0.000 A 
ATOM      3  S   UNL     1      -0.056   8.854  22.913  0.00  0.00    +0.000 S 
ATOM      4  C   UNL     1      -0.838  10.319  23.396  0.00  0.00    +0.000 A 
ATOM      5  C   UNL     1      -0.887  11.213  22.400  0.00  0.00    +0.000 A 
ATOM      6  N   UNL     1      -0.295  10.814  21.172  0.00  0.00    +0.000 N 
ENDROOT
BRANCH   5   7
ATOM      7  C   UNL     1      -1.612  12.471  22.626  0.00  0.00    +0.000 A 
ATOM      8  C   UNL     1      -2.978  12.567  22.314  0.00  0.00    +0.000 A 
ATOM      9  C   UNL     1      -3.692  13.726  22.625  0.00  0.00    +0.000 A 
ATOM     10  C   UNL     1      -3.029  14.814  23.188  0.00  0.00    +0.000 A 
ATOM     11 CL   UNL     1      -3.915  16.230  23.603  0.00  0.00    +0.000 Cl
ATOM     12  C   UNL     1      -1.659  14.757  23.440  0.00  0.00    +0.000 A 
ATOM     13  C   UNL     1      -0.949  13.584  23.159  0.00  0.00    +0.000 A 
ENDBRANCH   5   7
BRANCH   6  14
ATOM     14  C   UNL     1      -0.369  11.577  19.959  0.00  0.00    +0.000 A 
ATOM     15  C   UNL     1      -1.403  11.396  19.017  0.00  0.00    +0.000 A 
ATOM     16  C   UNL     1      -1.508  12.171  17.856  0.00  0.00    +0.000 A 
ATOM     17  C   UNL     1      -0.622  13.215  17.642  0.00  0.00    +0.000 A 
ATOM     18  C   UNL     1       0.414  13.422  18.544  0.00  0.00    +0.000 A 
ATOM     19  C   UNL     1       0.572  12.569  19.645  0.00  0.00    +0.000 A 
ENDBRANCH   6  14
BRANCH   1  22
ATOM     20  C   UNL     1       2.224   8.194  18.569  0.00  0.00    +0.000 C 
ATOM     21  O   UNL     1       2.524   8.518  17.420  0.00  0.00    +0.000 OA
ATOM     22  N   UNL     1       1.456   9.053  19.333  0.00  0.00    +0.000 N 
ATOM     23  H   UNL     1       1.178   9.931  18.904  0.00  0.00    +0.000 HD
BRANCH  20  24
ATOM     24  C   UNL     1       2.593   6.866  19.225  0.00  0.00    +0.000 C 
BRANCH  24  25
ATOM     25  S   UNL     1       2.528   5.481  18.039  0.00  0.00    +0.000 S 
BRANCH  25  31
ATOM     26  C   UNL     1       1.319   3.428  20.292  0.00  0.00    +0.000 C 
ATOM     27  N   UNL     1       2.689   3.446  19.862  0.00  0.00    +0.000 N 
ATOM     28  N   UNL     1       3.576   2.580  20.381  0.00  0.00    +0.000 NA
ATOM     29  N   UNL     1       4.728   2.863  19.784  0.00  0.00    +0.000 NA
ATOM     30  N   UNL     1       4.580   3.900  18.892  0.00  0.00    +0.000 NA
ATOM     31  C   UNL     1       3.314   4.243  18.946  0.00  0.00    +0.000 A 
ENDBRANCH  25  31
ENDBRANCH  24  25
ENDBRANCH  20  24
ENDBRANCH   1  22
TORSDOF 6
ENDMDL
