MODEL 1
REMARK VINA RESULT:      -8.6      0.000      0.000
REMARK  Name = 
REMARK  7 active torsions:
REMARK  status: ('A' for Active; 'I' for Inactive)
REMARK    1  A    between atoms: C_1  and  C_2
REMARK    2  A    between atoms: C_2  and  C_3
REMARK    3  A    between atoms: C_3  and  C_4
REMARK    4  A    between atoms: C_4  and  C_5
REMARK    5  A    between atoms: C_11  and  S_12
REMARK    6  A    between atoms: S_12  and  N_15
REMARK    7  A    between atoms: N_15  and  C_16
REMARK                            x       y       z     vdW  Elec       q    Type
REMARK                         _______ _______ _______ _____ _____    ______ ____
ROOT
ATOM      1  C   UNL     1       4.923   5.237  17.915  0.00  0.00    +0.000 C 
ATOM      2  C   UNL     1       4.223   4.054  17.213  0.00  0.00    +0.000 C 
ATOM      3  N   UNL     1       4.462   5.315  19.301  0.00  0.00    +0.000 N 
ATOM      4  C   UNL     1       3.154   5.501  19.615  0.00  0.00    +0.000 C 
ATOM      5  O   UNL     1       2.539   4.670  20.276  0.00  0.00    +0.000 OA
ATOM      6  C   UNL     1       2.584   6.824  19.347  0.00  0.00    +0.000 A 
ATOM      7  C   UNL     1       1.888   7.381  20.434  0.00  0.00    +0.000 A 
ATOM      8  C   UNL     1       1.318   8.648  20.330  0.00  0.00    +0.000 A 
ATOM      9  C   UNL     1       1.376   9.344  19.127  0.00  0.00    +0.000 A 
ATOM     10  C   UNL     1       2.048   8.770  18.039  0.00  0.00    +0.000 A 
ATOM     11  C   UNL     1       2.720   7.538  18.156  0.00  0.00    +0.000 A 
ATOM     12  N   UNL     1       3.539   7.213  17.064  0.00  0.00    +0.000 N 
ATOM     13  C   UNL     1       4.672   6.459  17.001  0.00  0.00    +0.000 C 
ATOM     14  O   UNL     1       5.399   6.680  16.022  0.00  0.00    +0.000 OA
ATOM     15  H   UNL     1       4.776   4.507  19.827  0.00  0.00    +0.000 HD
ATOM     16  H   UNL     1       3.524   7.863  16.284  0.00  0.00    +0.000 HD
ENDROOT
BRANCH   8  17
ATOM     17  S   UNL     1       0.652   9.420  21.787  0.00  0.00    +0.000 S 
ATOM     18  O   UNL     1      -0.644   8.833  22.049  0.00  0.00    +0.000 OA
ATOM     19  O   UNL     1       1.699   9.401  22.787  0.00  0.00    +0.000 OA
BRANCH  17  20
ATOM     20  N   UNL     1       0.453  11.040  21.340  0.00  0.00    +0.000 N 
ATOM     21  H   UNL     1       0.825  11.196  20.406  0.00  0.00    +0.000 HD
BRANCH  20  22
ATOM     22  C   UNL     1      -0.811  11.644  21.610  0.00  0.00    +0.000 A 
ATOM     23  C   UNL     1      -1.223  11.855  22.924  0.00  0.00    +0.000 A 
ATOM     24  C   UNL     1      -2.483  12.410  23.170  0.00  0.00    +0.000 A 
ATOM     25  C   UNL     1      -3.323  12.720  22.102  0.00  0.00    +0.000 A 
ATOM     26  F   UNL     1      -4.528  13.249  22.346  0.00  0.00    +0.000 F 
ATOM     27  C   UNL     1      -2.932  12.490  20.789  0.00  0.00    +0.000 A 
ATOM     28  C   UNL     1      -1.674  11.958  20.553  0.00  0.00    +0.000 A 
ATOM     29  F   UNL     1      -1.285  11.724  19.291  0.00  0.00    +0.000 F 
ENDBRANCH  20  22
ENDBRANCH  17  20
ENDBRANCH   8  17
BRANCH   1  30
ATOM     30  C   UNL     1       6.455   4.945  17.963  0.00  0.00    +0.000 C 
BRANCH  30  32
ATOM     31  C   UNL     1       7.967   6.909  18.465  0.00  0.00    +0.000 C 
ATOM     32  C   UNL     1       7.203   5.732  19.054  0.00  0.00    +0.000 C 
ENDBRANCH  30  32
ENDBRANCH   1  30
TORSDOF 5
ENDMDL
MODEL 2
REMARK VINA RESULT:      -8.4      3.758      8.895
REMARK  Name = 
REMARK  7 active torsions:
REMARK  status: ('A' for Active; 'I' for Inactive)
REMARK    1  A    between atoms: C_1  and  C_2
REMARK    2  A    between atoms: C_2  and  C_3
REMARK    3  A    between atoms: C_3  and  C_4
REMARK    4  A    between atoms: C_4  and  C_5
REMARK    5  A    between atoms: C_11  and  S_12
REMARK    6  A    between atoms: S_12  and  N_15
REMARK    7  A    between atoms: N_15  and  C_16
REMARK                            x       y       z     vdW  Elec       q    Type
REMARK                         _______ _______ _______ _____ _____    ______ ____
ROOT
ATOM      1  C   UNL     1      -0.759  11.850  20.717  0.00  0.00    +0.000 C 
ATOM      2  C   UNL     1       0.145  12.963  21.287  0.00  0.00    +0.000 C 
ATOM      3  N   UNL     1      -0.494  10.602  21.433  0.00  0.00    +0.000 N 
ATOM      4  C   UNL     1       0.735  10.025  21.443  0.00  0.00    +0.000 C 
ATOM      5  O   UNL     1       1.340   9.847  22.496  0.00  0.00    +0.000 OA
ATOM      6  C   UNL     1       1.195   9.411  20.195  0.00  0.00    +0.000 A 
ATOM      7  C   UNL     1       1.682   8.101  20.343  0.00  0.00    +0.000 A 
ATOM      8  C   UNL     1       2.127   7.385  19.235  0.00  0.00    +0.000 A 
ATOM      9  C   UNL     1       2.156   7.986  17.981  0.00  0.00    +0.000 A 
ATOM     10  C   UNL     1       1.696   9.303  17.845  0.00  0.00    +0.000 A 
ATOM     11  C   UNL     1       1.144  10.006  18.934  0.00  0.00    +0.000 A 
ATOM     12  N   UNL     1       0.513  11.211  18.592  0.00  0.00    +0.000 N 
ATOM     13  C   UNL     1      -0.518  11.871  19.190  0.00  0.00    +0.000 C 
ATOM     14  O   UNL     1      -1.129  12.665  18.461  0.00  0.00    +0.000 OA
ATOM     15  H   UNL     1      -0.791  10.676  22.400  0.00  0.00    +0.000 HD
ATOM     16  H   UNL     1       0.563  11.482  17.614  0.00  0.00    +0.000 HD
ENDROOT
BRANCH   8  17
ATOM     17  S   UNL     1       2.513   5.658  19.416  0.00  0.00    +0.000 S 
ATOM     18  O   UNL     1       2.175   5.267  20.768  0.00  0.00    +0.000 OA
ATOM     19  O   UNL     1       1.940   4.978  18.274  0.00  0.00    +0.000 OA
BRANCH  17  20
ATOM     20  N   UNL     1       4.192   5.589  19.217  0.00  0.00    +0.000 N 
ATOM     21  H   UNL     1       4.612   5.033  19.959  0.00  0.00    +0.000 HD
BRANCH  20  22
ATOM     22  C   UNL     1       4.686   5.337  17.902  0.00  0.00    +0.000 A 
ATOM     23  C   UNL     1       4.977   6.397  17.046  0.00  0.00    +0.000 A 
ATOM     24  C   UNL     1       5.422   6.130  15.747  0.00  0.00    +0.000 A 
ATOM     25  C   UNL     1       5.540   4.811  15.313  0.00  0.00    +0.000 A 
ATOM     26  F   UNL     1       5.964   4.564  14.068  0.00  0.00    +0.000 F 
ATOM     27  C   UNL     1       5.228   3.747  16.150  0.00  0.00    +0.000 A 
ATOM     28  C   UNL     1       4.807   4.020  17.444  0.00  0.00    +0.000 A 
ATOM     29  F   UNL     1       4.496   3.004  18.262  0.00  0.00    +0.000 F 
ENDBRANCH  20  22
ENDBRANCH  17  20
ENDBRANCH   8  17
BRANCH   1  30
ATOM     30  C   UNL     1      -2.246  12.228  21.001  0.00  0.00    +0.000 C 
BRANCH  30  32
ATOM     31  C   UNL     1      -3.080  12.256  23.389  0.00  0.00    +0.000 C 
ATOM     32  C   UNL     1      -2.441  13.071  22.274  0.00  0.00    +0.000 C 
ENDBRANCH  30  32
ENDBRANCH   1  30
TORSDOF 5
ENDMDL
MODEL 3
REMARK VINA RESULT:      -8.3      1.232      1.392
REMARK  Name = 
REMARK  7 active torsions:
REMARK  status: ('A' for Active; 'I' for Inactive)
REMARK    1  A    between atoms: C_1  and  C_2
REMARK    2  A    between atoms: C_2  and  C_3
REMARK    3  A    between atoms: C_3  and  C_4
REMARK    4  A    between atoms: C_4  and  C_5
REMARK    5  A    between atoms: C_11  and  S_12
REMARK    6  A    between atoms: S_12  and  N_15
REMARK    7  A    between atoms: N_15  and  C_16
REMARK                            x       y       z     vdW  Elec       q    Type
REMARK                         _______ _______ _______ _____ _____    ______ ____
ROOT
ATOM      1  C   UNL     1       5.236   5.203  17.965  0.00  0.00    +0.000 C 
ATOM      2  C   UNL     1       4.630   3.966  17.268  0.00  0.00    +0.000 C 
ATOM      3  N   UNL     1       4.684   5.312  19.315  0.00  0.00    +0.000 N 
ATOM      4  C   UNL     1       3.353   5.454  19.540  0.00  0.00    +0.000 C 
ATOM      5  O   UNL     1       2.731   4.622  20.194  0.00  0.00    +0.000 OA
ATOM      6  C   UNL     1       2.749   6.741  19.184  0.00  0.00    +0.000 A 
ATOM      7  C   UNL     1       1.963   7.308  20.203  0.00  0.00    +0.000 A 
ATOM      8  C   UNL     1       1.349   8.544  20.014  0.00  0.00    +0.000 A 
ATOM      9  C   UNL     1       1.457   9.196  18.790  0.00  0.00    +0.000 A 
ATOM     10  C   UNL     1       2.219   8.612  17.769  0.00  0.00    +0.000 A 
ATOM     11  C   UNL     1       2.931   7.415  17.977  0.00  0.00    +0.000 A 
ATOM     12  N   UNL     1       3.831   7.085  16.952  0.00  0.00    +0.000 N 
ATOM     13  C   UNL     1       4.995   6.378  16.989  0.00  0.00    +0.000 C 
ATOM     14  O   UNL     1       5.773   6.593  16.050  0.00  0.00    +0.000 OA
ATOM     15  H   UNL     1       4.997   4.539  19.892  0.00  0.00    +0.000 HD
ATOM     16  H   UNL     1       3.839   7.704  16.147  0.00  0.00    +0.000 HD
ENDROOT
BRANCH   8  17
ATOM     17  S   UNL     1       0.562   9.341  21.395  0.00  0.00    +0.000 S 
ATOM     18  O   UNL     1      -0.485   8.465  21.875  0.00  0.00    +0.000 OA
ATOM     19  O   UNL     1       1.617   9.798  22.273  0.00  0.00    +0.000 OA
BRANCH  17  20
ATOM     20  N   UNL     1      -0.134  10.730  20.726  0.00  0.00    +0.000 N 
ATOM     21  H   UNL     1      -0.875  10.476  20.076  0.00  0.00    +0.000 HD
BRANCH  20  22
ATOM     22  C   UNL     1      -0.435  11.806  21.614  0.00  0.00    +0.000 A 
ATOM     23  C   UNL     1      -1.431  11.665  22.577  0.00  0.00    +0.000 A 
ATOM     24  C   UNL     1      -1.741  12.744  23.411  0.00  0.00    +0.000 A 
ATOM     25  C   UNL     1      -1.071  13.956  23.251  0.00  0.00    +0.000 A 
ATOM     26  F   UNL     1      -1.374  14.985  24.051  0.00  0.00    +0.000 F 
ATOM     27  C   UNL     1      -0.094  14.116  22.277  0.00  0.00    +0.000 A 
ATOM     28  C   UNL     1       0.221  13.035  21.467  0.00  0.00    +0.000 A 
ATOM     29  F   UNL     1       1.157  13.175  20.518  0.00  0.00    +0.000 F 
ENDBRANCH  20  22
ENDBRANCH  17  20
ENDBRANCH   8  17
BRANCH   1  30
ATOM     30  C   UNL     1       6.772   4.979  18.120  0.00  0.00    +0.000 C 
BRANCH  30  32
ATOM     31  C   UNL     1       8.145   7.042  18.624  0.00  0.00    +0.000 C 
ATOM     32  C   UNL     1       7.418   5.843  19.217  0.00  0.00    +0.000 C 
ENDBRANCH  30  32
ENDBRANCH   1  30
TORSDOF 5
ENDMDL
MODEL 4
REMARK VINA RESULT:      -8.3      0.969      1.382
REMARK  Name = 
REMARK  7 active torsions:
REMARK  status: ('A' for Active; 'I' for Inactive)
REMARK    1  A    between atoms: C_1  and  C_2
REMARK    2  A    between atoms: C_2  and  C_3
REMARK    3  A    between atoms: C_3  and  C_4
REMARK    4  A    between atoms: C_4  and  C_5
REMARK    5  A    between atoms: C_11  and  S_12
REMARK    6  A    between atoms: S_12  and  N_15
REMARK    7  A    between atoms: N_15  and  C_16
REMARK                            x       y       z     vdW  Elec       q    Type
REMARK                         _______ _______ _______ _____ _____    ______ ____
ROOT
ATOM      1  C   UNL     1       5.105   5.231  17.777  0.00  0.00    +0.000 C 
ATOM      2  C   UNL     1       4.430   4.032  17.077  0.00  0.00    +0.000 C 
ATOM      3  N   UNL     1       4.627   5.313  19.157  0.00  0.00    +0.000 N 
ATOM      4  C   UNL     1       3.313   5.483  19.455  0.00  0.00    +0.000 C 
ATOM      5  O   UNL     1       2.703   4.649  20.116  0.00  0.00    +0.000 OA
ATOM      6  C   UNL     1       2.728   6.796  19.169  0.00  0.00    +0.000 A 
ATOM      7  C   UNL     1       2.012   7.352  20.243  0.00  0.00    +0.000 A 
ATOM      8  C   UNL     1       1.424   8.609  20.122  0.00  0.00    +0.000 A 
ATOM      9  C   UNL     1       1.487   9.296  18.914  0.00  0.00    +0.000 A 
ATOM     10  C   UNL     1       2.179   8.723  17.838  0.00  0.00    +0.000 A 
ATOM     11  C   UNL     1       2.867   7.501  17.973  0.00  0.00    +0.000 A 
ATOM     12  N   UNL     1       3.704   7.179  16.894  0.00  0.00    +0.000 N 
ATOM     13  C   UNL     1       4.848   6.441  16.850  0.00  0.00    +0.000 C 
ATOM     14  O   UNL     1       5.582   6.665  15.878  0.00  0.00    +0.000 OA
ATOM     15  H   UNL     1       4.947   4.515  19.694  0.00  0.00    +0.000 HD
ATOM     16  H   UNL     1       3.688   7.823  16.108  0.00  0.00    +0.000 HD
ENDROOT
BRANCH   8  17
ATOM     17  S   UNL     1       0.731   9.384  21.565  0.00  0.00    +0.000 S 
ATOM     18  O   UNL     1      -0.585   8.821  21.782  0.00  0.00    +0.000 OA
ATOM     19  O   UNL     1       1.746   9.335  22.596  0.00  0.00    +0.000 OA
BRANCH  17  20
ATOM     20  N   UNL     1       0.579  11.010  21.126  0.00  0.00    +0.000 N 
ATOM     21  H   UNL     1       1.254  11.245  20.402  0.00  0.00    +0.000 HD
BRANCH  20  22
ATOM     22  C   UNL     1      -0.741  11.515  20.925  0.00  0.00    +0.000 A 
ATOM     23  C   UNL     1      -1.291  11.555  19.646  0.00  0.00    +0.000 A 
ATOM     24  C   UNL     1      -2.570  12.092  19.463  0.00  0.00    +0.000 A 
ATOM     25  C   UNL     1      -3.266  12.608  20.555  0.00  0.00    +0.000 A 
ATOM     26  F   UNL     1      -4.488  13.122  20.371  0.00  0.00    +0.000 F 
ATOM     27  C   UNL     1      -2.716  12.597  21.830  0.00  0.00    +0.000 A 
ATOM     28  C   UNL     1      -1.456  12.044  22.006  0.00  0.00    +0.000 A 
ATOM     29  F   UNL     1      -0.909  12.033  23.230  0.00  0.00    +0.000 F 
ENDBRANCH  20  22
ENDBRANCH  17  20
ENDBRANCH   8  17
BRANCH   1  30
ATOM     30  C   UNL     1       6.640   4.961  17.845  0.00  0.00    +0.000 C 
BRANCH  30  32
ATOM     31  C   UNL     1       8.112   5.681  19.772  0.00  0.00    +0.000 C 
ATOM     32  C   UNL     1       7.446   6.112  18.474  0.00  0.00    +0.000 C 
ENDBRANCH  30  32
ENDBRANCH   1  30
TORSDOF 5
ENDMDL
MODEL 5
REMARK VINA RESULT:      -8.2      1.430      1.752
REMARK  Name = 
REMARK  7 active torsions:
REMARK  status: ('A' for Active; 'I' for Inactive)
REMARK    1  A    between atoms: C_1  and  C_2
REMARK    2  A    between atoms: C_2  and  C_3
REMARK    3  A    between atoms: C_3  and  C_4
REMARK    4  A    between atoms: C_4  and  C_5
REMARK    5  A    between atoms: C_11  and  S_12
REMARK    6  A    between atoms: S_12  and  N_15
REMARK    7  A    between atoms: N_15  and  C_16
REMARK                            x       y       z     vdW  Elec       q    Type
REMARK                         _______ _______ _______ _____ _____    ______ ____
ROOT
ATOM      1  C   UNL     1       4.912   5.213  18.035  0.00  0.00    +0.000 C 
ATOM      2  C   UNL     1       4.254   4.050  17.263  0.00  0.00    +0.000 C 
ATOM      3  N   UNL     1       4.322   5.300  19.370  0.00  0.00    +0.000 N 
ATOM      4  C   UNL     1       2.995   5.518  19.558  0.00  0.00    +0.000 C 
ATOM      5  O   UNL     1       2.299   4.701  20.153  0.00  0.00    +0.000 OA
ATOM      6  C   UNL     1       2.488   6.856  19.243  0.00  0.00    +0.000 A 
ATOM      7  C   UNL     1       1.704   7.428  20.260  0.00  0.00    +0.000 A 
ATOM      8  C   UNL     1       1.178   8.709  20.109  0.00  0.00    +0.000 A 
ATOM      9  C   UNL     1       1.370   9.406  18.920  0.00  0.00    +0.000 A 
ATOM     10  C   UNL     1       2.128   8.818  17.899  0.00  0.00    +0.000 A 
ATOM     11  C   UNL     1       2.755   7.569  18.074  0.00  0.00    +0.000 A 
ATOM     12  N   UNL     1       3.667   7.226  17.065  0.00  0.00    +0.000 N 
ATOM     13  C   UNL     1       4.782   6.444  17.107  0.00  0.00    +0.000 C 
ATOM     14  O   UNL     1       5.605   6.648  16.204  0.00  0.00    +0.000 OA
ATOM     15  H   UNL     1       4.564   4.483  19.921  0.00  0.00    +0.000 HD
ATOM     16  H   UNL     1       3.744   7.878  16.290  0.00  0.00    +0.000 HD
ENDROOT
BRANCH   8  17
ATOM     17  S   UNL     1       0.395   9.494  21.499  0.00  0.00    +0.000 S 
ATOM     18  O   UNL     1      -0.485   8.527  22.118  0.00  0.00    +0.000 OA
ATOM     19  O   UNL     1       1.442  10.147  22.257  0.00  0.00    +0.000 OA
BRANCH  17  20
ATOM     20  N   UNL     1      -0.530  10.730  20.806  0.00  0.00    +0.000 N 
ATOM     21  H   UNL     1      -1.445  10.376  20.536  0.00  0.00    +0.000 HD
BRANCH  20  22
ATOM     22  C   UNL     1      -0.528  11.997  21.461  0.00  0.00    +0.000 A 
ATOM     23  C   UNL     1       0.285  13.029  20.995  0.00  0.00    +0.000 A 
ATOM     24  C   UNL     1       0.305  14.250  21.675  0.00  0.00    +0.000 A 
ATOM     25  C   UNL     1      -0.464  14.415  22.826  0.00  0.00    +0.000 A 
ATOM     26  F   UNL     1      -0.437  15.586  23.472  0.00  0.00    +0.000 F 
ATOM     27  C   UNL     1      -1.258  13.385  23.314  0.00  0.00    +0.000 A 
ATOM     28  C   UNL     1      -1.287  12.183  22.623  0.00  0.00    +0.000 A 
ATOM     29  F   UNL     1      -2.044  11.177  23.085  0.00  0.00    +0.000 F 
ENDBRANCH  20  22
ENDBRANCH  17  20
ENDBRANCH   8  17
BRANCH   1  30
ATOM     30  C   UNL     1       6.425   4.883  18.229  0.00  0.00    +0.000 C 
BRANCH  30  32
ATOM     31  C   UNL     1       8.110   6.713  18.682  0.00  0.00    +0.000 C 
ATOM     32  C   UNL     1       7.116   5.742  19.302  0.00  0.00    +0.000 C 
ENDBRANCH  30  32
ENDBRANCH   1  30
TORSDOF 5
ENDMDL
MODEL 6
REMARK VINA RESULT:      -8.1      3.024      4.552
REMARK  Name = 
REMARK  7 active torsions:
REMARK  status: ('A' for Active; 'I' for Inactive)
REMARK    1  A    between atoms: C_1  and  C_2
REMARK    2  A    between atoms: C_2  and  C_3
REMARK    3  A    between atoms: C_3  and  C_4
REMARK    4  A    between atoms: C_4  and  C_5
REMARK    5  A    between atoms: C_11  and  S_12
REMARK    6  A    between atoms: S_12  and  N_15
REMARK    7  A    between atoms: N_15  and  C_16
REMARK                            x       y       z     vdW  Elec       q    Type
REMARK                         _______ _______ _______ _____ _____    ______ ____
ROOT
ATOM      1  C   UNL     1       2.504   5.244  18.773  0.00  0.00    +0.000 C 
ATOM      2  C   UNL     1       4.040   5.180  18.917  0.00  0.00    +0.000 C 
ATOM      3  N   UNL     1       2.149   6.373  17.915  0.00  0.00    +0.000 N 
ATOM      4  C   UNL     1       2.481   7.651  18.232  0.00  0.00    +0.000 C 
ATOM      5  O   UNL     1       3.197   8.319  17.492  0.00  0.00    +0.000 OA
ATOM      6  C   UNL     1       1.764   8.270  19.350  0.00  0.00    +0.000 A 
ATOM      7  C   UNL     1       1.235   9.540  19.062  0.00  0.00    +0.000 A 
ATOM      8  C   UNL     1       0.505  10.234  20.024  0.00  0.00    +0.000 A 
ATOM      9  C   UNL     1       0.351   9.703  21.300  0.00  0.00    +0.000 A 
ATOM     10  C   UNL     1       0.904   8.449  21.589  0.00  0.00    +0.000 A 
ATOM     11  C   UNL     1       1.555   7.686  20.600  0.00  0.00    +0.000 A 
ATOM     12  N   UNL     1       1.841   6.364  20.974  0.00  0.00    +0.000 N 
ATOM     13  C   UNL     1       1.958   5.236  20.219  0.00  0.00    +0.000 C 
ATOM     14  O   UNL     1       1.802   4.172  20.834  0.00  0.00    +0.000 OA
ATOM     15  H   UNL     1       2.469   6.215  16.966  0.00  0.00    +0.000 HD
ATOM     16  H   UNL     1       1.603   6.108  21.928  0.00  0.00    +0.000 HD
ENDROOT
BRANCH   8  17
ATOM     17  S   UNL     1      -0.347  11.724  19.557  0.00  0.00    +0.000 S 
ATOM     18  O   UNL     1      -0.165  12.690  20.618  0.00  0.00    +0.000 OA
ATOM     19  O   UNL     1       0.045  12.022  18.196  0.00  0.00    +0.000 OA
BRANCH  17  20
ATOM     20  N   UNL     1      -1.974  11.264  19.492  0.00  0.00    +0.000 N 
ATOM     21  H   UNL     1      -2.544  11.908  20.036  0.00  0.00    +0.000 HD
BRANCH  20  22
ATOM     22  C   UNL     1      -2.501  10.897  18.218  0.00  0.00    +0.000 A 
ATOM     23  C   UNL     1      -1.810  10.004  17.402  0.00  0.00    +0.000 A 
ATOM     24  C   UNL     1      -2.322   9.689  16.139  0.00  0.00    +0.000 A 
ATOM     25  C   UNL     1      -3.500  10.291  15.699  0.00  0.00    +0.000 A 
ATOM     26  F   UNL     1      -3.982   9.985  14.489  0.00  0.00    +0.000 F 
ATOM     27  C   UNL     1      -4.183  11.202  16.495  0.00  0.00    +0.000 A 
ATOM     28  C   UNL     1      -3.680  11.494  17.754  0.00  0.00    +0.000 A 
ATOM     29  F   UNL     1      -4.324  12.376  18.531  0.00  0.00    +0.000 F 
ENDBRANCH  20  22
ENDBRANCH  17  20
ENDBRANCH   8  17
BRANCH   1  30
ATOM     30  C   UNL     1       2.024   3.952  18.042  0.00  0.00    +0.000 C 
BRANCH  30  32
ATOM     31  C   UNL     1       3.320   1.786  18.206  0.00  0.00    +0.000 C 
ATOM     32  C   UNL     1       3.169   3.104  17.460  0.00  0.00    +0.000 C 
ENDBRANCH  30  32
ENDBRANCH   1  30
TORSDOF 5
ENDMDL
MODEL 7
REMARK VINA RESULT:      -8.1      3.256      8.853
REMARK  Name = 
REMARK  7 active torsions:
REMARK  status: ('A' for Active; 'I' for Inactive)
REMARK    1  A    between atoms: C_1  and  C_2
REMARK    2  A    between atoms: C_2  and  C_3
REMARK    3  A    between atoms: C_3  and  C_4
REMARK    4  A    between atoms: C_4  and  C_5
REMARK    5  A    between atoms: C_11  and  S_12
REMARK    6  A    between atoms: S_12  and  N_15
REMARK    7  A    between atoms: N_15  and  C_16
REMARK                            x       y       z     vdW  Elec       q    Type
REMARK                         _______ _______ _______ _____ _____    ______ ____
ROOT
ATOM      1  C   UNL     1      -0.663  11.955  20.744  0.00  0.00    +0.000 C 
ATOM      2  C   UNL     1       0.271  13.046  21.311  0.00  0.00    +0.000 C 
ATOM      3  N   UNL     1      -0.415  10.697  21.448  0.00  0.00    +0.000 N 
ATOM      4  C   UNL     1       0.802  10.095  21.440  0.00  0.00    +0.000 C 
ATOM      5  O   UNL     1       1.415   9.897  22.484  0.00  0.00    +0.000 OA
ATOM      6  C   UNL     1       1.235   9.481  20.181  0.00  0.00    +0.000 A 
ATOM      7  C   UNL     1       1.696   8.160  20.315  0.00  0.00    +0.000 A 
ATOM      8  C   UNL     1       2.114   7.443  19.197  0.00  0.00    +0.000 A 
ATOM      9  C   UNL     1       2.140   8.053  17.946  0.00  0.00    +0.000 A 
ATOM     10  C   UNL     1       1.706   9.379  17.825  0.00  0.00    +0.000 A 
ATOM     11  C   UNL     1       1.182  10.086  18.925  0.00  0.00    +0.000 A 
ATOM     12  N   UNL     1       0.571  11.306  18.600  0.00  0.00    +0.000 N 
ATOM     13  C   UNL     1      -0.439  11.983  19.214  0.00  0.00    +0.000 C 
ATOM     14  O   UNL     1      -1.041  12.795  18.499  0.00  0.00    +0.000 OA
ATOM     15  H   UNL     1      -0.699  10.770  22.419  0.00  0.00    +0.000 HD
ATOM     16  H   UNL     1       0.616  11.583  17.624  0.00  0.00    +0.000 HD
ENDROOT
BRANCH   8  17
ATOM     17  S   UNL     1       2.465   5.707  19.361  0.00  0.00    +0.000 S 
ATOM     18  O   UNL     1       2.134   5.313  20.714  0.00  0.00    +0.000 OA
ATOM     19  O   UNL     1       1.866   5.048  18.221  0.00  0.00    +0.000 OA
BRANCH  17  20
ATOM     20  N   UNL     1       4.140   5.604  19.142  0.00  0.00    +0.000 N 
ATOM     21  H   UNL     1       4.568   5.108  19.921  0.00  0.00    +0.000 HD
BRANCH  20  22
ATOM     22  C   UNL     1       4.611   5.240  17.846  0.00  0.00    +0.000 A 
ATOM     23  C   UNL     1       4.669   3.900  17.470  0.00  0.00    +0.000 A 
ATOM     24  C   UNL     1       5.172   3.559  16.211  0.00  0.00    +0.000 A 
ATOM     25  C   UNL     1       5.638   4.558  15.358  0.00  0.00    +0.000 A 
ATOM     26  F   UNL     1       6.120   4.224  14.155  0.00  0.00    +0.000 F 
ATOM     27  C   UNL     1       5.609   5.895  15.733  0.00  0.00    +0.000 A 
ATOM     28  C   UNL     1       5.090   6.227  16.975  0.00  0.00    +0.000 A 
ATOM     29  F   UNL     1       5.061   7.513  17.355  0.00  0.00    +0.000 F 
ENDBRANCH  20  22
ENDBRANCH  17  20
ENDBRANCH   8  17
BRANCH   1  30
ATOM     30  C   UNL     1      -2.138  12.362  21.048  0.00  0.00    +0.000 C 
BRANCH  30  32
ATOM     31  C   UNL     1      -3.060  13.470  23.127  0.00  0.00    +0.000 C 
ATOM     32  C   UNL     1      -2.543  12.173  22.521  0.00  0.00    +0.000 C 
ENDBRANCH  30  32
ENDBRANCH   1  30
TORSDOF 5
ENDMDL
MODEL 8
REMARK VINA RESULT:      -7.9      1.135      1.168
REMARK  Name = 
REMARK  7 active torsions:
REMARK  status: ('A' for Active; 'I' for Inactive)
REMARK    1  A    between atoms: C_1  and  C_2
REMARK    2  A    between atoms: C_2  and  C_3
REMARK    3  A    between atoms: C_3  and  C_4
REMARK    4  A    between atoms: C_4  and  C_5
REMARK    5  A    between atoms: C_11  and  S_12
REMARK    6  A    between atoms: S_12  and  N_15
REMARK    7  A    between atoms: N_15  and  C_16
REMARK                            x       y       z     vdW  Elec       q    Type
REMARK                         _______ _______ _______ _____ _____    ______ ____
ROOT
ATOM      1  C   UNL     1       4.338   5.156  18.411  0.00  0.00    +0.000 C 
ATOM      2  C   UNL     1       3.483   3.982  17.889  0.00  0.00    +0.000 C 
ATOM      3  N   UNL     1       3.879   5.527  19.750  0.00  0.00    +0.000 N 
ATOM      4  C   UNL     1       2.608   5.943  19.986  0.00  0.00    +0.000 C 
ATOM      5  O   UNL     1       1.875   5.326  20.753  0.00  0.00    +0.000 OA
ATOM      6  C   UNL     1       2.236   7.269  19.486  0.00  0.00    +0.000 A 
ATOM      7  C   UNL     1       1.616   8.090  20.444  0.00  0.00    +0.000 A 
ATOM      8  C   UNL     1       1.233   9.389  20.117  0.00  0.00    +0.000 A 
ATOM      9  C   UNL     1       1.402   9.860  18.818  0.00  0.00    +0.000 A 
ATOM     10  C   UNL     1       1.995   9.026  17.861  0.00  0.00    +0.000 A 
ATOM     11  C   UNL     1       2.483   7.749  18.200  0.00  0.00    +0.000 A 
ATOM     12  N   UNL     1       3.259   7.136  17.204  0.00  0.00    +0.000 N 
ATOM     13  C   UNL     1       4.273   6.232  17.302  0.00  0.00    +0.000 C 
ATOM     14  O   UNL     1       5.033   6.184  16.325  0.00  0.00    +0.000 OA
ATOM     15  H   UNL     1       4.070   4.782  20.411  0.00  0.00    +0.000 HD
ATOM     16  H   UNL     1       3.344   7.643  16.328  0.00  0.00    +0.000 HD
ENDROOT
BRANCH   8  17
ATOM     17  S   UNL     1       0.670  10.477  21.405  0.00  0.00    +0.000 S 
ATOM     18  O   UNL     1       0.735   9.755  22.657  0.00  0.00    +0.000 OA
ATOM     19  O   UNL     1       1.368  11.733  21.228  0.00  0.00    +0.000 OA
BRANCH  17  20
ATOM     20  N   UNL     1      -0.949  10.775  21.014  0.00  0.00    +0.000 N 
ATOM     21  H   UNL     1      -1.492   9.917  21.080  0.00  0.00    +0.000 HD
BRANCH  20  22
ATOM     22  C   UNL     1      -1.558  11.935  21.581  0.00  0.00    +0.000 A 
ATOM     23  C   UNL     1      -1.968  11.934  22.913  0.00  0.00    +0.000 A 
ATOM     24  C   UNL     1      -2.601  13.064  23.439  0.00  0.00    +0.000 A 
ATOM     25  C   UNL     1      -2.841  14.167  22.620  0.00  0.00    +0.000 A 
ATOM     26  F   UNL     1      -3.449  15.244  23.131  0.00  0.00    +0.000 F 
ATOM     27  C   UNL     1      -2.460  14.168  21.285  0.00  0.00    +0.000 A 
ATOM     28  C   UNL     1      -1.815  13.051  20.776  0.00  0.00    +0.000 A 
ATOM     29  F   UNL     1      -1.447  13.034  19.486  0.00  0.00    +0.000 F 
ENDBRANCH  20  22
ENDBRANCH  17  20
ENDBRANCH   8  17
BRANCH   1  30
ATOM     30  C   UNL     1       5.812   4.666  18.557  0.00  0.00    +0.000 C 
BRANCH  30  32
ATOM     31  C   UNL     1       7.778   6.255  18.649  0.00  0.00    +0.000 C 
ATOM     32  C   UNL     1       6.681   5.569  19.450  0.00  0.00    +0.000 C 
ENDBRANCH  30  32
ENDBRANCH   1  30
TORSDOF 5
ENDMDL
MODEL 9
REMARK VINA RESULT:      -7.9      1.430      1.752
REMARK  Name = 
REMARK  7 active torsions:
REMARK  status: ('A' for Active; 'I' for Inactive)
REMARK    1  A    between atoms: C_1  and  C_2
REMARK    2  A    between atoms: C_2  and  C_3
REMARK    3  A    between atoms: C_3  and  C_4
REMARK    4  A    between atoms: C_4  and  C_5
REMARK    5  A    between atoms: C_11  and  S_12
REMARK    6  A    between atoms: S_12  and  N_15
REMARK    7  A    between atoms: N_15  and  C_16
REMARK                            x       y       z     vdW  Elec       q    Type
REMARK                         _______ _______ _______ _____ _____    ______ ____
ROOT
ATOM      1  C   UNL     1       4.126   5.099  18.553  0.00  0.00    +0.000 C 
ATOM      2  C   UNL     1       3.234   3.964  18.007  0.00  0.00    +0.000 C 
ATOM      3  N   UNL     1       3.637   5.502  19.872  0.00  0.00    +0.000 N 
ATOM      4  C   UNL     1       2.380   5.981  20.058  0.00  0.00    +0.000 C 
ATOM      5  O   UNL     1       1.590   5.408  20.801  0.00  0.00    +0.000 OA
ATOM      6  C   UNL     1       2.092   7.321  19.537  0.00  0.00    +0.000 A 
ATOM      7  C   UNL     1       1.478   8.178  20.466  0.00  0.00    +0.000 A 
ATOM      8  C   UNL     1       1.172   9.492  20.117  0.00  0.00    +0.000 A 
ATOM      9  C   UNL     1       1.411   9.944  18.823  0.00  0.00    +0.000 A 
ATOM     10  C   UNL     1       1.998   9.074  17.894  0.00  0.00    +0.000 A 
ATOM     11  C   UNL     1       2.410   7.777  18.258  0.00  0.00    +0.000 A 
ATOM     12  N   UNL     1       3.190   7.120  17.295  0.00  0.00    +0.000 N 
ATOM     13  C   UNL     1       4.155   6.168  17.436  0.00  0.00    +0.000 C 
ATOM     14  O   UNL     1       4.947   6.076  16.489  0.00  0.00    +0.000 OA
ATOM     15  H   UNL     1       3.767   4.754  20.544  0.00  0.00    +0.000 HD
ATOM     16  H   UNL     1       3.332   7.615  16.420  0.00  0.00    +0.000 HD
ENDROOT
BRANCH   8  17
ATOM     17  S   UNL     1       0.616  10.616  21.377  0.00  0.00    +0.000 S 
ATOM     18  O   UNL     1       0.681   9.927  22.648  0.00  0.00    +0.000 OA
ATOM     19  O   UNL     1       1.319  11.864  21.165  0.00  0.00    +0.000 OA
BRANCH  17  20
ATOM     20  N   UNL     1      -1.002  10.910  20.982  0.00  0.00    +0.000 N 
ATOM     21  H   UNL     1      -1.549  10.057  21.075  0.00  0.00    +0.000 HD
BRANCH  20  22
ATOM     22  C   UNL     1      -1.604  12.089  21.515  0.00  0.00    +0.000 A 
ATOM     23  C   UNL     1      -1.660  13.255  20.755  0.00  0.00    +0.000 A 
ATOM     24  C   UNL     1      -2.216  14.412  21.309  0.00  0.00    +0.000 A 
ATOM     25  C   UNL     1      -2.681  14.396  22.623  0.00  0.00    +0.000 A 
ATOM     26  F   UNL     1      -3.210  15.508  23.147  0.00  0.00    +0.000 F 
ATOM     27  C   UNL     1      -2.607  13.246  23.398  0.00  0.00    +0.000 A 
ATOM     28  C   UNL     1      -2.073  12.097  22.835  0.00  0.00    +0.000 A 
ATOM     29  F   UNL     1      -1.988  10.980  23.572  0.00  0.00    +0.000 F 
ENDBRANCH  20  22
ENDBRANCH  17  20
ENDBRANCH   8  17
BRANCH   1  30
ATOM     30  C   UNL     1       5.568   4.539  18.757  0.00  0.00    +0.000 C 
BRANCH  30  32
ATOM     31  C   UNL     1       7.804   5.717  18.662  0.00  0.00    +0.000 C 
ATOM     32  C   UNL     1       6.523   5.521  19.459  0.00  0.00    +0.000 C 
ENDBRANCH  30  32
ENDBRANCH   1  30
TORSDOF 5
ENDMDL
