MODEL 1
REMARK VINA RESULT:      -7.9      0.000      0.000
REMARK  Name = 
REMARK  7 active torsions:
REMARK  status: ('A' for Active; 'I' for Inactive)
REMARK    1  A    between atoms: C_1  and  C_2
REMARK    2  A    between atoms: C_4  and  N_5
REMARK    3  A    between atoms: C_6  and  C_8
REMARK    4  A    between atoms: C_8  and  S_9
REMARK    5  A    between atoms: S_9  and  C_10
REMARK    6  A    between atoms: N_14  and  C_15
REMARK    7  A    between atoms: N_16  and  C_17
REMARK                            x       y       z     vdW  Elec       q    Type
REMARK                         _______ _______ _______ _____ _____    ______ ____
ROOT
ATOM      1  C   UNL     1       7.168   4.198  12.410  0.00  0.00    +0.000 C 
ATOM      2  C   UNL     1       6.688   4.455  13.791  0.00  0.00    +0.000 A 
ATOM      3  C   UNL     1       5.502   3.981  14.396  0.00  0.00    +0.000 A 
ATOM      4  C   UNL     1       5.512   4.522  15.658  0.00  0.00    +0.000 A 
ATOM      5  N   UNL     1       6.713   5.201  15.790  0.00  0.00    +0.000 N 
ATOM      6  N   UNL     1       7.388   5.247  14.614  0.00  0.00    +0.000 NA
ENDROOT
BRANCH   5   7
ATOM      7  C   UNL     1       7.237   5.777  16.980  0.00  0.00    +0.000 A 
ATOM      8  C   UNL     1       7.505   7.155  17.053  0.00  0.00    +0.000 A 
ATOM      9  C   UNL     1       8.075   7.699  18.204  0.00  0.00    +0.000 A 
ATOM     10  C   UNL     1       8.371   6.875  19.286  0.00  0.00    +0.000 A 
ATOM     11  C   UNL     1       8.067   5.514  19.233  0.00  0.00    +0.000 A 
ATOM     12  C   UNL     1       7.485   4.963  18.089  0.00  0.00    +0.000 A 
ENDBRANCH   5   7
BRANCH   4  13
ATOM     13  N   UNL     1       4.467   4.502  16.571  0.00  0.00    +0.000 N 
ATOM     14  C   UNL     1       3.921   5.702  17.134  0.00  0.00    +0.000 C 
ATOM     15  O   UNL     1       4.231   6.788  16.666  0.00  0.00    +0.000 OA
ATOM     16  H   UNL     1       4.076   3.603  16.831  0.00  0.00    +0.000 HD
BRANCH  14  17
ATOM     17  C   UNL     1       2.780   5.512  18.117  0.00  0.00    +0.000 C 
BRANCH  17  18
ATOM     18  S   UNL     1       1.920   3.918  17.937  0.00  0.00    +0.000 S 
BRANCH  18  19
ATOM     19  C   UNL     1       1.941   3.375  19.574  0.00  0.00    +0.000 A 
ATOM     20  N   UNL     1       0.919   3.479  20.390  0.00  0.00    +0.000 NA
ATOM     21  C   UNL     1       1.360   2.982  21.588  0.00  0.00    +0.000 A 
ATOM     22  C   UNL     1       2.666   2.563  21.487  0.00  0.00    +0.000 A 
ATOM     23  N   UNL     1       3.029   2.820  20.189  0.00  0.00    +0.000 N 
ATOM     24  C   UNL     1       4.316   2.525  19.610  0.00  0.00    +0.000 C 
ENDBRANCH  18  19
ENDBRANCH  17  18
ENDBRANCH  14  17
ENDBRANCH   4  13
TORSDOF 5
ENDMDL
MODEL 2
REMARK VINA RESULT:      -7.8      2.205      3.384
REMARK  Name = 
REMARK  7 active torsions:
REMARK  status: ('A' for Active; 'I' for Inactive)
REMARK    1  A    between atoms: C_1  and  C_2
REMARK    2  A    between atoms: C_4  and  N_5
REMARK    3  A    between atoms: C_6  and  C_8
REMARK    4  A    between atoms: C_8  and  S_9
REMARK    5  A    between atoms: S_9  and  C_10
REMARK    6  A    between atoms: N_14  and  C_15
REMARK    7  A    between atoms: N_16  and  C_17
REMARK                            x       y       z     vdW  Elec       q    Type
REMARK                         _______ _______ _______ _____ _____    ______ ____
ROOT
ATOM      1  C   UNL     1       6.815   3.748  12.511  0.00  0.00    +0.000 C 
ATOM      2  C   UNL     1       6.394   4.247  13.845  0.00  0.00    +0.000 A 
ATOM      3  C   UNL     1       5.137   4.085  14.471  0.00  0.00    +0.000 A 
ATOM      4  C   UNL     1       5.253   4.750  15.667  0.00  0.00    +0.000 A 
ATOM      5  N   UNL     1       6.565   5.190  15.751  0.00  0.00    +0.000 N 
ATOM      6  N   UNL     1       7.236   4.972  14.593  0.00  0.00    +0.000 NA
ENDROOT
BRANCH   5   7
ATOM      7  C   UNL     1       7.192   5.780  16.883  0.00  0.00    +0.000 A 
ATOM      8  C   UNL     1       7.588   4.991  17.976  0.00  0.00    +0.000 A 
ATOM      9  C   UNL     1       8.149   5.588  19.106  0.00  0.00    +0.000 A 
ATOM     10  C   UNL     1       8.322   6.968  19.146  0.00  0.00    +0.000 A 
ATOM     11  C   UNL     1       7.969   7.750  18.045  0.00  0.00    +0.000 A 
ATOM     12  C   UNL     1       7.420   7.160  16.905  0.00  0.00    +0.000 A 
ENDBRANCH   5   7
BRANCH   4  13
ATOM     13  N   UNL     1       4.224   5.037  16.552  0.00  0.00    +0.000 N 
ATOM     14  C   UNL     1       3.707   4.062  17.466  0.00  0.00    +0.000 C 
ATOM     15  O   UNL     1       4.303   3.005  17.626  0.00  0.00    +0.000 OA
ATOM     16  H   UNL     1       3.842   5.977  16.553  0.00  0.00    +0.000 HD
BRANCH  14  17
ATOM     17  C   UNL     1       2.583   4.532  18.371  0.00  0.00    +0.000 C 
BRANCH  17  18
ATOM     18  S   UNL     1       3.125   5.689  19.666  0.00  0.00    +0.000 S 
BRANCH  18  19
ATOM     19  C   UNL     1       2.499   7.167  19.035  0.00  0.00    +0.000 A 
ATOM     20  N   UNL     1       2.711   7.584  17.808  0.00  0.00    +0.000 NA
ATOM     21  C   UNL     1       2.091   8.803  17.729  0.00  0.00    +0.000 A 
ATOM     22  C   UNL     1       1.488   9.119  18.923  0.00  0.00    +0.000 A 
ATOM     23  N   UNL     1       1.756   8.061  19.755  0.00  0.00    +0.000 N 
ATOM     24  C   UNL     1       1.304   7.938  21.119  0.00  0.00    +0.000 C 
ENDBRANCH  18  19
ENDBRANCH  17  18
ENDBRANCH  14  17
ENDBRANCH   4  13
TORSDOF 5
ENDMDL
MODEL 3
REMARK VINA RESULT:      -7.7      2.304      3.316
REMARK  Name = 
REMARK  7 active torsions:
REMARK  status: ('A' for Active; 'I' for Inactive)
REMARK    1  A    between atoms: C_1  and  C_2
REMARK    2  A    between atoms: C_4  and  N_5
REMARK    3  A    between atoms: C_6  and  C_8
REMARK    4  A    between atoms: C_8  and  S_9
REMARK    5  A    between atoms: S_9  and  C_10
REMARK    6  A    between atoms: N_14  and  C_15
REMARK    7  A    between atoms: N_16  and  C_17
REMARK                            x       y       z     vdW  Elec       q    Type
REMARK                         _______ _______ _______ _____ _____    ______ ____
ROOT
ATOM      1  C   UNL     1       6.771   3.777  12.757  0.00  0.00    +0.000 C 
ATOM      2  C   UNL     1       6.348   4.329  14.069  0.00  0.00    +0.000 A 
ATOM      3  C   UNL     1       5.095   4.179  14.706  0.00  0.00    +0.000 A 
ATOM      4  C   UNL     1       5.207   4.898  15.871  0.00  0.00    +0.000 A 
ATOM      5  N   UNL     1       6.513   5.358  15.931  0.00  0.00    +0.000 N 
ATOM      6  N   UNL     1       7.183   5.097  14.781  0.00  0.00    +0.000 NA
ENDROOT
BRANCH   5   7
ATOM      7  C   UNL     1       7.136   6.005  17.033  0.00  0.00    +0.000 A 
ATOM      8  C   UNL     1       7.415   7.382  16.992  0.00  0.00    +0.000 A 
ATOM      9  C   UNL     1       8.080   7.995  18.055  0.00  0.00    +0.000 A 
ATOM     10  C   UNL     1       8.461   7.241  19.161  0.00  0.00    +0.000 A 
ATOM     11  C   UNL     1       8.147   5.883  19.223  0.00  0.00    +0.000 A 
ATOM     12  C   UNL     1       7.470   5.264  18.170  0.00  0.00    +0.000 A 
ENDBRANCH   5   7
BRANCH   4  13
ATOM     13  N   UNL     1       4.177   5.212  16.746  0.00  0.00    +0.000 N 
ATOM     14  C   UNL     1       3.520   4.217  17.542  0.00  0.00    +0.000 C 
ATOM     15  O   UNL     1       3.994   3.091  17.617  0.00  0.00    +0.000 OA
ATOM     16  H   UNL     1       3.896   6.183  16.827  0.00  0.00    +0.000 HD
BRANCH  14  17
ATOM     17  C   UNL     1       2.415   4.720  18.452  0.00  0.00    +0.000 C 
BRANCH  17  18
ATOM     18  S   UNL     1       2.992   5.883  19.727  0.00  0.00    +0.000 S 
BRANCH  18  19
ATOM     19  C   UNL     1       2.369   7.362  19.093  0.00  0.00    +0.000 A 
ATOM     20  N   UNL     1       2.577   7.773  17.864  0.00  0.00    +0.000 NA
ATOM     21  C   UNL     1       1.963   8.995  17.782  0.00  0.00    +0.000 A 
ATOM     22  C   UNL     1       1.368   9.318  18.979  0.00  0.00    +0.000 A 
ATOM     23  N   UNL     1       1.635   8.262  19.814  0.00  0.00    +0.000 N 
ATOM     24  C   UNL     1       1.190   8.147  21.180  0.00  0.00    +0.000 C 
ENDBRANCH  18  19
ENDBRANCH  17  18
ENDBRANCH  14  17
ENDBRANCH   4  13
TORSDOF 5
ENDMDL
MODEL 4
REMARK VINA RESULT:      -7.7      1.618      4.066
REMARK  Name = 
REMARK  7 active torsions:
REMARK  status: ('A' for Active; 'I' for Inactive)
REMARK    1  A    between atoms: C_1  and  C_2
REMARK    2  A    between atoms: C_4  and  N_5
REMARK    3  A    between atoms: C_6  and  C_8
REMARK    4  A    between atoms: C_8  and  S_9
REMARK    5  A    between atoms: S_9  and  C_10
REMARK    6  A    between atoms: N_14  and  C_15
REMARK    7  A    between atoms: N_16  and  C_17
REMARK                            x       y       z     vdW  Elec       q    Type
REMARK                         _______ _______ _______ _____ _____    ______ ____
ROOT
ATOM      1  C   UNL     1       8.067   7.903  18.109  0.00  0.00    +0.000 C 
ATOM      2  C   UNL     1       7.273   6.846  17.433  0.00  0.00    +0.000 A 
ATOM      3  C   UNL     1       6.101   6.211  17.905  0.00  0.00    +0.000 A 
ATOM      4  C   UNL     1       5.780   5.300  16.929  0.00  0.00    +0.000 A 
ATOM      5  N   UNL     1       6.688   5.484  15.898  0.00  0.00    +0.000 N 
ATOM      6  N   UNL     1       7.664   6.359  16.248  0.00  0.00    +0.000 NA
ENDROOT
BRANCH   5   7
ATOM      7  C   UNL     1       6.646   4.883  14.610  0.00  0.00    +0.000 A 
ATOM      8  C   UNL     1       7.615   5.193  13.641  0.00  0.00    +0.000 A 
ATOM      9  C   UNL     1       7.530   4.642  12.362  0.00  0.00    +0.000 A 
ATOM     10  C   UNL     1       6.485   3.778  12.048  0.00  0.00    +0.000 A 
ATOM     11  C   UNL     1       5.545   3.435  13.021  0.00  0.00    +0.000 A 
ATOM     12  C   UNL     1       5.630   3.971  14.308  0.00  0.00    +0.000 A 
ENDBRANCH   5   7
BRANCH   4  13
ATOM     13  N   UNL     1       4.817   4.305  17.017  0.00  0.00    +0.000 N 
ATOM     14  C   UNL     1       4.732   3.420  18.141  0.00  0.00    +0.000 C 
ATOM     15  O   UNL     1       5.384   3.657  19.149  0.00  0.00    +0.000 OA
ATOM     16  H   UNL     1       4.148   4.217  16.259  0.00  0.00    +0.000 HD
BRANCH  14  17
ATOM     17  C   UNL     1       3.623   2.386  18.088  0.00  0.00    +0.000 C 
BRANCH  17  18
ATOM     18  S   UNL     1       1.974   3.099  17.797  0.00  0.00    +0.000 S 
BRANCH  18  19
ATOM     19  C   UNL     1       2.030   4.445  18.874  0.00  0.00    +0.000 A 
ATOM     20  N   UNL     1       2.395   5.653  18.512  0.00  0.00    +0.000 NA
ATOM     21  C   UNL     1       2.349   6.403  19.657  0.00  0.00    +0.000 A 
ATOM     22  C   UNL     1       1.941   5.635  20.722  0.00  0.00    +0.000 A 
ATOM     23  N   UNL     1       1.739   4.380  20.208  0.00  0.00    +0.000 N 
ATOM     24  C   UNL     1       1.283   3.236  20.958  0.00  0.00    +0.000 C 
ENDBRANCH  18  19
ENDBRANCH  17  18
ENDBRANCH  14  17
ENDBRANCH   4  13
TORSDOF 5
ENDMDL
MODEL 5
REMARK VINA RESULT:      -7.5      1.568      3.959
REMARK  Name = 
REMARK  7 active torsions:
REMARK  status: ('A' for Active; 'I' for Inactive)
REMARK    1  A    between atoms: C_1  and  C_2
REMARK    2  A    between atoms: C_4  and  N_5
REMARK    3  A    between atoms: C_6  and  C_8
REMARK    4  A    between atoms: C_8  and  S_9
REMARK    5  A    between atoms: S_9  and  C_10
REMARK    6  A    between atoms: N_14  and  C_15
REMARK    7  A    between atoms: N_16  and  C_17
REMARK                            x       y       z     vdW  Elec       q    Type
REMARK                         _______ _______ _______ _____ _____    ______ ____
ROOT
ATOM      1  C   UNL     1       7.998   8.003  18.051  0.00  0.00    +0.000 C 
ATOM      2  C   UNL     1       7.404   6.795  17.425  0.00  0.00    +0.000 A 
ATOM      3  C   UNL     1       6.549   5.843  18.025  0.00  0.00    +0.000 A 
ATOM      4  C   UNL     1       6.311   4.917  17.039  0.00  0.00    +0.000 A 
ATOM      5  N   UNL     1       6.936   5.385  15.894  0.00  0.00    +0.000 N 
ATOM      6  N   UNL     1       7.691   6.481  16.155  0.00  0.00    +0.000 NA
ENDROOT
BRANCH   5   7
ATOM      7  C   UNL     1       6.823   4.845  14.583  0.00  0.00    +0.000 A 
ATOM      8  C   UNL     1       7.738   5.204  13.578  0.00  0.00    +0.000 A 
ATOM      9  C   UNL     1       7.582   4.715  12.281  0.00  0.00    +0.000 A 
ATOM     10  C   UNL     1       6.522   3.864  11.984  0.00  0.00    +0.000 A 
ATOM     11  C   UNL     1       5.637   3.471  12.990  0.00  0.00    +0.000 A 
ATOM     12  C   UNL     1       5.792   3.945  14.294  0.00  0.00    +0.000 A 
ENDBRANCH   5   7
BRANCH   4  13
ATOM     13  N   UNL     1       5.680   3.691  17.196  0.00  0.00    +0.000 N 
ATOM     14  C   UNL     1       4.260   3.575  17.351  0.00  0.00    +0.000 C 
ATOM     15  O   UNL     1       3.547   4.547  17.144  0.00  0.00    +0.000 OA
ATOM     16  H   UNL     1       6.253   2.853  17.187  0.00  0.00    +0.000 HD
BRANCH  14  17
ATOM     17  C   UNL     1       3.723   2.165  17.511  0.00  0.00    +0.000 C 
BRANCH  17  18
ATOM     18  S   UNL     1       3.635   1.610  19.242  0.00  0.00    +0.000 S 
BRANCH  18  19
ATOM     19  C   UNL     1       2.716   2.898  19.928  0.00  0.00    +0.000 A 
ATOM     20  N   UNL     1       3.199   3.755  20.798  0.00  0.00    +0.000 NA
ATOM     21  C   UNL     1       2.148   4.572  21.122  0.00  0.00    +0.000 A 
ATOM     22  C   UNL     1       1.019   4.206  20.428  0.00  0.00    +0.000 A 
ATOM     23  N   UNL     1       1.395   3.131  19.664  0.00  0.00    +0.000 N 
ATOM     24  C   UNL     1       0.538   2.418  18.749  0.00  0.00    +0.000 C 
ENDBRANCH  18  19
ENDBRANCH  17  18
ENDBRANCH  14  17
ENDBRANCH   4  13
TORSDOF 5
ENDMDL
MODEL 6
REMARK VINA RESULT:      -7.3      1.163      1.163
REMARK  Name = 
REMARK  7 active torsions:
REMARK  status: ('A' for Active; 'I' for Inactive)
REMARK    1  A    between atoms: C_1  and  C_2
REMARK    2  A    between atoms: C_4  and  N_5
REMARK    3  A    between atoms: C_6  and  C_8
REMARK    4  A    between atoms: C_8  and  S_9
REMARK    5  A    between atoms: S_9  and  C_10
REMARK    6  A    between atoms: N_14  and  C_15
REMARK    7  A    between atoms: N_16  and  C_17
REMARK                            x       y       z     vdW  Elec       q    Type
REMARK                         _______ _______ _______ _____ _____    ______ ____
ROOT
ATOM      1  C   UNL     1       7.448   4.362  12.147  0.00  0.00    +0.000 C 
ATOM      2  C   UNL     1       6.860   4.635  13.482  0.00  0.00    +0.000 A 
ATOM      3  C   UNL     1       5.567   4.295  13.942  0.00  0.00    +0.000 A 
ATOM      4  C   UNL     1       5.509   4.791  15.222  0.00  0.00    +0.000 A 
ATOM      5  N   UNL     1       6.764   5.308  15.505  0.00  0.00    +0.000 N 
ATOM      6  N   UNL     1       7.560   5.305  14.406  0.00  0.00    +0.000 NA
ENDROOT
BRANCH   5   7
ATOM      7  C   UNL     1       7.226   5.775  16.766  0.00  0.00    +0.000 A 
ATOM      8  C   UNL     1       7.450   7.145  16.985  0.00  0.00    +0.000 A 
ATOM      9  C   UNL     1       7.959   7.586  18.207  0.00  0.00    +0.000 A 
ATOM     10  C   UNL     1       8.239   6.666  19.213  0.00  0.00    +0.000 A 
ATOM     11  C   UNL     1       7.977   5.309  19.013  0.00  0.00    +0.000 A 
ATOM     12  C   UNL     1       7.455   4.861  17.798  0.00  0.00    +0.000 A 
ENDBRANCH   5   7
BRANCH   4  13
ATOM     13  N   UNL     1       4.379   4.874  16.022  0.00  0.00    +0.000 N 
ATOM     14  C   UNL     1       3.883   3.753  16.764  0.00  0.00    +0.000 C 
ATOM     15  O   UNL     1       4.567   2.744  16.868  0.00  0.00    +0.000 OA
ATOM     16  H   UNL     1       3.903   5.768  16.086  0.00  0.00    +0.000 HD
BRANCH  14  17
ATOM     17  C   UNL     1       2.638   4.006  17.594  0.00  0.00    +0.000 C 
BRANCH  17  18
ATOM     18  S   UNL     1       2.953   4.963  19.109  0.00  0.00    +0.000 S 
BRANCH  18  19
ATOM     19  C   UNL     1       2.441   3.825  20.300  0.00  0.00    +0.000 A 
ATOM     20  N   UNL     1       1.298   3.906  20.941  0.00  0.00    +0.000 NA
ATOM     21  C   UNL     1       1.301   2.853  21.819  0.00  0.00    +0.000 A 
ATOM     22  C   UNL     1       2.460   2.123  21.695  0.00  0.00    +0.000 A 
ATOM     23  N   UNL     1       3.185   2.756  20.717  0.00  0.00    +0.000 N 
ATOM     24  C   UNL     1       4.473   2.333  20.229  0.00  0.00    +0.000 C 
ENDBRANCH  18  19
ENDBRANCH  17  18
ENDBRANCH  14  17
ENDBRANCH   4  13
TORSDOF 5
ENDMDL
MODEL 7
REMARK VINA RESULT:      -7.2      3.845      6.018
REMARK  Name = 
REMARK  7 active torsions:
REMARK  status: ('A' for Active; 'I' for Inactive)
REMARK    1  A    between atoms: C_1  and  C_2
REMARK    2  A    between atoms: C_4  and  N_5
REMARK    3  A    between atoms: C_6  and  C_8
REMARK    4  A    between atoms: C_8  and  S_9
REMARK    5  A    between atoms: S_9  and  C_10
REMARK    6  A    between atoms: N_14  and  C_15
REMARK    7  A    between atoms: N_16  and  C_17
REMARK                            x       y       z     vdW  Elec       q    Type
REMARK                         _______ _______ _______ _____ _____    ______ ____
ROOT
ATOM      1  C   UNL     1       1.703   2.425  21.511  0.00  0.00    +0.000 C 
ATOM      2  C   UNL     1       2.397   3.528  20.800  0.00  0.00    +0.000 A 
ATOM      3  C   UNL     1       2.129   4.913  20.883  0.00  0.00    +0.000 A 
ATOM      4  C   UNL     1       3.023   5.495  20.018  0.00  0.00    +0.000 A 
ATOM      5  N   UNL     1       3.832   4.476  19.537  0.00  0.00    +0.000 N 
ATOM      6  N   UNL     1       3.385   3.259  19.935  0.00  0.00    +0.000 NA
ENDROOT
BRANCH   5   7
ATOM      7  C   UNL     1       5.003   4.624  18.745  0.00  0.00    +0.000 A 
ATOM      8  C   UNL     1       6.150   5.246  19.268  0.00  0.00    +0.000 A 
ATOM      9  C   UNL     1       7.273   5.439  18.463  0.00  0.00    +0.000 A 
ATOM     10  C   UNL     1       7.259   5.006  17.140  0.00  0.00    +0.000 A 
ATOM     11  C   UNL     1       6.138   4.348  16.630  0.00  0.00    +0.000 A 
ATOM     12  C   UNL     1       5.014   4.140  17.433  0.00  0.00    +0.000 A 
ENDBRANCH   5   7
BRANCH   4  13
ATOM     13  N   UNL     1       3.029   6.820  19.608  0.00  0.00    +0.000 N 
ATOM     14  C   UNL     1       2.534   7.226  18.325  0.00  0.00    +0.000 C 
ATOM     15  O   UNL     1       1.905   6.433  17.639  0.00  0.00    +0.000 OA
ATOM     16  H   UNL     1       3.386   7.519  20.251  0.00  0.00    +0.000 HD
BRANCH  14  17
ATOM     17  C   UNL     1       2.608   8.712  18.027  0.00  0.00    +0.000 C 
BRANCH  17  18
ATOM     18  S   UNL     1       0.988   9.541  18.045  0.00  0.00    +0.000 S 
BRANCH  18  19
ATOM     19  C   UNL     1       0.787   9.780  19.741  0.00  0.00    +0.000 A 
ATOM     20  N   UNL     1       1.220   8.940  20.652  0.00  0.00    +0.000 NA
ATOM     21  C   UNL     1       0.820   9.470  21.851  0.00  0.00    +0.000 A 
ATOM     22  C   UNL     1       0.145  10.652  21.657  0.00  0.00    +0.000 A 
ATOM     23  N   UNL     1       0.130  10.842  20.298  0.00  0.00    +0.000 N 
ATOM     24  C   UNL     1      -0.457  11.971  19.622  0.00  0.00    +0.000 C 
ENDBRANCH  18  19
ENDBRANCH  17  18
ENDBRANCH  14  17
ENDBRANCH   4  13
TORSDOF 5
ENDMDL
MODEL 8
REMARK VINA RESULT:      -7.2      0.639      1.682
REMARK  Name = 
REMARK  7 active torsions:
REMARK  status: ('A' for Active; 'I' for Inactive)
REMARK    1  A    between atoms: C_1  and  C_2
REMARK    2  A    between atoms: C_4  and  N_5
REMARK    3  A    between atoms: C_6  and  C_8
REMARK    4  A    between atoms: C_8  and  S_9
REMARK    5  A    between atoms: S_9  and  C_10
REMARK    6  A    between atoms: N_14  and  C_15
REMARK    7  A    between atoms: N_16  and  C_17
REMARK                            x       y       z     vdW  Elec       q    Type
REMARK                         _______ _______ _______ _____ _____    ______ ____
ROOT
ATOM      1  C   UNL     1       6.706   3.909  12.464  0.00  0.00    +0.000 C 
ATOM      2  C   UNL     1       6.335   4.263  13.857  0.00  0.00    +0.000 A 
ATOM      3  C   UNL     1       5.174   3.880  14.566  0.00  0.00    +0.000 A 
ATOM      4  C   UNL     1       5.297   4.488  15.792  0.00  0.00    +0.000 A 
ATOM      5  N   UNL     1       6.533   5.114  15.804  0.00  0.00    +0.000 N 
ATOM      6  N   UNL     1       7.126   5.064  14.585  0.00  0.00    +0.000 NA
ENDROOT
BRANCH   5   7
ATOM      7  C   UNL     1       7.164   5.727  16.921  0.00  0.00    +0.000 A 
ATOM      8  C   UNL     1       7.503   4.972  18.057  0.00  0.00    +0.000 A 
ATOM      9  C   UNL     1       8.068   5.595  19.170  0.00  0.00    +0.000 A 
ATOM     10  C   UNL     1       8.303   6.966  19.152  0.00  0.00    +0.000 A 
ATOM     11  C   UNL     1       8.006   7.712  18.009  0.00  0.00    +0.000 A 
ATOM     12  C   UNL     1       7.453   7.094  16.885  0.00  0.00    +0.000 A 
ENDBRANCH   5   7
BRANCH   4  13
ATOM     13  N   UNL     1       4.318   4.567  16.772  0.00  0.00    +0.000 N 
ATOM     14  C   UNL     1       3.814   5.821  17.250  0.00  0.00    +0.000 C 
ATOM     15  O   UNL     1       4.093   6.853  16.654  0.00  0.00    +0.000 OA
ATOM     16  H   UNL     1       3.945   3.702  17.148  0.00  0.00    +0.000 HD
BRANCH  14  17
ATOM     17  C   UNL     1       2.745   5.740  18.323  0.00  0.00    +0.000 C 
BRANCH  17  18
ATOM     18  S   UNL     1       1.844   4.158  18.338  0.00  0.00    +0.000 S 
BRANCH  18  19
ATOM     19  C   UNL     1       2.912   3.210  19.305  0.00  0.00    +0.000 A 
ATOM     20  N   UNL     1       3.916   2.518  18.818  0.00  0.00    +0.000 NA
ATOM     21  C   UNL     1       4.471   1.879  19.895  0.00  0.00    +0.000 A 
ATOM     22  C   UNL     1       3.796   2.200  21.049  0.00  0.00    +0.000 A 
ATOM     23  N   UNL     1       2.797   3.055  20.658  0.00  0.00    +0.000 N 
ATOM     24  C   UNL     1       1.838   3.674  21.539  0.00  0.00    +0.000 C 
ENDBRANCH  18  19
ENDBRANCH  17  18
ENDBRANCH  14  17
ENDBRANCH   4  13
TORSDOF 5
ENDMDL
MODEL 9
REMARK VINA RESULT:      -7.2      4.450      6.642
REMARK  Name = 
REMARK  7 active torsions:
REMARK  status: ('A' for Active; 'I' for Inactive)
REMARK    1  A    between atoms: C_1  and  C_2
REMARK    2  A    between atoms: C_4  and  N_5
REMARK    3  A    between atoms: C_6  and  C_8
REMARK    4  A    between atoms: C_8  and  S_9
REMARK    5  A    between atoms: S_9  and  C_10
REMARK    6  A    between atoms: N_14  and  C_15
REMARK    7  A    between atoms: N_16  and  C_17
REMARK                            x       y       z     vdW  Elec       q    Type
REMARK                         _______ _______ _______ _____ _____    ______ ____
ROOT
ATOM      1  C   UNL     1       1.811   2.771  21.593  0.00  0.00    +0.000 C 
ATOM      2  C   UNL     1       2.377   3.715  20.596  0.00  0.00    +0.000 A 
ATOM      3  C   UNL     1       1.918   5.013  20.276  0.00  0.00    +0.000 A 
ATOM      4  C   UNL     1       2.760   5.447  19.282  0.00  0.00    +0.000 A 
ATOM      5  N   UNL     1       3.720   4.461  19.115  0.00  0.00    +0.000 N 
ATOM      6  N   UNL     1       3.428   3.356  19.846  0.00  0.00    +0.000 NA
ENDROOT
BRANCH   5   7
ATOM      7  C   UNL     1       4.893   4.544  18.316  0.00  0.00    +0.000 A 
ATOM      8  C   UNL     1       4.881   4.117  16.977  0.00  0.00    +0.000 A 
ATOM      9  C   UNL     1       6.052   4.147  16.220  0.00  0.00    +0.000 A 
ATOM     10  C   UNL     1       7.234   4.609  16.791  0.00  0.00    +0.000 A 
ATOM     11  C   UNL     1       7.240   5.074  18.107  0.00  0.00    +0.000 A 
ATOM     12  C   UNL     1       6.070   5.060  18.868  0.00  0.00    +0.000 A 
ENDBRANCH   5   7
BRANCH   4  13
ATOM     13  N   UNL     1       2.601   6.587  18.508  0.00  0.00    +0.000 N 
ATOM     14  C   UNL     1       2.112   7.820  19.053  0.00  0.00    +0.000 C 
ATOM     15  O   UNL     1       2.016   7.950  20.265  0.00  0.00    +0.000 OA
ATOM     16  H   UNL     1       2.854   6.539  17.527  0.00  0.00    +0.000 HD
BRANCH  14  17
ATOM     17  C   UNL     1       1.997   8.976  18.077  0.00  0.00    +0.000 C 
BRANCH  17  18
ATOM     18  S   UNL     1       0.508   9.993  18.324  0.00  0.00    +0.000 S 
BRANCH  18  19
ATOM     19  C   UNL     1       1.212  11.392  19.047  0.00  0.00    +0.000 A 
ATOM     20  N   UNL     1       1.980  12.238  18.401  0.00  0.00    +0.000 NA
ATOM     21  C   UNL     1       2.364  13.164  19.336  0.00  0.00    +0.000 A 
ATOM     22  C   UNL     1       1.809  12.875  20.560  0.00  0.00    +0.000 A 
ATOM     23  N   UNL     1       1.071  11.735  20.363  0.00  0.00    +0.000 N 
ATOM     24  C   UNL     1       0.288  11.064  21.372  0.00  0.00    +0.000 C 
ENDBRANCH  18  19
ENDBRANCH  17  18
ENDBRANCH  14  17
ENDBRANCH   4  13
TORSDOF 5
ENDMDL
