MODEL 1
REMARK VINA RESULT:      -5.7      0.000      0.000
REMARK  Name = 
REMARK  6 active torsions:
REMARK  status: ('A' for Active; 'I' for Inactive)
REMARK    1  A    between atoms: C_1  and  N_2
REMARK    2  A    between atoms: N_2  and  C_3
REMARK    3  A    between atoms: N_2  and  C_11
REMARK    4  A    between atoms: C_3  and  C_4
REMARK    5  A    between atoms: C_4  and  C_5
REMARK    6  A    between atoms: C_11  and  C_12
REMARK                            x       y       z     vdW  Elec       q    Type
REMARK                         _______ _______ _______ _____ _____    ______ ____
ROOT
ATOM      1  C   UNL     1       2.937   7.433  18.165  0.00  0.00    +0.000 C 
ATOM      2  N   UNL     1       3.122   5.970  18.135  0.00  0.00    +0.000 NA
ENDROOT
BRANCH   2   3
ATOM      3  C   UNL     1       1.822   5.340  17.798  0.00  0.00    +0.000 C 
BRANCH   3   4
ATOM      4  C   UNL     1       1.806   3.804  17.910  0.00  0.00    +0.000 C 
BRANCH   4   5
ATOM      5  C   UNL     1       2.098   3.319  19.309  0.00  0.00    +0.000 A 
ATOM      6  C   UNL     1       3.359   2.808  19.637  0.00  0.00    +0.000 A 
ATOM      7  C   UNL     1       3.596   2.400  20.940  0.00  0.00    +0.000 A 
ATOM      8  N   UNL     1       2.675   2.459  21.924  0.00  0.00    +0.000 NA
ATOM      9  C   UNL     1       1.463   2.946  21.586  0.00  0.00    +0.000 A 
ATOM     10  C   UNL     1       1.129   3.381  20.311  0.00  0.00    +0.000 A 
ENDBRANCH   4   5
ENDBRANCH   3   4
ENDBRANCH   2   3
BRANCH   2  11
ATOM     11  C   UNL     1       4.161   5.604  17.146  0.00  0.00    +0.000 C 
BRANCH  11  12
ATOM     12  C   UNL     1       5.549   5.932  17.623  0.00  0.00    +0.000 A 
ATOM     13  C   UNL     1       6.215   5.362  18.694  0.00  0.00    +0.000 A 
ATOM     14  S   UNL     1       7.779   6.045  18.850  0.00  0.00    +0.000 S 
ATOM     15  C   UNL     1       7.461   7.034  17.488  0.00  0.00    +0.000 A 
ATOM     16  N   UNL     1       6.281   6.893  16.933  0.00  0.00    +0.000 NA
ENDBRANCH  11  12
ENDBRANCH   2  11
TORSDOF 5
ENDMDL
MODEL 2
REMARK VINA RESULT:      -5.4      2.537      3.174
REMARK  Name = 
REMARK  6 active torsions:
REMARK  status: ('A' for Active; 'I' for Inactive)
REMARK    1  A    between atoms: C_1  and  N_2
REMARK    2  A    between atoms: N_2  and  C_3
REMARK    3  A    between atoms: N_2  and  C_11
REMARK    4  A    between atoms: C_3  and  C_4
REMARK    5  A    between atoms: C_4  and  C_5
REMARK    6  A    between atoms: C_11  and  C_12
REMARK                            x       y       z     vdW  Elec       q    Type
REMARK                         _______ _______ _______ _____ _____    ______ ____
ROOT
ATOM      1  C   UNL     1       5.776   6.772  17.283  0.00  0.00    +0.000 C 
ATOM      2  N   UNL     1       6.320   5.699  18.136  0.00  0.00    +0.000 NA
ENDROOT
BRANCH   2   3
ATOM      3  C   UNL     1       5.205   4.800  18.525  0.00  0.00    +0.000 C 
BRANCH   3   4
ATOM      4  C   UNL     1       3.985   5.518  19.134  0.00  0.00    +0.000 C 
BRANCH   4   5
ATOM      5  C   UNL     1       2.802   4.599  19.320  0.00  0.00    +0.000 A 
ATOM      6  C   UNL     1       2.333   3.818  18.257  0.00  0.00    +0.000 A 
ATOM      7  C   UNL     1       1.262   2.966  18.477  0.00  0.00    +0.000 A 
ATOM      8  N   UNL     1       0.631   2.844  19.663  0.00  0.00    +0.000 NA
ATOM      9  C   UNL     1       1.092   3.612  20.672  0.00  0.00    +0.000 A 
ATOM     10  C   UNL     1       2.157   4.494  20.553  0.00  0.00    +0.000 A 
ENDBRANCH   4   5
ENDBRANCH   3   4
ENDBRANCH   2   3
BRANCH   2  11
ATOM     11  C   UNL     1       7.374   4.953  17.412  0.00  0.00    +0.000 C 
BRANCH  11  12
ATOM     12  C   UNL     1       7.004   4.678  15.981  0.00  0.00    +0.000 A 
ATOM     13  C   UNL     1       6.042   3.793  15.528  0.00  0.00    +0.000 A 
ATOM     14  S   UNL     1       5.965   3.827  13.817  0.00  0.00    +0.000 S 
ATOM     15  C   UNL     1       7.201   5.013  13.805  0.00  0.00    +0.000 A 
ATOM     16  N   UNL     1       7.664   5.379  14.977  0.00  0.00    +0.000 NA
ENDBRANCH  11  12
ENDBRANCH   2  11
TORSDOF 5
ENDMDL
MODEL 3
REMARK VINA RESULT:      -5.4      3.090      3.688
REMARK  Name = 
REMARK  6 active torsions:
REMARK  status: ('A' for Active; 'I' for Inactive)
REMARK    1  A    between atoms: C_1  and  N_2
REMARK    2  A    between atoms: N_2  and  C_3
REMARK    3  A    between atoms: N_2  and  C_11
REMARK    4  A    between atoms: C_3  and  C_4
REMARK    5  A    between atoms: C_4  and  C_5
REMARK    6  A    between atoms: C_11  and  C_12
REMARK                            x       y       z     vdW  Elec       q    Type
REMARK                         _______ _______ _______ _____ _____    ______ ____
ROOT
ATOM      1  C   UNL     1       6.258   4.606  18.101  0.00  0.00    +0.000 C 
ATOM      2  N   UNL     1       5.796   4.251  16.747  0.00  0.00    +0.000 NA
ENDROOT
BRANCH   2   3
ATOM      3  C   UNL     1       4.345   3.945  16.813  0.00  0.00    +0.000 C 
BRANCH   3   4
ATOM      4  C   UNL     1       3.499   5.006  17.544  0.00  0.00    +0.000 C 
BRANCH   4   5
ATOM      5  C   UNL     1       2.522   4.399  18.521  0.00  0.00    +0.000 A 
ATOM      6  C   UNL     1       2.197   5.063  19.709  0.00  0.00    +0.000 A 
ATOM      7  C   UNL     1       1.273   4.486  20.566  0.00  0.00    +0.000 A 
ATOM      8  N   UNL     1       0.664   3.306  20.327  0.00  0.00    +0.000 NA
ATOM      9  C   UNL     1       0.997   2.676  19.181  0.00  0.00    +0.000 A 
ATOM     10  C   UNL     1       1.908   3.173  18.260  0.00  0.00    +0.000 A 
ENDBRANCH   4   5
ENDBRANCH   3   4
ENDBRANCH   2   3
BRANCH   2  11
ATOM     11  C   UNL     1       6.061   5.362  15.805  0.00  0.00    +0.000 C 
BRANCH  11  12
ATOM     12  C   UNL     1       6.496   4.874  14.451  0.00  0.00    +0.000 A 
ATOM     13  C   UNL     1       5.921   3.856  13.711  0.00  0.00    +0.000 A 
ATOM     14  S   UNL     1       6.751   3.664  12.224  0.00  0.00    +0.000 S 
ATOM     15  C   UNL     1       7.799   4.944  12.666  0.00  0.00    +0.000 A 
ATOM     16  N   UNL     1       7.577   5.497  13.835  0.00  0.00    +0.000 NA
ENDBRANCH  11  12
ENDBRANCH   2  11
TORSDOF 5
ENDMDL
MODEL 4
REMARK VINA RESULT:      -5.3      3.012      3.827
REMARK  Name = 
REMARK  6 active torsions:
REMARK  status: ('A' for Active; 'I' for Inactive)
REMARK    1  A    between atoms: C_1  and  N_2
REMARK    2  A    between atoms: N_2  and  C_3
REMARK    3  A    between atoms: N_2  and  C_11
REMARK    4  A    between atoms: C_3  and  C_4
REMARK    5  A    between atoms: C_4  and  C_5
REMARK    6  A    between atoms: C_11  and  C_12
REMARK                            x       y       z     vdW  Elec       q    Type
REMARK                         _______ _______ _______ _____ _____    ______ ____
ROOT
ATOM      1  C   UNL     1       7.819   4.532  17.470  0.00  0.00    +0.000 C 
ATOM      2  N   UNL     1       6.390   4.644  17.125  0.00  0.00    +0.000 NA
ENDROOT
BRANCH   2   3
ATOM      3  C   UNL     1       5.647   5.070  18.338  0.00  0.00    +0.000 C 
BRANCH   3   4
ATOM      4  C   UNL     1       4.171   5.435  18.090  0.00  0.00    +0.000 C 
BRANCH   4   5
ATOM      5  C   UNL     1       3.241   4.261  18.279  0.00  0.00    +0.000 A 
ATOM      6  C   UNL     1       3.748   2.994  18.590  0.00  0.00    +0.000 A 
ATOM      7  C   UNL     1       2.859   1.949  18.785  0.00  0.00    +0.000 A 
ATOM      8  N   UNL     1       1.519   2.075  18.685  0.00  0.00    +0.000 NA
ATOM      9  C   UNL     1       1.050   3.302  18.375  0.00  0.00    +0.000 A 
ATOM     10  C   UNL     1       1.858   4.411  18.163  0.00  0.00    +0.000 A 
ENDBRANCH   4   5
ENDBRANCH   3   4
ENDBRANCH   2   3
BRANCH   2  11
ATOM     11  C   UNL     1       6.203   5.613  16.022  0.00  0.00    +0.000 C 
BRANCH  11  12
ATOM     12  C   UNL     1       6.499   5.014  14.675  0.00  0.00    +0.000 A 
ATOM     13  C   UNL     1       5.788   4.010  14.039  0.00  0.00    +0.000 A 
ATOM     14  S   UNL     1       6.492   3.662  12.516  0.00  0.00    +0.000 S 
ATOM     15  C   UNL     1       7.673   4.866  12.808  0.00  0.00    +0.000 A 
ATOM     16  N   UNL     1       7.582   5.502  13.952  0.00  0.00    +0.000 NA
ENDBRANCH  11  12
ENDBRANCH   2  11
TORSDOF 5
ENDMDL
MODEL 5
REMARK VINA RESULT:      -5.2      2.405      5.372
REMARK  Name = 
REMARK  6 active torsions:
REMARK  status: ('A' for Active; 'I' for Inactive)
REMARK    1  A    between atoms: C_1  and  N_2
REMARK    2  A    between atoms: N_2  and  C_3
REMARK    3  A    between atoms: N_2  and  C_11
REMARK    4  A    between atoms: C_3  and  C_4
REMARK    5  A    between atoms: C_4  and  C_5
REMARK    6  A    between atoms: C_11  and  C_12
REMARK                            x       y       z     vdW  Elec       q    Type
REMARK                         _______ _______ _______ _____ _____    ______ ____
ROOT
ATOM      1  C   UNL     1       2.916   2.674  20.745  0.00  0.00    +0.000 C 
ATOM      2  N   UNL     1       3.407   3.844  19.995  0.00  0.00    +0.000 NA
ENDROOT
BRANCH   2   3
ATOM      3  C   UNL     1       4.623   3.444  19.244  0.00  0.00    +0.000 C 
BRANCH   3   4
ATOM      4  C   UNL     1       4.445   3.395  17.715  0.00  0.00    +0.000 C 
BRANCH   4   5
ATOM      5  C   UNL     1       5.491   4.200  16.982  0.00  0.00    +0.000 A 
ATOM      6  C   UNL     1       5.854   3.871  15.671  0.00  0.00    +0.000 A 
ATOM      7  C   UNL     1       6.797   4.652  15.022  0.00  0.00    +0.000 A 
ATOM      8  N   UNL     1       7.401   5.720  15.584  0.00  0.00    +0.000 NA
ATOM      9  C   UNL     1       7.045   6.016  16.851  0.00  0.00    +0.000 A 
ATOM     10  C   UNL     1       6.111   5.297  17.583  0.00  0.00    +0.000 A 
ENDBRANCH   4   5
ENDBRANCH   3   4
ENDBRANCH   2   3
BRANCH   2  11
ATOM     11  C   UNL     1       2.357   4.342  19.077  0.00  0.00    +0.000 C 
BRANCH  11  12
ATOM     12  C   UNL     1       2.280   5.844  19.054  0.00  0.00    +0.000 A 
ATOM     13  C   UNL     1       2.485   6.669  17.962  0.00  0.00    +0.000 A 
ATOM     14  S   UNL     1       2.278   8.309  18.414  0.00  0.00    +0.000 S 
ATOM     15  C   UNL     1       1.927   7.804  20.012  0.00  0.00    +0.000 A 
ATOM     16  N   UNL     1       1.954   6.511  20.230  0.00  0.00    +0.000 NA
ENDBRANCH  11  12
ENDBRANCH   2  11
TORSDOF 5
ENDMDL
MODEL 6
REMARK VINA RESULT:      -5.2      3.008      3.696
REMARK  Name = 
REMARK  6 active torsions:
REMARK  status: ('A' for Active; 'I' for Inactive)
REMARK    1  A    between atoms: C_1  and  N_2
REMARK    2  A    between atoms: N_2  and  C_3
REMARK    3  A    between atoms: N_2  and  C_11
REMARK    4  A    between atoms: C_3  and  C_4
REMARK    5  A    between atoms: C_4  and  C_5
REMARK    6  A    between atoms: C_11  and  C_12
REMARK                            x       y       z     vdW  Elec       q    Type
REMARK                         _______ _______ _______ _____ _____    ______ ____
ROOT
ATOM      1  C   UNL     1       5.053   6.524  15.785  0.00  0.00    +0.000 C 
ATOM      2  N   UNL     1       6.067   5.876  16.637  0.00  0.00    +0.000 NA
ENDROOT
BRANCH   2   3
ATOM      3  C   UNL     1       5.541   5.809  18.023  0.00  0.00    +0.000 C 
BRANCH   3   4
ATOM      4  C   UNL     1       4.004   5.818  18.126  0.00  0.00    +0.000 C 
BRANCH   4   5
ATOM      5  C   UNL     1       3.433   4.454  18.431  0.00  0.00    +0.000 A 
ATOM      6  C   UNL     1       2.853   3.682  17.419  0.00  0.00    +0.000 A 
ATOM      7  C   UNL     1       2.367   2.423  17.734  0.00  0.00    +0.000 A 
ATOM      8  N   UNL     1       2.411   1.891  18.974  0.00  0.00    +0.000 NA
ATOM      9  C   UNL     1       2.964   2.654  19.938  0.00  0.00    +0.000 A 
ATOM     10  C   UNL     1       3.480   3.924  19.722  0.00  0.00    +0.000 A 
ENDBRANCH   4   5
ENDBRANCH   3   4
ENDBRANCH   2   3
BRANCH   2  11
ATOM     11  C   UNL     1       6.380   4.523  16.124  0.00  0.00    +0.000 C 
BRANCH  11  12
ATOM     12  C   UNL     1       6.764   4.535  14.670  0.00  0.00    +0.000 A 
ATOM     13  C   UNL     1       6.204   3.777  13.657  0.00  0.00    +0.000 A 
ATOM     14  S   UNL     1       6.957   4.139  12.161  0.00  0.00    +0.000 S 
ATOM     15  C   UNL     1       7.957   5.275  12.962  0.00  0.00    +0.000 A 
ATOM     16  N   UNL     1       7.772   5.399  14.255  0.00  0.00    +0.000 NA
ENDBRANCH  11  12
ENDBRANCH   2  11
TORSDOF 5
ENDMDL
MODEL 7
REMARK VINA RESULT:      -5.2      2.304      5.235
REMARK  Name = 
REMARK  6 active torsions:
REMARK  status: ('A' for Active; 'I' for Inactive)
REMARK    1  A    between atoms: C_1  and  N_2
REMARK    2  A    between atoms: N_2  and  C_3
REMARK    3  A    between atoms: N_2  and  C_11
REMARK    4  A    between atoms: C_3  and  C_4
REMARK    5  A    between atoms: C_4  and  C_5
REMARK    6  A    between atoms: C_11  and  C_12
REMARK                            x       y       z     vdW  Elec       q    Type
REMARK                         _______ _______ _______ _____ _____    ______ ____
ROOT
ATOM      1  C   UNL     1       1.779   7.471  20.443  0.00  0.00    +0.000 C 
ATOM      2  N   UNL     1       2.189   6.307  19.635  0.00  0.00    +0.000 NA
ENDROOT
BRANCH   2   3
ATOM      3  C   UNL     1       3.520   6.592  19.045  0.00  0.00    +0.000 C 
BRANCH   3   4
ATOM      4  C   UNL     1       3.599   6.402  17.518  0.00  0.00    +0.000 C 
BRANCH   4   5
ATOM      5  C   UNL     1       4.912   5.805  17.073  0.00  0.00    +0.000 A 
ATOM      6  C   UNL     1       4.939   4.627  16.317  0.00  0.00    +0.000 A 
ATOM      7  C   UNL     1       6.163   4.127  15.903  0.00  0.00    +0.000 A 
ATOM      8  N   UNL     1       7.347   4.707  16.193  0.00  0.00    +0.000 NA
ATOM      9  C   UNL     1       7.301   5.836  16.930  0.00  0.00    +0.000 A 
ATOM     10  C   UNL     1       6.127   6.415  17.389  0.00  0.00    +0.000 A 
ENDBRANCH   4   5
ENDBRANCH   3   4
ENDBRANCH   2   3
BRANCH   2  11
ATOM     11  C   UNL     1       2.231   5.088  20.474  0.00  0.00    +0.000 C 
BRANCH  11  12
ATOM     12  C   UNL     1       2.496   3.846  19.668  0.00  0.00    +0.000 A 
ATOM     13  C   UNL     1       3.643   3.072  19.690  0.00  0.00    +0.000 A 
ATOM     14  S   UNL     1       3.483   1.749  18.612  0.00  0.00    +0.000 S 
ATOM     15  C   UNL     1       1.911   2.294  18.207  0.00  0.00    +0.000 A 
ATOM     16  N   UNL     1       1.502   3.384  18.811  0.00  0.00    +0.000 NA
ENDBRANCH  11  12
ENDBRANCH   2  11
TORSDOF 5
ENDMDL
MODEL 8
REMARK VINA RESULT:      -5.2      2.309      5.277
REMARK  Name = 
REMARK  6 active torsions:
REMARK  status: ('A' for Active; 'I' for Inactive)
REMARK    1  A    between atoms: C_1  and  N_2
REMARK    2  A    between atoms: N_2  and  C_3
REMARK    3  A    between atoms: N_2  and  C_11
REMARK    4  A    between atoms: C_3  and  C_4
REMARK    5  A    between atoms: C_4  and  C_5
REMARK    6  A    between atoms: C_11  and  C_12
REMARK                            x       y       z     vdW  Elec       q    Type
REMARK                         _______ _______ _______ _____ _____    ______ ____
ROOT
ATOM      1  C   UNL     1       2.808   2.697  20.994  0.00  0.00    +0.000 C 
ATOM      2  N   UNL     1       3.323   3.715  20.060  0.00  0.00    +0.000 NA
ENDROOT
BRANCH   2   3
ATOM      3  C   UNL     1       4.386   3.096  19.231  0.00  0.00    +0.000 C 
BRANCH   3   4
ATOM      4  C   UNL     1       4.185   3.249  17.711  0.00  0.00    +0.000 C 
BRANCH   4   5
ATOM      5  C   UNL     1       5.249   4.104  17.067  0.00  0.00    +0.000 A 
ATOM      6  C   UNL     1       6.216   4.748  17.848  0.00  0.00    +0.000 A 
ATOM      7  C   UNL     1       7.193   5.500  17.215  0.00  0.00    +0.000 A 
ATOM      8  N   UNL     1       7.268   5.659  15.877  0.00  0.00    +0.000 NA
ATOM      9  C   UNL     1       6.321   5.039  15.142  0.00  0.00    +0.000 A 
ATOM     10  C   UNL     1       5.305   4.264  15.681  0.00  0.00    +0.000 A 
ENDBRANCH   4   5
ENDBRANCH   3   4
ENDBRANCH   2   3
BRANCH   2  11
ATOM     11  C   UNL     1       2.226   4.236  19.213  0.00  0.00    +0.000 C 
BRANCH  11  12
ATOM     12  C   UNL     1       2.210   5.739  19.154  0.00  0.00    +0.000 A 
ATOM     13  C   UNL     1       2.469   6.528  18.047  0.00  0.00    +0.000 A 
ATOM     14  S   UNL     1       2.322   8.186  18.456  0.00  0.00    +0.000 S 
ATOM     15  C   UNL     1       1.920   7.734  20.058  0.00  0.00    +0.000 A 
ATOM     16  N   UNL     1       1.891   6.447  20.308  0.00  0.00    +0.000 NA
ENDBRANCH  11  12
ENDBRANCH   2  11
TORSDOF 5
ENDMDL
MODEL 9
REMARK VINA RESULT:      -5.2      2.790      3.784
REMARK  Name = 
REMARK  6 active torsions:
REMARK  status: ('A' for Active; 'I' for Inactive)
REMARK    1  A    between atoms: C_1  and  N_2
REMARK    2  A    between atoms: N_2  and  C_3
REMARK    3  A    between atoms: N_2  and  C_11
REMARK    4  A    between atoms: C_3  and  C_4
REMARK    5  A    between atoms: C_4  and  C_5
REMARK    6  A    between atoms: C_11  and  C_12
REMARK                            x       y       z     vdW  Elec       q    Type
REMARK                         _______ _______ _______ _____ _____    ______ ____
ROOT
ATOM      1  C   UNL     1       5.350   6.408  16.410  0.00  0.00    +0.000 C 
ATOM      2  N   UNL     1       6.383   6.022  17.389  0.00  0.00    +0.000 NA
ENDROOT
BRANCH   2   3
ATOM      3  C   UNL     1       5.716   5.719  18.679  0.00  0.00    +0.000 C 
BRANCH   3   4
ATOM      4  C   UNL     1       5.422   4.226  18.914  0.00  0.00    +0.000 C 
BRANCH   4   5
ATOM      5  C   UNL     1       3.999   3.852  18.576  0.00  0.00    +0.000 A 
ATOM      6  C   UNL     1       2.947   4.735  18.847  0.00  0.00    +0.000 A 
ATOM      7  C   UNL     1       1.658   4.367  18.495  0.00  0.00    +0.000 A 
ATOM      8  N   UNL     1       1.348   3.193  17.908  0.00  0.00    +0.000 NA
ATOM      9  C   UNL     1       2.373   2.351  17.664  0.00  0.00    +0.000 A 
ATOM     10  C   UNL     1       3.697   2.629  17.976  0.00  0.00    +0.000 A 
ENDBRANCH   4   5
ENDBRANCH   3   4
ENDBRANCH   2   3
BRANCH   2  11
ATOM     11  C   UNL     1       7.144   4.851  16.898  0.00  0.00    +0.000 C 
BRANCH  11  12
ATOM     12  C   UNL     1       6.959   4.623  15.423  0.00  0.00    +0.000 A 
ATOM     13  C   UNL     1       6.086   3.732  14.824  0.00  0.00    +0.000 A 
ATOM     14  S   UNL     1       6.217   3.832  13.119  0.00  0.00    +0.000 S 
ATOM     15  C   UNL     1       7.409   5.048  13.301  0.00  0.00    +0.000 A 
ATOM     16  N   UNL     1       7.714   5.380  14.533  0.00  0.00    +0.000 NA
ENDBRANCH  11  12
ENDBRANCH   2  11
TORSDOF 5
ENDMDL
