MODEL 1
REMARK VINA RESULT:      -8.8      0.000      0.000
REMARK  Name = 
REMARK  8 active torsions:
REMARK  status: ('A' for Active; 'I' for Inactive)
REMARK    1  A    between atoms: C_2  and  C_3
REMARK    2  A    between atoms: C_3  and  N_4
REMARK    3  A    between atoms: C_6  and  C_7
REMARK    4  A    between atoms: C_7  and  N_8
REMARK    5  A    between atoms: N_8  and  C_9
REMARK    6  A    between atoms: N_8  and  C_21
REMARK    7  A    between atoms: C_25  and  O_26
REMARK    8  A    between atoms: O_26  and  C_27
REMARK                            x       y       z     vdW  Elec       q    Type
REMARK                         _______ _______ _______ _____ _____    ______ ____
ROOT
ATOM      1  N   UNL     1       3.956   6.035  17.930  0.00  0.00    +0.000 N 
ENDROOT
BRANCH   1   2
ATOM      2  C   UNL     1       3.110   7.081  18.349  0.00  0.00    +0.000 C 
ATOM      3  C   UNL     1       2.872   8.169  17.605  0.00  0.00    +0.000 C 
ATOM      4  C   UNL     1       2.019   9.283  18.045  0.00  0.00    +0.000 C 
ATOM      5  O   UNL     1       1.879  10.270  17.333  0.00  0.00    +0.000 OA
ATOM      6  C   UNL     1       1.334   9.160  19.339  0.00  0.00    +0.000 A 
ATOM      7  C   UNL     1       0.497  10.192  19.780  0.00  0.00    +0.000 A 
ATOM      8  C   UNL     1      -0.204  10.057  20.980  0.00  0.00    +0.000 A 
ATOM      9  C   UNL     1      -0.078   8.890  21.731  0.00  0.00    +0.000 A 
ATOM     10  C   UNL     1       0.776   7.872  21.304  0.00  0.00    +0.000 A 
ATOM     11  C   UNL     1       1.499   8.014  20.111  0.00  0.00    +0.000 A 
ATOM     12  C   UNL     1       2.461   6.967  19.710  0.00  0.00    +0.000 C 
ATOM     13  O   UNL     1       2.737   6.078  20.506  0.00  0.00    +0.000 OA
ENDBRANCH   1   2
BRANCH   1  14
ATOM     14  C   UNL     1       3.549   4.681  18.048  0.00  0.00    +0.000 A 
ATOM     15  C   UNL     1       2.282   4.290  17.573  0.00  0.00    +0.000 A 
ATOM     16  C   UNL     1       1.810   2.988  17.737  0.00  0.00    +0.000 A 
ATOM     17  C   UNL     1       2.600   2.048  18.388  0.00  0.00    +0.000 A 
ATOM     18  C   UNL     1       3.869   2.393  18.853  0.00  0.00    +0.000 A 
ATOM     19  C   UNL     1       4.344   3.696  18.658  0.00  0.00    +0.000 A 
BRANCH  18  20
ATOM     20  O   UNL     1       4.534   1.383  19.493  0.00  0.00    +0.000 OA
ATOM     21  C   UNL     1       4.851   1.589  20.865  0.00  0.00    +0.000 C 
ENDBRANCH  18  20
ENDBRANCH   1  14
BRANCH   1  22
ATOM     22  C   UNL     1       5.359   6.313  17.543  0.00  0.00    +0.000 C 
BRANCH  22  25
ATOM     23  N   UNL     1       6.294   4.655  14.439  0.00  0.00    +0.000 N 
ATOM     24  C   UNL     1       5.278   4.993  15.283  0.00  0.00    +0.000 A 
ATOM     25  C   UNL     1       5.885   5.764  16.251  0.00  0.00    +0.000 A 
ATOM     26  N   UNL     1       7.198   5.963  15.894  0.00  0.00    +0.000 NA
ATOM     27  N   UNL     1       7.434   5.285  14.778  0.00  0.00    +0.000 NA
BRANCH  23  28
ATOM     28  C   UNL     1       6.304   3.572  13.471  0.00  0.00    +0.000 C 
BRANCH  28  30
ATOM     29  C   UNL     1       4.527   3.205  11.735  0.00  0.00    +0.000 C 
ATOM     30  C   UNL     1       5.572   3.902  12.204  0.00  0.00    +0.000 C 
ENDBRANCH  28  30
ENDBRANCH  23  28
ENDBRANCH  22  25
ENDBRANCH   1  22
TORSDOF 7
ENDMDL
MODEL 2
REMARK VINA RESULT:      -8.4      1.273      1.403
REMARK  Name = 
REMARK  8 active torsions:
REMARK  status: ('A' for Active; 'I' for Inactive)
REMARK    1  A    between atoms: C_2  and  C_3
REMARK    2  A    between atoms: C_3  and  N_4
REMARK    3  A    between atoms: C_6  and  C_7
REMARK    4  A    between atoms: C_7  and  N_8
REMARK    5  A    between atoms: N_8  and  C_9
REMARK    6  A    between atoms: N_8  and  C_21
REMARK    7  A    between atoms: C_25  and  O_26
REMARK    8  A    between atoms: O_26  and  C_27
REMARK                            x       y       z     vdW  Elec       q    Type
REMARK                         _______ _______ _______ _____ _____    ______ ____
ROOT
ATOM      1  N   UNL     1       3.734   5.887  18.673  0.00  0.00    +0.000 N 
ENDROOT
BRANCH   1   2
ATOM      2  C   UNL     1       2.945   7.046  18.817  0.00  0.00    +0.000 C 
ATOM      3  C   UNL     1       2.885   8.008  17.887  0.00  0.00    +0.000 C 
ATOM      4  C   UNL     1       2.092   9.237  18.040  0.00  0.00    +0.000 C 
ATOM      5  O   UNL     1       2.117  10.099  17.169  0.00  0.00    +0.000 OA
ATOM      6  C   UNL     1       1.265   9.382  19.246  0.00  0.00    +0.000 A 
ATOM      7  C   UNL     1       0.482  10.530  19.415  0.00  0.00    +0.000 A 
ATOM      8  C   UNL     1      -0.351  10.648  20.529  0.00  0.00    +0.000 A 
ATOM      9  C   UNL     1      -0.410   9.617  21.466  0.00  0.00    +0.000 A 
ATOM     10  C   UNL     1       0.390   8.484  21.310  0.00  0.00    +0.000 A 
ATOM     11  C   UNL     1       1.245   8.373  20.204  0.00  0.00    +0.000 A 
ATOM     12  C   UNL     1       2.147   7.208  20.092  0.00  0.00    +0.000 C 
ATOM     13  O   UNL     1       2.257   6.448  21.046  0.00  0.00    +0.000 OA
ENDBRANCH   1   2
BRANCH   1  14
ATOM     14  C   UNL     1       3.133   4.604  18.608  0.00  0.00    +0.000 A 
ATOM     15  C   UNL     1       2.774   4.064  17.357  0.00  0.00    +0.000 A 
ATOM     16  C   UNL     1       2.113   2.841  17.252  0.00  0.00    +0.000 A 
ATOM     17  C   UNL     1       1.790   2.133  18.403  0.00  0.00    +0.000 A 
ATOM     18  C   UNL     1       2.148   2.626  19.658  0.00  0.00    +0.000 A 
ATOM     19  C   UNL     1       2.837   3.841  19.751  0.00  0.00    +0.000 A 
BRANCH  18  20
ATOM     20  O   UNL     1       1.753   1.844  20.710  0.00  0.00    +0.000 OA
ATOM     21  C   UNL     1       1.459   2.510  21.933  0.00  0.00    +0.000 C 
ENDBRANCH  18  20
ENDBRANCH   1  14
BRANCH   1  22
ATOM     22  C   UNL     1       5.209   5.965  18.785  0.00  0.00    +0.000 C 
BRANCH  22  25
ATOM     23  N   UNL     1       6.862   5.150  15.645  0.00  0.00    +0.000 N 
ATOM     24  C   UNL     1       5.867   5.856  16.252  0.00  0.00    +0.000 A 
ATOM     25  C   UNL     1       6.053   5.613  17.597  0.00  0.00    +0.000 A 
ATOM     26  N   UNL     1       7.207   4.884  17.755  0.00  0.00    +0.000 NA
ATOM     27  N   UNL     1       7.698   4.613  16.553  0.00  0.00    +0.000 NA
BRANCH  23  28
ATOM     28  C   UNL     1       6.924   4.747  14.250  0.00  0.00    +0.000 C 
BRANCH  28  30
ATOM     29  C   UNL     1       5.588   3.416  12.592  0.00  0.00    +0.000 C 
ATOM     30  C   UNL     1       5.708   3.997  13.795  0.00  0.00    +0.000 C 
ENDBRANCH  28  30
ENDBRANCH  23  28
ENDBRANCH  22  25
ENDBRANCH   1  22
TORSDOF 7
ENDMDL
MODEL 3
REMARK VINA RESULT:      -8.2      1.006      1.019
REMARK  Name = 
REMARK  8 active torsions:
REMARK  status: ('A' for Active; 'I' for Inactive)
REMARK    1  A    between atoms: C_2  and  C_3
REMARK    2  A    between atoms: C_3  and  N_4
REMARK    3  A    between atoms: C_6  and  C_7
REMARK    4  A    between atoms: C_7  and  N_8
REMARK    5  A    between atoms: N_8  and  C_9
REMARK    6  A    between atoms: N_8  and  C_21
REMARK    7  A    between atoms: C_25  and  O_26
REMARK    8  A    between atoms: O_26  and  C_27
REMARK                            x       y       z     vdW  Elec       q    Type
REMARK                         _______ _______ _______ _____ _____    ______ ____
ROOT
ATOM      1  N   UNL     1       3.363   6.252  18.390  0.00  0.00    +0.000 N 
ENDROOT
BRANCH   1   2
ATOM      2  C   UNL     1       2.616   7.403  18.710  0.00  0.00    +0.000 C 
ATOM      3  C   UNL     1       2.490   8.446  17.879  0.00  0.00    +0.000 C 
ATOM      4  C   UNL     1       1.742   9.667  18.215  0.00  0.00    +0.000 C 
ATOM      5  O   UNL     1       1.704  10.603  17.425  0.00  0.00    +0.000 OA
ATOM      6  C   UNL     1       1.034   9.712  19.502  0.00  0.00    +0.000 A 
ATOM      7  C   UNL     1       0.294  10.851  19.845  0.00  0.00    +0.000 A 
ATOM      8  C   UNL     1      -0.429  10.878  21.038  0.00  0.00    +0.000 A 
ATOM      9  C   UNL     1      -0.423   9.768  21.881  0.00  0.00    +0.000 A 
ATOM     10  C   UNL     1       0.335   8.643  21.551  0.00  0.00    +0.000 A 
ATOM     11  C   UNL     1       1.081   8.621  20.363  0.00  0.00    +0.000 A 
ATOM     12  C   UNL     1       1.943   7.460  20.063  0.00  0.00    +0.000 C 
ATOM     13  O   UNL     1       2.125   6.615  20.931  0.00  0.00    +0.000 OA
ENDBRANCH   1   2
BRANCH   1  14
ATOM     14  C   UNL     1       2.883   4.960  18.723  0.00  0.00    +0.000 A 
ATOM     15  C   UNL     1       1.687   4.490  18.147  0.00  0.00    +0.000 A 
ATOM     16  C   UNL     1       1.138   3.259  18.503  0.00  0.00    +0.000 A 
ATOM     17  C   UNL     1       1.777   2.471  19.454  0.00  0.00    +0.000 A 
ATOM     18  C   UNL     1       2.974   2.894  20.031  0.00  0.00    +0.000 A 
ATOM     19  C   UNL     1       3.531   4.119  19.645  0.00  0.00    +0.000 A 
BRANCH  18  20
ATOM     20  O   UNL     1       3.488   2.037  20.966  0.00  0.00    +0.000 OA
ATOM     21  C   UNL     1       4.820   1.579  20.756  0.00  0.00    +0.000 C 
ENDBRANCH  18  20
ENDBRANCH   1  14
BRANCH   1  22
ATOM     22  C   UNL     1       4.748   6.375  17.879  0.00  0.00    +0.000 C 
BRANCH  22  25
ATOM     23  N   UNL     1       5.690   4.640  14.819  0.00  0.00    +0.000 N 
ATOM     24  C   UNL     1       5.192   4.522  16.083  0.00  0.00    +0.000 A 
ATOM     25  C   UNL     1       5.081   5.822  16.526  0.00  0.00    +0.000 A 
ATOM     26  N   UNL     1       5.392   6.668  15.487  0.00  0.00    +0.000 NA
ATOM     27  N   UNL     1       5.756   5.932  14.445  0.00  0.00    +0.000 NA
BRANCH  23  28
ATOM     28  C   UNL     1       6.341   3.606  14.034  0.00  0.00    +0.000 C 
BRANCH  28  30
ATOM     29  C   UNL     1       5.191   3.087  11.863  0.00  0.00    +0.000 C 
ATOM     30  C   UNL     1       6.122   3.756  12.558  0.00  0.00    +0.000 C 
ENDBRANCH  28  30
ENDBRANCH  23  28
ENDBRANCH  22  25
ENDBRANCH   1  22
TORSDOF 7
ENDMDL
MODEL 4
REMARK VINA RESULT:      -8.0      1.484      2.466
REMARK  Name = 
REMARK  8 active torsions:
REMARK  status: ('A' for Active; 'I' for Inactive)
REMARK    1  A    between atoms: C_2  and  C_3
REMARK    2  A    between atoms: C_3  and  N_4
REMARK    3  A    between atoms: C_6  and  C_7
REMARK    4  A    between atoms: C_7  and  N_8
REMARK    5  A    between atoms: N_8  and  C_9
REMARK    6  A    between atoms: N_8  and  C_21
REMARK    7  A    between atoms: C_25  and  O_26
REMARK    8  A    between atoms: O_26  and  C_27
REMARK                            x       y       z     vdW  Elec       q    Type
REMARK                         _______ _______ _______ _____ _____    ______ ____
ROOT
ATOM      1  N   UNL     1       2.956   6.900  18.651  0.00  0.00    +0.000 N 
ENDROOT
BRANCH   1   2
ATOM      2  C   UNL     1       2.103   7.841  19.262  0.00  0.00    +0.000 C 
ATOM      3  C   UNL     1       1.673   7.723  20.525  0.00  0.00    +0.000 C 
ATOM      4  C   UNL     1       0.756   8.680  21.163  0.00  0.00    +0.000 C 
ATOM      5  O   UNL     1       0.366   8.488  22.308  0.00  0.00    +0.000 OA
ATOM      6  C   UNL     1       0.351   9.866  20.397  0.00  0.00    +0.000 A 
ATOM      7  C   UNL     1      -0.504  10.809  20.981  0.00  0.00    +0.000 A 
ATOM      8  C   UNL     1      -0.846  11.967  20.282  0.00  0.00    +0.000 A 
ATOM      9  C   UNL     1      -0.327  12.190  19.008  0.00  0.00    +0.000 A 
ATOM     10  C   UNL     1       0.505  11.238  18.415  0.00  0.00    +0.000 A 
ATOM     11  C   UNL     1       0.833  10.062  19.106  0.00  0.00    +0.000 A 
ATOM     12  C   UNL     1       1.646   9.025  18.440  0.00  0.00    +0.000 C 
ATOM     13  O   UNL     1       1.878   9.131  17.242  0.00  0.00    +0.000 OA
ENDBRANCH   1   2
BRANCH   1  14
ATOM     14  C   UNL     1       2.692   5.510  18.751  0.00  0.00    +0.000 A 
ATOM     15  C   UNL     1       1.744   4.916  17.896  0.00  0.00    +0.000 A 
ATOM     16  C   UNL     1       1.399   3.570  18.011  0.00  0.00    +0.000 A 
ATOM     17  C   UNL     1       1.994   2.788  18.994  0.00  0.00    +0.000 A 
ATOM     18  C   UNL     1       2.953   3.337  19.845  0.00  0.00    +0.000 A 
ATOM     19  C   UNL     1       3.313   4.683  19.703  0.00  0.00    +0.000 A 
BRANCH  18  20
ATOM     20  O   UNL     1       3.446   2.468  20.781  0.00  0.00    +0.000 OA
ATOM     21  C   UNL     1       4.710   1.874  20.505  0.00  0.00    +0.000 C 
ENDBRANCH  18  20
ENDBRANCH   1  14
BRANCH   1  22
ATOM     22  C   UNL     1       4.246   7.328  18.060  0.00  0.00    +0.000 C 
BRANCH  22  25
ATOM     23  N   UNL     1       5.934   4.806  16.049  0.00  0.00    +0.000 N 
ATOM     24  C   UNL     1       5.011   5.809  16.069  0.00  0.00    +0.000 A 
ATOM     25  C   UNL     1       5.095   6.319  17.347  0.00  0.00    +0.000 A 
ATOM     26  N   UNL     1       6.133   5.699  18.000  0.00  0.00    +0.000 NA
ATOM     27  N   UNL     1       6.644   4.778  17.192  0.00  0.00    +0.000 NA
BRANCH  23  28
ATOM     28  C   UNL     1       6.013   3.708  15.099  0.00  0.00    +0.000 C 
BRANCH  28  30
ATOM     29  C   UNL     1       6.087   3.435  12.605  0.00  0.00    +0.000 C 
ATOM     30  C   UNL     1       6.348   4.153  13.707  0.00  0.00    +0.000 C 
ENDBRANCH  28  30
ENDBRANCH  23  28
ENDBRANCH  22  25
ENDBRANCH   1  22
TORSDOF 7
ENDMDL
MODEL 5
REMARK VINA RESULT:      -8.0      2.582      5.102
REMARK  Name = 
REMARK  8 active torsions:
REMARK  status: ('A' for Active; 'I' for Inactive)
REMARK    1  A    between atoms: C_2  and  C_3
REMARK    2  A    between atoms: C_3  and  N_4
REMARK    3  A    between atoms: C_6  and  C_7
REMARK    4  A    between atoms: C_7  and  N_8
REMARK    5  A    between atoms: N_8  and  C_9
REMARK    6  A    between atoms: N_8  and  C_21
REMARK    7  A    between atoms: C_25  and  O_26
REMARK    8  A    between atoms: O_26  and  C_27
REMARK                            x       y       z     vdW  Elec       q    Type
REMARK                         _______ _______ _______ _____ _____    ______ ____
ROOT
ATOM      1  N   UNL     1       4.070   6.193  17.873  0.00  0.00    +0.000 N 
ENDROOT
BRANCH   1   2
ATOM      2  C   UNL     1       3.172   7.191  18.301  0.00  0.00    +0.000 C 
ATOM      3  C   UNL     1       2.879   8.272  17.566  0.00  0.00    +0.000 C 
ATOM      4  C   UNL     1       1.970   9.337  18.015  0.00  0.00    +0.000 C 
ATOM      5  O   UNL     1       1.781  10.322  17.311  0.00  0.00    +0.000 OA
ATOM      6  C   UNL     1       1.293   9.169  19.308  0.00  0.00    +0.000 A 
ATOM      7  C   UNL     1       0.405  10.154  19.757  0.00  0.00    +0.000 A 
ATOM      8  C   UNL     1      -0.288   9.974  20.955  0.00  0.00    +0.000 A 
ATOM      9  C   UNL     1      -0.103   8.809  21.698  0.00  0.00    +0.000 A 
ATOM     10  C   UNL     1       0.802   7.839  21.262  0.00  0.00    +0.000 A 
ATOM     11  C   UNL     1       1.516   8.027  20.070  0.00  0.00    +0.000 A 
ATOM     12  C   UNL     1       2.530   7.034  19.661  0.00  0.00    +0.000 C 
ATOM     13  O   UNL     1       2.850   6.153  20.449  0.00  0.00    +0.000 OA
ENDBRANCH   1   2
BRANCH   1  14
ATOM     14  C   UNL     1       5.468   6.346  18.060  0.00  0.00    +0.000 A 
ATOM     15  C   UNL     1       6.159   5.461  18.911  0.00  0.00    +0.000 A 
ATOM     16  C   UNL     1       7.517   5.621  19.183  0.00  0.00    +0.000 A 
ATOM     17  C   UNL     1       8.213   6.679  18.611  0.00  0.00    +0.000 A 
ATOM     18  C   UNL     1       7.567   7.563  17.746  0.00  0.00    +0.000 A 
ATOM     19  C   UNL     1       6.210   7.377  17.458  0.00  0.00    +0.000 A 
BRANCH  18  20
ATOM     20  O   UNL     1       8.359   8.571  17.268  0.00  0.00    +0.000 OA
ATOM     21  C   UNL     1       8.603   9.668  18.141  0.00  0.00    +0.000 C 
ENDBRANCH  18  20
ENDBRANCH   1  14
BRANCH   1  22
ATOM     22  C   UNL     1       3.594   5.058  17.047  0.00  0.00    +0.000 C 
BRANCH  22  25
ATOM     23  N   UNL     1       1.758   2.519  18.900  0.00  0.00    +0.000 N 
ATOM     24  C   UNL     1       1.711   3.746  18.307  0.00  0.00    +0.000 A 
ATOM     25  C   UNL     1       2.950   3.883  17.718  0.00  0.00    +0.000 A 
ATOM     26  N   UNL     1       3.641   2.704  17.868  0.00  0.00    +0.000 NA
ATOM     27  N   UNL     1       2.897   1.873  18.588  0.00  0.00    +0.000 NA
BRANCH  23  28
ATOM     28  C   UNL     1       0.888   2.022  19.952  0.00  0.00    +0.000 C 
BRANCH  28  30
ATOM     29  C   UNL     1       2.079   3.403  21.678  0.00  0.00    +0.000 C 
ATOM     30  C   UNL     1       1.411   2.293  21.332  0.00  0.00    +0.000 C 
ENDBRANCH  28  30
ENDBRANCH  23  28
ENDBRANCH  22  25
ENDBRANCH   1  22
TORSDOF 7
ENDMDL
MODEL 6
REMARK VINA RESULT:      -7.9      0.951      1.994
REMARK  Name = 
REMARK  8 active torsions:
REMARK  status: ('A' for Active; 'I' for Inactive)
REMARK    1  A    between atoms: C_2  and  C_3
REMARK    2  A    between atoms: C_3  and  N_4
REMARK    3  A    between atoms: C_6  and  C_7
REMARK    4  A    between atoms: C_7  and  N_8
REMARK    5  A    between atoms: N_8  and  C_9
REMARK    6  A    between atoms: N_8  and  C_21
REMARK    7  A    between atoms: C_25  and  O_26
REMARK    8  A    between atoms: O_26  and  C_27
REMARK                            x       y       z     vdW  Elec       q    Type
REMARK                         _______ _______ _______ _____ _____    ______ ____
ROOT
ATOM      1  N   UNL     1       4.064   6.099  18.200  0.00  0.00    +0.000 N 
ENDROOT
BRANCH   1   2
ATOM      2  C   UNL     1       3.094   6.954  18.761  0.00  0.00    +0.000 C 
ATOM      3  C   UNL     1       2.537   6.738  19.960  0.00  0.00    +0.000 C 
ATOM      4  C   UNL     1       1.500   7.604  20.541  0.00  0.00    +0.000 C 
ATOM      5  O   UNL     1       0.999   7.323  21.624  0.00  0.00    +0.000 OA
ATOM      6  C   UNL     1       1.108   8.809  19.798  0.00  0.00    +0.000 A 
ATOM      7  C   UNL     1       0.139   9.667  20.332  0.00  0.00    +0.000 A 
ATOM      8  C   UNL     1      -0.196  10.844  19.661  0.00  0.00    +0.000 A 
ATOM      9  C   UNL     1       0.445  11.170  18.466  0.00  0.00    +0.000 A 
ATOM     10  C   UNL     1       1.392  10.302  17.921  0.00  0.00    +0.000 A 
ATOM     11  C   UNL     1       1.714   9.107  18.582  0.00  0.00    +0.000 A 
ATOM     12  C   UNL     1       2.657   8.158  17.956  0.00  0.00    +0.000 C 
ATOM     13  O   UNL     1       3.011   8.347  16.799  0.00  0.00    +0.000 OA
ENDBRANCH   1   2
BRANCH   1  14
ATOM     14  C   UNL     1       3.963   4.692  18.348  0.00  0.00    +0.000 A 
ATOM     15  C   UNL     1       3.079   3.966  17.527  0.00  0.00    +0.000 A 
ATOM     16  C   UNL     1       2.891   2.594  17.689  0.00  0.00    +0.000 A 
ATOM     17  C   UNL     1       3.585   1.918  18.686  0.00  0.00    +0.000 A 
ATOM     18  C   UNL     1       4.485   2.600  19.504  0.00  0.00    +0.000 A 
ATOM     19  C   UNL     1       4.687   3.973  19.315  0.00  0.00    +0.000 A 
BRANCH  18  20
ATOM     20  O   UNL     1       5.086   1.824  20.458  0.00  0.00    +0.000 OA
ATOM     21  C   UNL     1       5.128   0.422  20.215  0.00  0.00    +0.000 C 
ENDBRANCH  18  20
ENDBRANCH   1  14
BRANCH   1  22
ATOM     22  C   UNL     1       5.308   6.655  17.617  0.00  0.00    +0.000 C 
BRANCH  22  25
ATOM     23  N   UNL     1       6.327   4.851  14.623  0.00  0.00    +0.000 N 
ATOM     24  C   UNL     1       5.288   5.382  15.329  0.00  0.00    +0.000 A 
ATOM     25  C   UNL     1       5.892   6.015  16.394  0.00  0.00    +0.000 A 
ATOM     26  N   UNL     1       7.255   5.951  16.228  0.00  0.00    +0.000 NA
ATOM     27  N   UNL     1       7.509   5.242  15.135  0.00  0.00    +0.000 NA
BRANCH  23  28
ATOM     28  C   UNL     1       6.261   3.789  13.634  0.00  0.00    +0.000 C 
BRANCH  28  30
ATOM     29  C   UNL     1       4.833   3.166  11.665  0.00  0.00    +0.000 C 
ATOM     30  C   UNL     1       4.992   3.800  12.836  0.00  0.00    +0.000 C 
ENDBRANCH  28  30
ENDBRANCH  23  28
ENDBRANCH  22  25
ENDBRANCH   1  22
TORSDOF 7
ENDMDL
MODEL 7
REMARK VINA RESULT:      -7.9      2.785      5.391
REMARK  Name = 
REMARK  8 active torsions:
REMARK  status: ('A' for Active; 'I' for Inactive)
REMARK    1  A    between atoms: C_2  and  C_3
REMARK    2  A    between atoms: C_3  and  N_4
REMARK    3  A    between atoms: C_6  and  C_7
REMARK    4  A    between atoms: C_7  and  N_8
REMARK    5  A    between atoms: N_8  and  C_9
REMARK    6  A    between atoms: N_8  and  C_21
REMARK    7  A    between atoms: C_25  and  O_26
REMARK    8  A    between atoms: O_26  and  C_27
REMARK                            x       y       z     vdW  Elec       q    Type
REMARK                         _______ _______ _______ _____ _____    ______ ____
ROOT
ATOM      1  N   UNL     1       5.526   5.428  16.602  0.00  0.00    +0.000 N 
ENDROOT
BRANCH   1   2
ATOM      2  C   UNL     1       4.597   4.623  17.291  0.00  0.00    +0.000 C 
ATOM      3  C   UNL     1       4.592   3.286  17.214  0.00  0.00    +0.000 C 
ATOM      4  C   UNL     1       3.607   2.437  17.901  0.00  0.00    +0.000 C 
ATOM      5  O   UNL     1       3.632   1.221  17.752  0.00  0.00    +0.000 OA
ATOM      6  C   UNL     1       2.622   3.089  18.776  0.00  0.00    +0.000 A 
ATOM      7  C   UNL     1       1.683   2.309  19.462  0.00  0.00    +0.000 A 
ATOM      8  C   UNL     1       0.783   2.914  20.340  0.00  0.00    +0.000 A 
ATOM      9  C   UNL     1       0.828   4.293  20.542  0.00  0.00    +0.000 A 
ATOM     10  C   UNL     1       1.748   5.073  19.838  0.00  0.00    +0.000 A 
ATOM     11  C   UNL     1       2.639   4.470  18.938  0.00  0.00    +0.000 A 
ATOM     12  C   UNL     1       3.552   5.312  18.139  0.00  0.00    +0.000 C 
ATOM     13  O   UNL     1       3.400   6.528  18.149  0.00  0.00    +0.000 OA
ENDBRANCH   1   2
BRANCH   1  14
ATOM     14  C   UNL     1       6.548   6.118  17.303  0.00  0.00    +0.000 A 
ATOM     15  C   UNL     1       7.247   5.467  18.337  0.00  0.00    +0.000 A 
ATOM     16  C   UNL     1       8.205   6.131  19.103  0.00  0.00    +0.000 A 
ATOM     17  C   UNL     1       8.480   7.469  18.850  0.00  0.00    +0.000 A 
ATOM     18  C   UNL     1       7.824   8.141  17.819  0.00  0.00    +0.000 A 
ATOM     19  C   UNL     1       6.883   7.458  17.038  0.00  0.00    +0.000 A 
BRANCH  18  20
ATOM     20  O   UNL     1       8.171   9.459  17.688  0.00  0.00    +0.000 OA
ATOM     21  C   UNL     1       8.950  10.026  18.734  0.00  0.00    +0.000 C 
ENDBRANCH  18  20
ENDBRANCH   1  14
BRANCH   1  22
ATOM     22  C   UNL     1       5.338   5.727  15.162  0.00  0.00    +0.000 C 
BRANCH  22  25
ATOM     23  N   UNL     1       6.437   3.292  12.689  0.00  0.00    +0.000 N 
ATOM     24  C   UNL     1       6.788   4.055  13.763  0.00  0.00    +0.000 A 
ATOM     25  C   UNL     1       5.609   4.656  14.150  0.00  0.00    +0.000 A 
ATOM     26  N   UNL     1       4.585   4.145  13.388  0.00  0.00    +0.000 NA
ATOM     27  N   UNL     1       5.104   3.306  12.501  0.00  0.00    +0.000 NA
BRANCH  23  28
ATOM     28  C   UNL     1       7.324   2.747  11.676  0.00  0.00    +0.000 C 
BRANCH  28  30
ATOM     29  C   UNL     1       6.364   0.456  11.309  0.00  0.00    +0.000 C 
ATOM     30  C   UNL     1       6.686   1.672  10.846  0.00  0.00    +0.000 C 
ENDBRANCH  28  30
ENDBRANCH  23  28
ENDBRANCH  22  25
ENDBRANCH   1  22
TORSDOF 7
ENDMDL
MODEL 8
REMARK VINA RESULT:      -7.8      1.350      2.585
REMARK  Name = 
REMARK  8 active torsions:
REMARK  status: ('A' for Active; 'I' for Inactive)
REMARK    1  A    between atoms: C_2  and  C_3
REMARK    2  A    between atoms: C_3  and  N_4
REMARK    3  A    between atoms: C_6  and  C_7
REMARK    4  A    between atoms: C_7  and  N_8
REMARK    5  A    between atoms: N_8  and  C_9
REMARK    6  A    between atoms: N_8  and  C_21
REMARK    7  A    between atoms: C_25  and  O_26
REMARK    8  A    between atoms: O_26  and  C_27
REMARK                            x       y       z     vdW  Elec       q    Type
REMARK                         _______ _______ _______ _____ _____    ______ ____
ROOT
ATOM      1  N   UNL     1       3.426   6.946  18.241  0.00  0.00    +0.000 N 
ENDROOT
BRANCH   1   2
ATOM      2  C   UNL     1       2.495   7.743  18.936  0.00  0.00    +0.000 C 
ATOM      3  C   UNL     1       2.108   7.486  20.192  0.00  0.00    +0.000 C 
ATOM      4  C   UNL     1       1.113   8.290  20.917  0.00  0.00    +0.000 C 
ATOM      5  O   UNL     1       0.771   7.973  22.050  0.00  0.00    +0.000 OA
ATOM      6  C   UNL     1       0.568   9.481  20.250  0.00  0.00    +0.000 A 
ATOM      7  C   UNL     1      -0.367  10.281  20.918  0.00  0.00    +0.000 A 
ATOM      8  C   UNL     1      -0.844  11.446  20.316  0.00  0.00    +0.000 A 
ATOM      9  C   UNL     1      -0.381  11.817  19.054  0.00  0.00    +0.000 A 
ATOM     10  C   UNL     1       0.531  11.005  18.378  0.00  0.00    +0.000 A 
ATOM     11  C   UNL     1       0.996   9.822  18.971  0.00  0.00    +0.000 A 
ATOM     12  C   UNL     1       1.897   8.930  18.214  0.00  0.00    +0.000 C 
ATOM     13  O   UNL     1       2.088   9.149  17.025  0.00  0.00    +0.000 OA
ENDBRANCH   1   2
BRANCH   1  14
ATOM     14  C   UNL     1       3.513   5.551  18.487  0.00  0.00    +0.000 A 
ATOM     15  C   UNL     1       4.657   5.025  19.118  0.00  0.00    +0.000 A 
ATOM     16  C   UNL     1       4.819   3.654  19.311  0.00  0.00    +0.000 A 
ATOM     17  C   UNL     1       3.837   2.776  18.868  0.00  0.00    +0.000 A 
ATOM     18  C   UNL     1       2.680   3.262  18.258  0.00  0.00    +0.000 A 
ATOM     19  C   UNL     1       2.515   4.643  18.094  0.00  0.00    +0.000 A 
BRANCH  18  20
ATOM     20  O   UNL     1       1.803   2.294  17.850  0.00  0.00    +0.000 OA
ATOM     21  C   UNL     1       0.657   2.079  18.666  0.00  0.00    +0.000 C 
ENDBRANCH  18  20
ENDBRANCH   1  14
BRANCH   1  22
ATOM     22  C   UNL     1       4.462   7.573  17.387  0.00  0.00    +0.000 C 
BRANCH  22  25
ATOM     23  N   UNL     1       6.196   5.198  15.240  0.00  0.00    +0.000 N 
ATOM     24  C   UNL     1       5.024   5.844  15.503  0.00  0.00    +0.000 A 
ATOM     25  C   UNL     1       5.335   6.701  16.537  0.00  0.00    +0.000 A 
ATOM     26  N   UNL     1       6.688   6.634  16.770  0.00  0.00    +0.000 NA
ATOM     27  N   UNL     1       7.206   5.715  15.965  0.00  0.00    +0.000 NA
BRANCH  23  28
ATOM     28  C   UNL     1       6.364   3.949  14.517  0.00  0.00    +0.000 C 
BRANCH  28  30
ATOM     29  C   UNL     1       5.986   3.022  12.214  0.00  0.00    +0.000 C 
ATOM     30  C   UNL     1       6.060   4.066  13.053  0.00  0.00    +0.000 C 
ENDBRANCH  28  30
ENDBRANCH  23  28
ENDBRANCH  22  25
ENDBRANCH   1  22
TORSDOF 7
ENDMDL
MODEL 9
REMARK VINA RESULT:      -7.8      3.240      5.977
REMARK  Name = 
REMARK  8 active torsions:
REMARK  status: ('A' for Active; 'I' for Inactive)
REMARK    1  A    between atoms: C_2  and  C_3
REMARK    2  A    between atoms: C_3  and  N_4
REMARK    3  A    between atoms: C_6  and  C_7
REMARK    4  A    between atoms: C_7  and  N_8
REMARK    5  A    between atoms: N_8  and  C_9
REMARK    6  A    between atoms: N_8  and  C_21
REMARK    7  A    between atoms: C_25  and  O_26
REMARK    8  A    between atoms: O_26  and  C_27
REMARK                            x       y       z     vdW  Elec       q    Type
REMARK                         _______ _______ _______ _____ _____    ______ ____
ROOT
ATOM      1  N   UNL     1       6.198   5.418  17.240  0.00  0.00    +0.000 N 
ENDROOT
BRANCH   1   2
ATOM      2  C   UNL     1       4.958   5.313  17.902  0.00  0.00    +0.000 C 
ATOM      3  C   UNL     1       3.998   6.242  17.805  0.00  0.00    +0.000 C 
ATOM      4  C   UNL     1       2.715   6.161  18.518  0.00  0.00    +0.000 C 
ATOM      5  O   UNL     1       1.898   7.069  18.420  0.00  0.00    +0.000 OA
ATOM      6  C   UNL     1       2.444   4.962  19.321  0.00  0.00    +0.000 A 
ATOM      7  C   UNL     1       1.224   4.842  19.997  0.00  0.00    +0.000 A 
ATOM      8  C   UNL     1       0.935   3.680  20.714  0.00  0.00    +0.000 A 
ATOM      9  C   UNL     1       1.857   2.635  20.747  0.00  0.00    +0.000 A 
ATOM     10  C   UNL     1       3.085   2.765  20.095  0.00  0.00    +0.000 A 
ATOM     11  C   UNL     1       3.387   3.941  19.392  0.00  0.00    +0.000 A 
ATOM     12  C   UNL     1       4.719   4.101  18.774  0.00  0.00    +0.000 C 
ATOM     13  O   UNL     1       5.594   3.282  19.028  0.00  0.00    +0.000 OA
ENDBRANCH   1   2
BRANCH   1  14
ATOM     14  C   UNL     1       6.342   4.979  15.898  0.00  0.00    +0.000 A 
ATOM     15  C   UNL     1       7.551   5.213  15.214  0.00  0.00    +0.000 A 
ATOM     16  C   UNL     1       7.710   4.868  13.873  0.00  0.00    +0.000 A 
ATOM     17  C   UNL     1       6.654   4.284  13.183  0.00  0.00    +0.000 A 
ATOM     18  C   UNL     1       5.449   4.017  13.833  0.00  0.00    +0.000 A 
ATOM     19  C   UNL     1       5.310   4.342  15.188  0.00  0.00    +0.000 A 
BRANCH  18  20
ATOM     20  O   UNL     1       4.485   3.459  13.038  0.00  0.00    +0.000 OA
ATOM     21  C   UNL     1       4.850   3.166  11.694  0.00  0.00    +0.000 C 
ENDBRANCH  18  20
ENDBRANCH   1  14
BRANCH   1  22
ATOM     22  C   UNL     1       7.419   5.802  17.987  0.00  0.00    +0.000 C 
BRANCH  22  25
ATOM     23  N   UNL     1       8.568   9.220  18.484  0.00  0.00    +0.000 N 
ATOM     24  C   UNL     1       8.725   7.910  18.826  0.00  0.00    +0.000 A 
ATOM     25  C   UNL     1       7.844   7.238  18.005  0.00  0.00    +0.000 A 
ATOM     26  N   UNL     1       7.290   8.139  17.127  0.00  0.00    +0.000 NA
ATOM     27  N   UNL     1       7.747   9.349  17.425  0.00  0.00    +0.000 NA
BRANCH  23  28
ATOM     28  C   UNL     1       8.961  10.382  19.263  0.00  0.00    +0.000 C 
BRANCH  28  30
ATOM     29  C   UNL     1      11.192  11.522  19.091  0.00  0.00    +0.000 C 
ATOM     30  C   UNL     1       9.986  11.236  18.578  0.00  0.00    +0.000 C 
ENDBRANCH  28  30
ENDBRANCH  23  28
ENDBRANCH  22  25
ENDBRANCH   1  22
TORSDOF 7
ENDMDL
