MODEL 1
REMARK VINA RESULT:      -8.8      0.000      0.000
REMARK  Name = 
REMARK  5 active torsions:
REMARK  status: ('A' for Active; 'I' for Inactive)
REMARK    1  A    between atoms: C_2  and  C_21
REMARK    2  A    between atoms: N_3  and  C_4
REMARK    3  A    between atoms: C_4  and  C_5
REMARK    4  A    between atoms: C_5  and  N_6
REMARK    5  A    between atoms: N_9  and  C_10
REMARK                            x       y       z     vdW  Elec       q    Type
REMARK                         _______ _______ _______ _____ _____    ______ ____
ROOT
ATOM      1  N   UNL     1       7.391   6.144  17.209  0.00  0.00    +0.000 NA
ATOM      2  C   UNL     1       7.234   5.557  18.563  0.00  0.00    +0.000 C 
ATOM      3  C   UNL     1       5.783   5.673  19.083  0.00  0.00    +0.000 C 
ATOM      4  N   UNL     1       4.877   5.117  18.082  0.00  0.00    +0.000 N 
ATOM      5  C   UNL     1       5.001   5.664  16.738  0.00  0.00    +0.000 C 
ATOM      6  C   UNL     1       6.446   5.484  16.274  0.00  0.00    +0.000 C 
ENDROOT
BRANCH   4   7
ATOM      7  C   UNL     1       3.942   4.065  18.383  0.00  0.00    +0.000 A 
ATOM      8  C   UNL     1       4.016   2.797  17.745  0.00  0.00    +0.000 A 
ATOM      9  C   UNL     1       3.083   1.779  18.033  0.00  0.00    +0.000 A 
ATOM     10  C   UNL     1       2.048   2.000  18.951  0.00  0.00    +0.000 A 
ATOM     11  C   UNL     1       1.980   3.245  19.562  0.00  0.00    +0.000 A 
ATOM     12  C   UNL     1       1.081   3.745  20.469  0.00  0.00    +0.000 A 
ATOM     13  C   UNL     1       1.497   5.047  20.705  0.00  0.00    +0.000 A 
ATOM     14  O   UNL     1       2.575   5.314  19.991  0.00  0.00    +0.000 OA
ATOM     15  C   UNL     1       2.888   4.240  19.301  0.00  0.00    +0.000 A 
ENDBRANCH   4   7
BRANCH   1  16
ATOM     16  C   UNL     1       7.311   7.629  17.244  0.00  0.00    +0.000 C 
BRANCH  16  17
ATOM     17  C   UNL     1       8.269   8.265  18.268  0.00  0.00    +0.000 C 
BRANCH  17  20
ATOM     18  O   UNL     1       9.298  10.168  19.909  0.00  0.00    +0.000 OA
ATOM     19  C   UNL     1       9.216  10.481  18.728  0.00  0.00    +0.000 C 
ATOM     20  N   UNL     1       8.701   9.582  17.837  0.00  0.00    +0.000 N 
ATOM     21  H   UNL     1       8.625   9.813  16.840  0.00  0.00    +0.000 HD
BRANCH  19  22
ATOM     22  C   UNL     1       9.689  11.843  18.315  0.00  0.00    +0.000 A 
ATOM     23  C   UNL     1      10.881  11.958  17.566  0.00  0.00    +0.000 A 
ATOM     24  C   UNL     1      11.356  13.209  17.162  0.00  0.00    +0.000 A 
ATOM     25  C   UNL     1      10.654  14.367  17.496  0.00  0.00    +0.000 A 
ATOM     26  F   UNL     1      11.116  15.579  17.103  0.00  0.00    +0.000 F 
ATOM     27  C   UNL     1       9.475  14.274  18.236  0.00  0.00    +0.000 A 
ATOM     28  C   UNL     1       8.993  13.027  18.644  0.00  0.00    +0.000 A 
ENDBRANCH  19  22
ENDBRANCH  17  20
ENDBRANCH  16  17
ENDBRANCH   1  16
TORSDOF 5
ENDMDL
MODEL 2
REMARK VINA RESULT:      -8.4      1.402      1.728
REMARK  Name = 
REMARK  5 active torsions:
REMARK  status: ('A' for Active; 'I' for Inactive)
REMARK    1  A    between atoms: C_2  and  C_21
REMARK    2  A    between atoms: N_3  and  C_4
REMARK    3  A    between atoms: C_4  and  C_5
REMARK    4  A    between atoms: C_5  and  N_6
REMARK    5  A    between atoms: N_9  and  C_10
REMARK                            x       y       z     vdW  Elec       q    Type
REMARK                         _______ _______ _______ _____ _____    ______ ____
ROOT
ATOM      1  N   UNL     1       7.170   5.781  16.392  0.00  0.00    +0.000 NA
ATOM      2  C   UNL     1       7.245   4.721  17.428  0.00  0.00    +0.000 C 
ATOM      3  C   UNL     1       6.150   4.884  18.508  0.00  0.00    +0.000 C 
ATOM      4  N   UNL     1       4.850   4.988  17.851  0.00  0.00    +0.000 N 
ATOM      5  C   UNL     1       4.736   6.014  16.824  0.00  0.00    +0.000 C 
ATOM      6  C   UNL     1       5.819   5.772  15.774  0.00  0.00    +0.000 C 
ENDROOT
BRANCH   4   7
ATOM      7  C   UNL     1       3.754   4.109  18.162  0.00  0.00    +0.000 A 
ATOM      8  C   UNL     1       3.541   2.899  17.444  0.00  0.00    +0.000 A 
ATOM      9  C   UNL     1       2.452   2.054  17.744  0.00  0.00    +0.000 A 
ATOM     10  C   UNL     1       1.543   2.395  18.754  0.00  0.00    +0.000 A 
ATOM     11  C   UNL     1       1.756   3.582  19.443  0.00  0.00    +0.000 A 
ATOM     12  C   UNL     1       1.032   4.172  20.448  0.00  0.00    +0.000 A 
ATOM     13  C   UNL     1       1.704   5.352  20.728  0.00  0.00    +0.000 A 
ATOM     14  O   UNL     1       2.763   5.466  19.947  0.00  0.00    +0.000 OA
ATOM     15  C   UNL     1       2.817   4.407  19.171  0.00  0.00    +0.000 A 
ENDBRANCH   4   7
BRANCH   1  16
ATOM     16  C   UNL     1       7.611   7.099  16.924  0.00  0.00    +0.000 C 
BRANCH  16  17
ATOM     17  C   UNL     1       7.871   7.083  18.441  0.00  0.00    +0.000 C 
BRANCH  17  20
ATOM     18  O   UNL     1       7.597   9.700  17.770  0.00  0.00    +0.000 OA
ATOM     19  C   UNL     1       8.578   9.432  18.453  0.00  0.00    +0.000 C 
ATOM     20  N   UNL     1       8.793   8.136  18.827  0.00  0.00    +0.000 N 
ATOM     21  H   UNL     1       9.602   7.882  19.404  0.00  0.00    +0.000 HD
BRANCH  19  22
ATOM     22  C   UNL     1       9.499  10.548  18.849  0.00  0.00    +0.000 A 
ATOM     23  C   UNL     1       9.637  10.873  20.217  0.00  0.00    +0.000 A 
ATOM     24  C   UNL     1      10.484  11.905  20.627  0.00  0.00    +0.000 A 
ATOM     25  C   UNL     1      11.209  12.633  19.684  0.00  0.00    +0.000 A 
ATOM     26  F   UNL     1      12.031  13.634  20.083  0.00  0.00    +0.000 F 
ATOM     27  C   UNL     1      11.087  12.328  18.328  0.00  0.00    +0.000 A 
ATOM     28  C   UNL     1      10.241  11.297  17.909  0.00  0.00    +0.000 A 
ENDBRANCH  19  22
ENDBRANCH  17  20
ENDBRANCH  16  17
ENDBRANCH   1  16
TORSDOF 5
ENDMDL
MODEL 3
REMARK VINA RESULT:      -8.1      1.786      2.085
REMARK  Name = 
REMARK  5 active torsions:
REMARK  status: ('A' for Active; 'I' for Inactive)
REMARK    1  A    between atoms: C_2  and  C_21
REMARK    2  A    between atoms: N_3  and  C_4
REMARK    3  A    between atoms: C_4  and  C_5
REMARK    4  A    between atoms: C_5  and  N_6
REMARK    5  A    between atoms: N_9  and  C_10
REMARK                            x       y       z     vdW  Elec       q    Type
REMARK                         _______ _______ _______ _____ _____    ______ ____
ROOT
ATOM      1  N   UNL     1       7.561   6.421  17.310  0.00  0.00    +0.000 NA
ATOM      2  C   UNL     1       7.517   5.067  17.916  0.00  0.00    +0.000 C 
ATOM      3  C   UNL     1       6.380   4.931  18.956  0.00  0.00    +0.000 C 
ATOM      4  N   UNL     1       5.124   5.352  18.340  0.00  0.00    +0.000 N 
ATOM      5  C   UNL     1       5.127   6.674  17.729  0.00  0.00    +0.000 C 
ATOM      6  C   UNL     1       6.247   6.726  16.690  0.00  0.00    +0.000 C 
ENDROOT
BRANCH   4   7
ATOM      7  C   UNL     1       3.961   4.506  18.297  0.00  0.00    +0.000 A 
ATOM      8  C   UNL     1       3.766   3.560  17.253  0.00  0.00    +0.000 A 
ATOM      9  C   UNL     1       2.612   2.748  17.210  0.00  0.00    +0.000 A 
ATOM     10  C   UNL     1       1.622   2.865  18.194  0.00  0.00    +0.000 A 
ATOM     11  C   UNL     1       1.820   3.797  19.204  0.00  0.00    +0.000 A 
ATOM     12  C   UNL     1       1.025   4.140  20.268  0.00  0.00    +0.000 A 
ATOM     13  C   UNL     1       1.721   5.145  20.925  0.00  0.00    +0.000 A 
ATOM     14  O   UNL     1       2.858   5.390  20.301  0.00  0.00    +0.000 OA
ATOM     15  C   UNL     1       2.941   4.584  19.265  0.00  0.00    +0.000 A 
ENDBRANCH   4   7
BRANCH   1  16
ATOM     16  C   UNL     1       8.055   7.438  18.277  0.00  0.00    +0.000 C 
BRANCH  16  17
ATOM     17  C   UNL     1       8.242   8.831  17.648  0.00  0.00    +0.000 C 
BRANCH  17  20
ATOM     18  O   UNL     1      10.108  10.802  17.570  0.00  0.00    +0.000 OA
ATOM     19  C   UNL     1       9.373  10.813  18.550  0.00  0.00    +0.000 C 
ATOM     20  N   UNL     1       8.411   9.849  18.669  0.00  0.00    +0.000 N 
ATOM     21  H   UNL     1       7.777   9.836  19.475  0.00  0.00    +0.000 HD
BRANCH  19  22
ATOM     22  C   UNL     1       9.565  11.891  19.575  0.00  0.00    +0.000 A 
ATOM     23  C   UNL     1       9.344  11.591  20.938  0.00  0.00    +0.000 A 
ATOM     24  C   UNL     1       9.512  12.568  21.923  0.00  0.00    +0.000 A 
ATOM     25  C   UNL     1       9.903  13.859  21.570  0.00  0.00    +0.000 A 
ATOM     26  F   UNL     1      10.066  14.805  22.527  0.00  0.00    +0.000 F 
ATOM     27  C   UNL     1      10.126  14.175  20.230  0.00  0.00    +0.000 A 
ATOM     28  C   UNL     1       9.960  13.205  19.238  0.00  0.00    +0.000 A 
ENDBRANCH  19  22
ENDBRANCH  17  20
ENDBRANCH  16  17
ENDBRANCH   1  16
TORSDOF 5
ENDMDL
MODEL 4
REMARK VINA RESULT:      -7.9      1.469      1.499
REMARK  Name = 
REMARK  5 active torsions:
REMARK  status: ('A' for Active; 'I' for Inactive)
REMARK    1  A    between atoms: C_2  and  C_21
REMARK    2  A    between atoms: N_3  and  C_4
REMARK    3  A    between atoms: C_4  and  C_5
REMARK    4  A    between atoms: C_5  and  N_6
REMARK    5  A    between atoms: N_9  and  C_10
REMARK                            x       y       z     vdW  Elec       q    Type
REMARK                         _______ _______ _______ _____ _____    ______ ____
ROOT
ATOM      1  N   UNL     1       7.588   6.425  17.372  0.00  0.00    +0.000 NA
ATOM      2  C   UNL     1       7.553   5.128  18.094  0.00  0.00    +0.000 C 
ATOM      3  C   UNL     1       6.367   5.044  19.082  0.00  0.00    +0.000 C 
ATOM      4  N   UNL     1       5.134   5.363  18.368  0.00  0.00    +0.000 N 
ATOM      5  C   UNL     1       5.128   6.626  17.641  0.00  0.00    +0.000 C 
ATOM      6  C   UNL     1       6.300   6.626  16.661  0.00  0.00    +0.000 C 
ENDROOT
BRANCH   4   7
ATOM      7  C   UNL     1       4.002   4.474  18.341  0.00  0.00    +0.000 A 
ATOM      8  C   UNL     1       3.870   3.464  17.349  0.00  0.00    +0.000 A 
ATOM      9  C   UNL     1       2.747   2.611  17.320  0.00  0.00    +0.000 A 
ATOM     10  C   UNL     1       1.725   2.748  18.268  0.00  0.00    +0.000 A 
ATOM     11  C   UNL     1       1.860   3.743  19.227  0.00  0.00    +0.000 A 
ATOM     12  C   UNL     1       1.023   4.116  20.248  0.00  0.00    +0.000 A 
ATOM     13  C   UNL     1       1.665   5.181  20.864  0.00  0.00    +0.000 A 
ATOM     14  O   UNL     1       2.811   5.431  20.259  0.00  0.00    +0.000 OA
ATOM     15  C   UNL     1       2.952   4.571  19.275  0.00  0.00    +0.000 A 
ENDBRANCH   4   7
BRANCH   1  16
ATOM     16  C   UNL     1       7.996   7.540  18.267  0.00  0.00    +0.000 C 
BRANCH  16  17
ATOM     17  C   UNL     1       8.015   8.908  17.561  0.00  0.00    +0.000 C 
BRANCH  17  20
ATOM     18  O   UNL     1       7.868  11.601  17.247  0.00  0.00    +0.000 OA
ATOM     19  C   UNL     1       8.668  11.214  18.090  0.00  0.00    +0.000 C 
ATOM     20  N   UNL     1       8.808   9.871  18.304  0.00  0.00    +0.000 N 
ATOM     21  H   UNL     1       9.465   9.517  19.007  0.00  0.00    +0.000 HD
BRANCH  19  22
ATOM     22  C   UNL     1       9.456  12.238  18.851  0.00  0.00    +0.000 A 
ATOM     23  C   UNL     1      10.864  12.131  18.892  0.00  0.00    +0.000 A 
ATOM     24  C   UNL     1      11.633  13.066  19.590  0.00  0.00    +0.000 A 
ATOM     25  C   UNL     1      11.017  14.122  20.260  0.00  0.00    +0.000 A 
ATOM     26  F   UNL     1      11.765  15.027  20.936  0.00  0.00    +0.000 F 
ATOM     27  C   UNL     1       9.628  14.244  20.232  0.00  0.00    +0.000 A 
ATOM     28  C   UNL     1       8.849  13.314  19.536  0.00  0.00    +0.000 A 
ENDBRANCH  19  22
ENDBRANCH  17  20
ENDBRANCH  16  17
ENDBRANCH   1  16
TORSDOF 5
ENDMDL
MODEL 5
REMARK VINA RESULT:      -7.7      1.534      2.468
REMARK  Name = 
REMARK  5 active torsions:
REMARK  status: ('A' for Active; 'I' for Inactive)
REMARK    1  A    between atoms: C_2  and  C_21
REMARK    2  A    between atoms: N_3  and  C_4
REMARK    3  A    between atoms: C_4  and  C_5
REMARK    4  A    between atoms: C_5  and  N_6
REMARK    5  A    between atoms: N_9  and  C_10
REMARK                            x       y       z     vdW  Elec       q    Type
REMARK                         _______ _______ _______ _____ _____    ______ ____
ROOT
ATOM      1  N   UNL     1       6.444   6.060  16.851  0.00  0.00    +0.000 NA
ATOM      2  C   UNL     1       6.465   4.958  17.845  0.00  0.00    +0.000 C 
ATOM      3  C   UNL     1       5.641   5.298  19.109  0.00  0.00    +0.000 C 
ATOM      4  N   UNL     1       4.301   5.710  18.701  0.00  0.00    +0.000 N 
ATOM      5  C   UNL     1       4.236   6.787  17.723  0.00  0.00    +0.000 C 
ATOM      6  C   UNL     1       5.038   6.370  16.490  0.00  0.00    +0.000 C 
ENDROOT
BRANCH   4   7
ATOM      7  C   UNL     1       3.110   5.072  19.198  0.00  0.00    +0.000 A 
ATOM      8  C   UNL     1       2.296   5.682  20.192  0.00  0.00    +0.000 A 
ATOM      9  C   UNL     1       1.142   5.039  20.686  0.00  0.00    +0.000 A 
ATOM     10  C   UNL     1       0.775   3.772  20.214  0.00  0.00    +0.000 A 
ATOM     11  C   UNL     1       1.581   3.183  19.249  0.00  0.00    +0.000 A 
ATOM     12  C   UNL     1       1.482   1.963  18.629  0.00  0.00    +0.000 A 
ATOM     13  C   UNL     1       2.576   1.905  17.778  0.00  0.00    +0.000 A 
ATOM     14  O   UNL     1       3.285   3.014  17.876  0.00  0.00    +0.000 OA
ATOM     15  C   UNL     1       2.699   3.801  18.751  0.00  0.00    +0.000 A 
ENDBRANCH   4   7
BRANCH   1  16
ATOM     16  C   UNL     1       7.251   7.224  17.307  0.00  0.00    +0.000 C 
BRANCH  16  17
ATOM     17  C   UNL     1       8.095   6.923  18.559  0.00  0.00    +0.000 C 
BRANCH  17  20
ATOM     18  O   UNL     1       7.740   9.419  17.550  0.00  0.00    +0.000 OA
ATOM     19  C   UNL     1       8.565   9.329  18.450  0.00  0.00    +0.000 C 
ATOM     20  N   UNL     1       8.808   8.105  19.008  0.00  0.00    +0.000 N 
ATOM     21  H   UNL     1       9.489   7.999  19.768  0.00  0.00    +0.000 HD
BRANCH  19  22
ATOM     22  C   UNL     1       9.269  10.574  18.901  0.00  0.00    +0.000 A 
ATOM     23  C   UNL     1       9.613  10.714  20.264  0.00  0.00    +0.000 A 
ATOM     24  C   UNL     1      10.270  11.858  20.724  0.00  0.00    +0.000 A 
ATOM     25  C   UNL     1      10.595  12.884  19.837  0.00  0.00    +0.000 A 
ATOM     26  F   UNL     1      11.233  13.993  20.284  0.00  0.00    +0.000 F 
ATOM     27  C   UNL     1      10.265  12.765  18.487  0.00  0.00    +0.000 A 
ATOM     28  C   UNL     1       9.607  11.623  18.018  0.00  0.00    +0.000 A 
ENDBRANCH  19  22
ENDBRANCH  17  20
ENDBRANCH  16  17
ENDBRANCH   1  16
TORSDOF 5
ENDMDL
MODEL 6
REMARK VINA RESULT:      -7.5      1.183      1.317
REMARK  Name = 
REMARK  5 active torsions:
REMARK  status: ('A' for Active; 'I' for Inactive)
REMARK    1  A    between atoms: C_2  and  C_21
REMARK    2  A    between atoms: N_3  and  C_4
REMARK    3  A    between atoms: C_4  and  C_5
REMARK    4  A    between atoms: C_5  and  N_6
REMARK    5  A    between atoms: N_9  and  C_10
REMARK                            x       y       z     vdW  Elec       q    Type
REMARK                         _______ _______ _______ _____ _____    ______ ____
ROOT
ATOM      1  N   UNL     1       7.220   6.527  17.343  0.00  0.00    +0.000 NA
ATOM      2  C   UNL     1       7.162   5.788  18.629  0.00  0.00    +0.000 C 
ATOM      3  C   UNL     1       5.731   5.752  19.215  0.00  0.00    +0.000 C 
ATOM      4  N   UNL     1       4.815   5.250  18.195  0.00  0.00    +0.000 N 
ATOM      5  C   UNL     1       4.844   5.945  16.915  0.00  0.00    +0.000 C 
ATOM      6  C   UNL     1       6.275   5.911  16.378  0.00  0.00    +0.000 C 
ENDROOT
BRANCH   4   7
ATOM      7  C   UNL     1       3.961   4.112  18.414  0.00  0.00    +0.000 A 
ATOM      8  C   UNL     1       4.176   2.877  17.741  0.00  0.00    +0.000 A 
ATOM      9  C   UNL     1       3.321   1.775  17.948  0.00  0.00    +0.000 A 
ATOM     10  C   UNL     1       2.227   1.875  18.817  0.00  0.00    +0.000 A 
ATOM     11  C   UNL     1       2.022   3.088  19.462  0.00  0.00    +0.000 A 
ATOM     12  C   UNL     1       1.038   3.478  20.335  0.00  0.00    +0.000 A 
ATOM     13  C   UNL     1       1.328   4.802  20.633  0.00  0.00    +0.000 A 
ATOM     14  O   UNL     1       2.413   5.184  19.985  0.00  0.00    +0.000 OA
ATOM     15  C   UNL     1       2.851   4.164  19.280  0.00  0.00    +0.000 A 
ENDBRANCH   4   7
BRANCH   1  16
ATOM     16  C   UNL     1       7.051   7.991  17.545  0.00  0.00    +0.000 C 
BRANCH  16  17
ATOM     17  C   UNL     1       8.348   8.696  17.982  0.00  0.00    +0.000 C 
BRANCH  17  20
ATOM     18  O   UNL     1      10.282  10.598  17.851  0.00  0.00    +0.000 OA
ATOM     19  C   UNL     1       9.157  11.010  18.106  0.00  0.00    +0.000 C 
ATOM     20  N   UNL     1       8.128  10.115  18.198  0.00  0.00    +0.000 N 
ATOM     21  H   UNL     1       7.174  10.430  18.404  0.00  0.00    +0.000 HD
BRANCH  19  22
ATOM     22  C   UNL     1       8.963  12.484  18.303  0.00  0.00    +0.000 A 
ATOM     23  C   UNL     1       9.812  13.175  19.196  0.00  0.00    +0.000 A 
ATOM     24  C   UNL     1       9.664  14.548  19.407  0.00  0.00    +0.000 A 
ATOM     25  C   UNL     1       8.670  15.258  18.735  0.00  0.00    +0.000 A 
ATOM     26  F   UNL     1       8.529  16.590  18.940  0.00  0.00    +0.000 F 
ATOM     27  C   UNL     1       7.822  14.594  17.849  0.00  0.00    +0.000 A 
ATOM     28  C   UNL     1       7.962  13.220  17.632  0.00  0.00    +0.000 A 
ENDBRANCH  19  22
ENDBRANCH  17  20
ENDBRANCH  16  17
ENDBRANCH   1  16
TORSDOF 5
ENDMDL
MODEL 7
REMARK VINA RESULT:      -7.4      1.836      2.638
REMARK  Name = 
REMARK  5 active torsions:
REMARK  status: ('A' for Active; 'I' for Inactive)
REMARK    1  A    between atoms: C_2  and  C_21
REMARK    2  A    between atoms: N_3  and  C_4
REMARK    3  A    between atoms: C_4  and  C_5
REMARK    4  A    between atoms: C_5  and  N_6
REMARK    5  A    between atoms: N_9  and  C_10
REMARK                            x       y       z     vdW  Elec       q    Type
REMARK                         _______ _______ _______ _____ _____    ______ ____
ROOT
ATOM      1  N   UNL     1       7.009   6.253  17.375  0.00  0.00    +0.000 NA
ATOM      2  C   UNL     1       6.886   4.921  18.018  0.00  0.00    +0.000 C 
ATOM      3  C   UNL     1       6.058   4.978  19.323  0.00  0.00    +0.000 C 
ATOM      4  N   UNL     1       4.781   5.627  19.044  0.00  0.00    +0.000 N 
ATOM      5  C   UNL     1       4.857   6.936  18.409  0.00  0.00    +0.000 C 
ATOM      6  C   UNL     1       5.653   6.799  17.112  0.00  0.00    +0.000 C 
ENDROOT
BRANCH   4   7
ATOM      7  C   UNL     1       3.516   5.005  19.337  0.00  0.00    +0.000 A 
ATOM      8  C   UNL     1       2.563   5.620  20.194  0.00  0.00    +0.000 A 
ATOM      9  C   UNL     1       1.335   4.993  20.490  0.00  0.00    +0.000 A 
ATOM     10  C   UNL     1       1.029   3.736  19.951  0.00  0.00    +0.000 A 
ATOM     11  C   UNL     1       1.970   3.142  19.120  0.00  0.00    +0.000 A 
ATOM     12  C   UNL     1       1.954   1.929  18.479  0.00  0.00    +0.000 A 
ATOM     13  C   UNL     1       3.169   1.860  17.814  0.00  0.00    +0.000 A 
ATOM     14  O   UNL     1       3.870   2.956  18.037  0.00  0.00    +0.000 OA
ATOM     15  C   UNL     1       3.163   3.745  18.815  0.00  0.00    +0.000 A 
ENDBRANCH   4   7
BRANCH   1  16
ATOM     16  C   UNL     1       7.912   7.151  18.144  0.00  0.00    +0.000 C 
BRANCH  16  17
ATOM     17  C   UNL     1       8.017   8.564  17.543  0.00  0.00    +0.000 C 
BRANCH  17  20
ATOM     18  O   UNL     1       9.881  10.535  17.411  0.00  0.00    +0.000 OA
ATOM     19  C   UNL     1       9.199  10.524  18.428  0.00  0.00    +0.000 C 
ATOM     20  N   UNL     1       8.243   9.559  18.576  0.00  0.00    +0.000 N 
ATOM     21  H   UNL     1       7.652   9.528  19.414  0.00  0.00    +0.000 HD
BRANCH  19  22
ATOM     22  C   UNL     1       9.447  11.578  19.466  0.00  0.00    +0.000 A 
ATOM     23  C   UNL     1       9.807  12.880  19.050  0.00  0.00    +0.000 A 
ATOM     24  C   UNL     1      10.045  13.890  19.986  0.00  0.00    +0.000 A 
ATOM     25  C   UNL     1       9.931  13.624  21.350  0.00  0.00    +0.000 A 
ATOM     26  F   UNL     1      10.163  14.605  22.256  0.00  0.00    +0.000 F 
ATOM     27  C   UNL     1       9.578  12.345  21.780  0.00  0.00    +0.000 A 
ATOM     28  C   UNL     1       9.337  11.328  20.852  0.00  0.00    +0.000 A 
ENDBRANCH  19  22
ENDBRANCH  17  20
ENDBRANCH  16  17
ENDBRANCH   1  16
TORSDOF 5
ENDMDL
MODEL 8
REMARK VINA RESULT:      -7.3      1.329      1.578
REMARK  Name = 
REMARK  5 active torsions:
REMARK  status: ('A' for Active; 'I' for Inactive)
REMARK    1  A    between atoms: C_2  and  C_21
REMARK    2  A    between atoms: N_3  and  C_4
REMARK    3  A    between atoms: C_4  and  C_5
REMARK    4  A    between atoms: C_5  and  N_6
REMARK    5  A    between atoms: N_9  and  C_10
REMARK                            x       y       z     vdW  Elec       q    Type
REMARK                         _______ _______ _______ _____ _____    ______ ____
ROOT
ATOM      1  N   UNL     1       7.266   6.564  17.378  0.00  0.00    +0.000 NA
ATOM      2  C   UNL     1       7.154   5.796  18.643  0.00  0.00    +0.000 C 
ATOM      3  C   UNL     1       5.709   5.791  19.195  0.00  0.00    +0.000 C 
ATOM      4  N   UNL     1       4.803   5.344  18.142  0.00  0.00    +0.000 N 
ATOM      5  C   UNL     1       4.884   6.069  16.881  0.00  0.00    +0.000 C 
ATOM      6  C   UNL     1       6.325   6.002  16.376  0.00  0.00    +0.000 C 
ENDROOT
BRANCH   4   7
ATOM      7  C   UNL     1       3.908   4.229  18.312  0.00  0.00    +0.000 A 
ATOM      8  C   UNL     1       4.000   3.068  17.497  0.00  0.00    +0.000 A 
ATOM      9  C   UNL     1       3.105   1.989  17.659  0.00  0.00    +0.000 A 
ATOM     10  C   UNL     1       2.093   2.043  18.626  0.00  0.00    +0.000 A 
ATOM     11  C   UNL     1       2.008   3.185  19.411  0.00  0.00    +0.000 A 
ATOM     12  C   UNL     1       1.122   3.520  20.403  0.00  0.00    +0.000 A 
ATOM     13  C   UNL     1       1.508   4.788  20.813  0.00  0.00    +0.000 A 
ATOM     14  O   UNL     1       2.555   5.190  20.117  0.00  0.00    +0.000 OA
ATOM     15  C   UNL     1       2.878   4.236  19.273  0.00  0.00    +0.000 A 
ENDBRANCH   4   7
BRANCH   1  16
ATOM     16  C   UNL     1       7.138   8.027  17.612  0.00  0.00    +0.000 C 
BRANCH  16  17
ATOM     17  C   UNL     1       8.495   8.733  17.792  0.00  0.00    +0.000 C 
BRANCH  17  20
ATOM     18  O   UNL     1      10.316  10.743  17.659  0.00  0.00    +0.000 OA
ATOM     19  C   UNL     1       9.295  11.000  18.284  0.00  0.00    +0.000 C 
ATOM     20  N   UNL     1       8.331  10.039  18.405  0.00  0.00    +0.000 N 
ATOM     21  H   UNL     1       7.462  10.227  18.917  0.00  0.00    +0.000 HD
BRANCH  19  22
ATOM     22  C   UNL     1       9.151  12.366  18.887  0.00  0.00    +0.000 A 
ATOM     23  C   UNL     1       8.631  13.415  18.096  0.00  0.00    +0.000 A 
ATOM     24  C   UNL     1       8.482  14.701  18.621  0.00  0.00    +0.000 A 
ATOM     25  C   UNL     1       8.846  14.967  19.941  0.00  0.00    +0.000 A 
ATOM     26  F   UNL     1       8.699  16.215  20.448  0.00  0.00    +0.000 F 
ATOM     27  C   UNL     1       9.361  13.945  20.738  0.00  0.00    +0.000 A 
ATOM     28  C   UNL     1       9.515  12.655  20.221  0.00  0.00    +0.000 A 
ENDBRANCH  19  22
ENDBRANCH  17  20
ENDBRANCH  16  17
ENDBRANCH   1  16
TORSDOF 5
ENDMDL
MODEL 9
REMARK VINA RESULT:      -7.3      5.743      7.700
REMARK  Name = 
REMARK  5 active torsions:
REMARK  status: ('A' for Active; 'I' for Inactive)
REMARK    1  A    between atoms: C_2  and  C_21
REMARK    2  A    between atoms: N_3  and  C_4
REMARK    3  A    between atoms: C_4  and  C_5
REMARK    4  A    between atoms: C_5  and  N_6
REMARK    5  A    between atoms: N_9  and  C_10
REMARK                            x       y       z     vdW  Elec       q    Type
REMARK                         _______ _______ _______ _____ _____    ______ ____
ROOT
ATOM      1  N   UNL     1       2.736   5.148  18.807  0.00  0.00    +0.000 NA
ATOM      2  C   UNL     1       1.748   5.313  19.902  0.00  0.00    +0.000 C 
ATOM      3  C   UNL     1       1.947   6.640  20.670  0.00  0.00    +0.000 C 
ATOM      4  N   UNL     1       1.967   7.742  19.712  0.00  0.00    +0.000 N 
ATOM      5  C   UNL     1       2.921   7.617  18.618  0.00  0.00    +0.000 C 
ATOM      6  C   UNL     1       2.645   6.306  17.882  0.00  0.00    +0.000 C 
ENDROOT
BRANCH   4   7
ATOM      7  C   UNL     1       1.076   8.868  19.809  0.00  0.00    +0.000 A 
ATOM      8  C   UNL     1       0.714   9.633  18.666  0.00  0.00    +0.000 A 
ATOM      9  C   UNL     1      -0.144  10.747  18.775  0.00  0.00    +0.000 A 
ATOM     10  C   UNL     1      -0.654  11.134  20.021  0.00  0.00    +0.000 A 
ATOM     11  C   UNL     1      -0.288  10.385  21.131  0.00  0.00    +0.000 A 
ATOM     12  C   UNL     1      -0.609  10.539  22.456  0.00  0.00    +0.000 A 
ATOM     13  C   UNL     1       0.061   9.514  23.108  0.00  0.00    +0.000 A 
ATOM     14  O   UNL     1       0.738   8.790  22.236  0.00  0.00    +0.000 OA
ATOM     15  C   UNL     1       0.536   9.293  21.039  0.00  0.00    +0.000 A 
ENDBRANCH   4   7
BRANCH   1  16
ATOM     16  C   UNL     1       4.099   4.869  19.335  0.00  0.00    +0.000 C 
BRANCH  16  17
ATOM     17  C   UNL     1       4.697   3.554  18.804  0.00  0.00    +0.000 C 
BRANCH  17  20
ATOM     18  O   UNL     1       6.903   4.650  17.662  0.00  0.00    +0.000 OA
ATOM     19  C   UNL     1       6.081   4.190  16.880  0.00  0.00    +0.000 C 
ATOM     20  N   UNL     1       4.938   3.627  17.374  0.00  0.00    +0.000 N 
ATOM     21  H   UNL     1       4.234   3.227  16.744  0.00  0.00    +0.000 HD
BRANCH  19  22
ATOM     22  C   UNL     1       6.372   4.265  15.411  0.00  0.00    +0.000 A 
ATOM     23  C   UNL     1       7.428   5.090  14.961  0.00  0.00    +0.000 A 
ATOM     24  C   UNL     1       7.731   5.187  13.600  0.00  0.00    +0.000 A 
ATOM     25  C   UNL     1       6.991   4.466  12.663  0.00  0.00    +0.000 A 
ATOM     26  F   UNL     1       7.287   4.561  11.344  0.00  0.00    +0.000 F 
ATOM     27  C   UNL     1       5.945   3.647  13.088  0.00  0.00    +0.000 A 
ATOM     28  C   UNL     1       5.634   3.544  14.447  0.00  0.00    +0.000 A 
ENDBRANCH  19  22
ENDBRANCH  17  20
ENDBRANCH  16  17
ENDBRANCH   1  16
TORSDOF 5
ENDMDL
