MODEL 1
REMARK VINA RESULT:      -6.8      0.000      0.000
REMARK  Name = 
REMARK  3 active torsions:
REMARK  status: ('A' for Active; 'I' for Inactive)
REMARK    1  A    between atoms: C_1  and  C_2
REMARK    2  A    between atoms: C_2  and  C_3
REMARK    3  A    between atoms: C_15  and  C_16
REMARK                            x       y       z     vdW  Elec       q    Type
REMARK                         _______ _______ _______ _____ _____    ______ ____
ROOT
ATOM      1  C   UNL     1      -0.968  15.731  25.380  0.00  0.00    +0.000 C 
ATOM      2  C   UNL     1      -1.792  16.292  24.206  0.00  0.00    +0.000 C 
ATOM      3  C   UNL     1      -1.937  17.810  24.392  0.00  0.00    +0.000 C 
ATOM      4  C   UNL     1      -1.076  15.981  22.847  0.00  0.00    +0.000 C 
ATOM      5  C   UNL     1      -1.341  14.565  22.440  0.00  0.00    +0.000 A 
ATOM      6  N   UNL     1      -0.578  13.886  21.504  0.00  0.00    +0.000 NA
ATOM      7  C   UNL     1      -1.131  12.713  21.239  0.00  0.00    +0.000 A 
ATOM      8  N   UNL     1      -0.726  11.841  20.270  0.00  0.00    +0.000 N 
ATOM      9  C   UNL     1       0.683  11.823  19.886  0.00  0.00    +0.000 C 
ATOM     10  C   UNL     1       1.028  10.412  19.406  0.00  0.00    +0.000 C 
ATOM     11  O   UNL     1       0.287  10.033  18.241  0.00  0.00    +0.000 OA
ATOM     12  C   UNL     1      -1.021  10.455  18.257  0.00  0.00    +0.000 A 
ATOM     13  C   UNL     1      -1.810   9.974  17.208  0.00  0.00    +0.000 A 
ATOM     14  C   UNL     1      -3.141  10.372  17.087  0.00  0.00    +0.000 A 
ATOM     15  C   UNL     1      -3.698  11.264  18.006  0.00  0.00    +0.000 A 
ATOM     16  C   UNL     1      -2.889  11.746  19.048  0.00  0.00    +0.000 A 
ATOM     17  C   UNL     1      -1.548  11.348  19.212  0.00  0.00    +0.000 A 
ATOM     18  S   UNL     1      -2.437  12.294  22.325  0.00  0.00    +0.000 S 
ATOM     19  C   UNL     1      -2.422  13.869  22.929  0.00  0.00    +0.000 A 
ATOM     20  C   UNL     1      -3.410  14.404  23.825  0.00  0.00    +0.000 C 
ATOM     21  O   UNL     1      -4.439  13.839  24.181  0.00  0.00    +0.000 OA
ATOM     22  N   UNL     1      -3.143  15.689  24.252  0.00  0.00    +0.000 N 
ATOM     23  H   UNL     1      -3.808  16.021  24.941  0.00  0.00    +0.000 HD
ENDROOT
BRANCH  15  24
ATOM     24  C   UNL     1      -5.086  11.708  17.872  0.00  0.00    +0.000 A 
ATOM     25  C   UNL     1      -6.257  11.279  18.469  0.00  0.00    +0.000 A 
ATOM     26  N   UNL     1      -7.341  11.997  18.031  0.00  0.00    +0.000 NA
ATOM     27  C   UNL     1      -6.852  12.865  17.178  0.00  0.00    +0.000 A 
ATOM     28  N   UNL     1      -5.499  12.734  17.050  0.00  0.00    +0.000 N 
ATOM     29  H   UNL     1      -4.909  13.306  16.463  0.00  0.00    +0.000 HD
ENDBRANCH  15  24
TORSDOF 1
ENDMDL
MODEL 2
REMARK VINA RESULT:      -6.7      6.247      9.991
REMARK  Name = 
REMARK  3 active torsions:
REMARK  status: ('A' for Active; 'I' for Inactive)
REMARK    1  A    between atoms: C_1  and  C_2
REMARK    2  A    between atoms: C_2  and  C_3
REMARK    3  A    between atoms: C_15  and  C_16
REMARK                            x       y       z     vdW  Elec       q    Type
REMARK                         _______ _______ _______ _____ _____    ______ ____
ROOT
ATOM      1  C   UNL     1      -1.291   9.615  20.504  0.00  0.00    +0.000 C 
ATOM      2  C   UNL     1       0.055   9.823  21.223  0.00  0.00    +0.000 C 
ATOM      3  C   UNL     1      -0.222  10.418  22.613  0.00  0.00    +0.000 C 
ATOM      4  C   UNL     1       0.810   8.458  21.362  0.00  0.00    +0.000 C 
ATOM      5  C   UNL     1       1.483   8.110  20.070  0.00  0.00    +0.000 A 
ATOM      6  N   UNL     1       1.915   6.832  19.756  0.00  0.00    +0.000 NA
ATOM      7  C   UNL     1       2.599   6.855  18.623  0.00  0.00    +0.000 A 
ATOM      8  N   UNL     1       3.284   5.805  18.084  0.00  0.00    +0.000 N 
ATOM      9  C   UNL     1       2.815   4.448  18.353  0.00  0.00    +0.000 C 
ATOM     10  C   UNL     1       3.207   3.564  17.167  0.00  0.00    +0.000 C 
ATOM     11  O   UNL     1       4.625   3.475  16.995  0.00  0.00    +0.000 OA
ATOM     12  C   UNL     1       5.285   4.660  17.219  0.00  0.00    +0.000 A 
ATOM     13  C   UNL     1       6.648   4.644  16.913  0.00  0.00    +0.000 A 
ATOM     14  C   UNL     1       7.436   5.771  17.146  0.00  0.00    +0.000 A 
ATOM     15  C   UNL     1       6.874   6.925  17.696  0.00  0.00    +0.000 A 
ATOM     16  C   UNL     1       5.504   6.921  18.006  0.00  0.00    +0.000 A 
ATOM     17  C   UNL     1       4.676   5.808  17.765  0.00  0.00    +0.000 A 
ATOM     18  S   UNL     1       2.494   8.380  17.774  0.00  0.00    +0.000 S 
ATOM     19  C   UNL     1       1.779   9.074  19.135  0.00  0.00    +0.000 A 
ATOM     20  C   UNL     1       1.524  10.479  19.290  0.00  0.00    +0.000 C 
ATOM     21  O   UNL     1       1.882  11.365  18.520  0.00  0.00    +0.000 OA
ATOM     22  N   UNL     1       0.851  10.802  20.452  0.00  0.00    +0.000 N 
ATOM     23  H   UNL     1       0.614  11.786  20.508  0.00  0.00    +0.000 HD
ENDROOT
BRANCH  15  24
ATOM     24  C   UNL     1       7.697   8.103  17.967  0.00  0.00    +0.000 A 
ATOM     25  C   UNL     1       7.722   9.366  17.403  0.00  0.00    +0.000 A 
ATOM     26  N   UNL     1       8.680  10.160  17.982  0.00  0.00    +0.000 NA
ATOM     27  C   UNL     1       9.240   9.406  18.897  0.00  0.00    +0.000 A 
ATOM     28  N   UNL     1       8.682   8.160  18.929  0.00  0.00    +0.000 N 
ATOM     29  H   UNL     1       8.942   7.419  19.565  0.00  0.00    +0.000 HD
ENDBRANCH  15  24
TORSDOF 1
ENDMDL
MODEL 3
REMARK VINA RESULT:      -6.6      2.702      5.344
REMARK  Name = 
REMARK  3 active torsions:
REMARK  status: ('A' for Active; 'I' for Inactive)
REMARK    1  A    between atoms: C_1  and  C_2
REMARK    2  A    between atoms: C_2  and  C_3
REMARK    3  A    between atoms: C_15  and  C_16
REMARK                            x       y       z     vdW  Elec       q    Type
REMARK                         _______ _______ _______ _____ _____    ______ ____
ROOT
ATOM      1  C   UNL     1      -7.530  15.378  22.645  0.00  0.00    +0.000 C 
ATOM      2  C   UNL     1      -6.990  14.103  23.320  0.00  0.00    +0.000 C 
ATOM      3  C   UNL     1      -7.916  13.739  24.490  0.00  0.00    +0.000 C 
ATOM      4  C   UNL     1      -6.939  12.926  22.286  0.00  0.00    +0.000 C 
ATOM      5  C   UNL     1      -5.726  13.057  21.419  0.00  0.00    +0.000 A 
ATOM      6  N   UNL     1      -5.583  12.405  20.204  0.00  0.00    +0.000 NA
ATOM      7  C   UNL     1      -4.359  12.590  19.737  0.00  0.00    +0.000 A 
ATOM      8  N   UNL     1      -3.827  11.986  18.635  0.00  0.00    +0.000 N 
ATOM      9  C   UNL     1      -4.721  11.597  17.546  0.00  0.00    +0.000 C 
ATOM     10  C   UNL     1      -3.928  11.642  16.239  0.00  0.00    +0.000 C 
ATOM     11  O   UNL     1      -2.842  10.709  16.224  0.00  0.00    +0.000 OA
ATOM     12  C   UNL     1      -2.184  10.607  17.426  0.00  0.00    +0.000 A 
ATOM     13  C   UNL     1      -1.030   9.820  17.403  0.00  0.00    +0.000 A 
ATOM     14  C   UNL     1      -0.303   9.599  18.572  0.00  0.00    +0.000 A 
ATOM     15  C   UNL     1      -0.726  10.154  19.783  0.00  0.00    +0.000 A 
ATOM     16  C   UNL     1      -1.893  10.935  19.790  0.00  0.00    +0.000 A 
ATOM     17  C   UNL     1      -2.639  11.194  18.624  0.00  0.00    +0.000 A 
ATOM     18  S   UNL     1      -3.444  13.788  20.624  0.00  0.00    +0.000 S 
ATOM     19  C   UNL     1      -4.633  13.790  21.821  0.00  0.00    +0.000 A 
ATOM     20  C   UNL     1      -4.511  14.462  23.085  0.00  0.00    +0.000 C 
ATOM     21  O   UNL     1      -3.505  15.023  23.507  0.00  0.00    +0.000 OA
ATOM     22  N   UNL     1      -5.647  14.396  23.867  0.00  0.00    +0.000 N 
ATOM     23  H   UNL     1      -5.569  14.938  24.720  0.00  0.00    +0.000 HD
ENDROOT
BRANCH  15  24
ATOM     24  C   UNL     1       0.015   9.906  21.019  0.00  0.00    +0.000 A 
ATOM     25  C   UNL     1      -0.213  10.290  22.329  0.00  0.00    +0.000 A 
ATOM     26  N   UNL     1       0.766   9.825  23.170  0.00  0.00    +0.000 NA
ATOM     27  C   UNL     1       1.588   9.156  22.399  0.00  0.00    +0.000 A 
ATOM     28  N   UNL     1       1.179   9.173  21.096  0.00  0.00    +0.000 N 
ATOM     29  H   UNL     1       1.647   8.710  20.330  0.00  0.00    +0.000 HD
ENDBRANCH  15  24
TORSDOF 1
ENDMDL
MODEL 4
REMARK VINA RESULT:      -6.4      3.584      5.338
REMARK  Name = 
REMARK  3 active torsions:
REMARK  status: ('A' for Active; 'I' for Inactive)
REMARK    1  A    between atoms: C_1  and  C_2
REMARK    2  A    between atoms: C_2  and  C_3
REMARK    3  A    between atoms: C_15  and  C_16
REMARK                            x       y       z     vdW  Elec       q    Type
REMARK                         _______ _______ _______ _____ _____    ______ ____
ROOT
ATOM      1  C   UNL     1      -7.667  12.117  22.849  0.00  0.00    +0.000 C 
ATOM      2  C   UNL     1      -7.045  13.522  22.962  0.00  0.00    +0.000 C 
ATOM      3  C   UNL     1      -7.917  14.368  23.903  0.00  0.00    +0.000 C 
ATOM      4  C   UNL     1      -5.585  13.422  23.523  0.00  0.00    +0.000 C 
ATOM      5  C   UNL     1      -4.642  13.024  22.431  0.00  0.00    +0.000 A 
ATOM      6  N   UNL     1      -3.378  12.509  22.667  0.00  0.00    +0.000 NA
ATOM      7  C   UNL     1      -2.722  12.388  21.524  0.00  0.00    +0.000 A 
ATOM      8  N   UNL     1      -1.408  12.042  21.391  0.00  0.00    +0.000 N 
ATOM      9  C   UNL     1      -0.803  11.179  22.404  0.00  0.00    +0.000 C 
ATOM     10  C   UNL     1       0.314  10.375  21.738  0.00  0.00    +0.000 C 
ATOM     11  O   UNL     1       1.365  11.207  21.236  0.00  0.00    +0.000 OA
ATOM     12  C   UNL     1       0.920  12.373  20.661  0.00  0.00    +0.000 A 
ATOM     13  C   UNL     1       1.906  13.134  20.029  0.00  0.00    +0.000 A 
ATOM     14  C   UNL     1       1.587  14.364  19.452  0.00  0.00    +0.000 A 
ATOM     15  C   UNL     1       0.280  14.852  19.509  0.00  0.00    +0.000 A 
ATOM     16  C   UNL     1      -0.698  14.079  20.156  0.00  0.00    +0.000 A 
ATOM     17  C   UNL     1      -0.414  12.824  20.731  0.00  0.00    +0.000 A 
ATOM     18  S   UNL     1      -3.724  12.636  20.112  0.00  0.00    +0.000 S 
ATOM     19  C   UNL     1      -4.957  13.217  21.106  0.00  0.00    +0.000 A 
ATOM     20  C   UNL     1      -6.163  13.834  20.627  0.00  0.00    +0.000 C 
ATOM     21  O   UNL     1      -6.411  14.118  19.460  0.00  0.00    +0.000 OA
ATOM     22  N   UNL     1      -7.065  14.152  21.624  0.00  0.00    +0.000 N 
ATOM     23  H   UNL     1      -7.939  14.515  21.261  0.00  0.00    +0.000 HD
ENDROOT
BRANCH  15  24
ATOM     24  C   UNL     1      -0.060  16.152  18.930  0.00  0.00    +0.000 A 
ATOM     25  C   UNL     1       0.704  17.103  18.276  0.00  0.00    +0.000 A 
ATOM     26  N   UNL     1      -0.049  18.188  17.905  0.00  0.00    +0.000 NA
ATOM     27  C   UNL     1      -1.264  17.916  18.315  0.00  0.00    +0.000 A 
ATOM     28  N   UNL     1      -1.323  16.701  18.935  0.00  0.00    +0.000 N 
ATOM     29  H   UNL     1      -2.159  16.278  19.315  0.00  0.00    +0.000 HD
ENDBRANCH  15  24
TORSDOF 1
ENDMDL
MODEL 5
REMARK VINA RESULT:      -6.4      3.896      7.817
REMARK  Name = 
REMARK  3 active torsions:
REMARK  status: ('A' for Active; 'I' for Inactive)
REMARK    1  A    between atoms: C_1  and  C_2
REMARK    2  A    between atoms: C_2  and  C_3
REMARK    3  A    between atoms: C_15  and  C_16
REMARK                            x       y       z     vdW  Elec       q    Type
REMARK                         _______ _______ _______ _____ _____    ______ ____
ROOT
ATOM      1  C   UNL     1       4.747   5.503  19.696  0.00  0.00    +0.000 C 
ATOM      2  C   UNL     1       3.416   5.141  19.009  0.00  0.00    +0.000 C 
ATOM      3  C   UNL     1       3.386   3.624  18.773  0.00  0.00    +0.000 C 
ATOM      4  C   UNL     1       2.210   5.572  19.912  0.00  0.00    +0.000 C 
ATOM      5  C   UNL     1       1.958   7.040  19.767  0.00  0.00    +0.000 A 
ATOM      6  N   UNL     1       1.221   7.780  20.676  0.00  0.00    +0.000 NA
ATOM      7  C   UNL     1       1.043   9.008  20.216  0.00  0.00    +0.000 A 
ATOM      8  N   UNL     1       0.253   9.966  20.784  0.00  0.00    +0.000 N 
ATOM      9  C   UNL     1       0.054   9.944  22.231  0.00  0.00    +0.000 C 
ATOM     10  C   UNL     1      -0.194  11.379  22.699  0.00  0.00    +0.000 C 
ATOM     11  O   UNL     1      -1.383  11.943  22.136  0.00  0.00    +0.000 OA
ATOM     12  C   UNL     1      -1.586  11.603  20.820  0.00  0.00    +0.000 A 
ATOM     13  C   UNL     1      -2.654  12.255  20.199  0.00  0.00    +0.000 A 
ATOM     14  C   UNL     1      -2.992  11.957  18.879  0.00  0.00    +0.000 A 
ATOM     15  C   UNL     1      -2.273  10.995  18.166  0.00  0.00    +0.000 A 
ATOM     16  C   UNL     1      -1.208  10.342  18.808  0.00  0.00    +0.000 A 
ATOM     17  C   UNL     1      -0.828  10.633  20.132  0.00  0.00    +0.000 A 
ATOM     18  S   UNL     1       2.001   9.371  18.799  0.00  0.00    +0.000 S 
ATOM     19  C   UNL     1       2.394   7.736  18.663  0.00  0.00    +0.000 A 
ATOM     20  C   UNL     1       3.082   7.157  17.542  0.00  0.00    +0.000 C 
ATOM     21  O   UNL     1       3.377   7.736  16.502  0.00  0.00    +0.000 OA
ATOM     22  N   UNL     1       3.370   5.815  17.693  0.00  0.00    +0.000 N 
ATOM     23  H   UNL     1       3.922   5.443  16.929  0.00  0.00    +0.000 HD
ENDROOT
BRANCH  15  24
ATOM     24  C   UNL     1      -2.636  10.657  16.790  0.00  0.00    +0.000 A 
ATOM     25  C   UNL     1      -2.293   9.591  15.977  0.00  0.00    +0.000 A 
ATOM     26  N   UNL     1      -2.875   9.692  14.738  0.00  0.00    +0.000 NA
ATOM     27  C   UNL     1      -3.575  10.800  14.780  0.00  0.00    +0.000 A 
ATOM     28  N   UNL     1      -3.466  11.416  15.994  0.00  0.00    +0.000 N 
ATOM     29  H   UNL     1      -3.931  12.272  16.260  0.00  0.00    +0.000 HD
ENDBRANCH  15  24
TORSDOF 1
ENDMDL
MODEL 6
REMARK VINA RESULT:      -6.3      5.989      9.577
REMARK  Name = 
REMARK  3 active torsions:
REMARK  status: ('A' for Active; 'I' for Inactive)
REMARK    1  A    between atoms: C_1  and  C_2
REMARK    2  A    between atoms: C_2  and  C_3
REMARK    3  A    between atoms: C_15  and  C_16
REMARK                            x       y       z     vdW  Elec       q    Type
REMARK                         _______ _______ _______ _____ _____    ______ ____
ROOT
ATOM      1  C   UNL     1      -1.206  11.197  20.168  0.00  0.00    +0.000 C 
ATOM      2  C   UNL     1       0.247  11.308  20.666  0.00  0.00    +0.000 C 
ATOM      3  C   UNL     1       0.355  12.532  21.588  0.00  0.00    +0.000 C 
ATOM      4  C   UNL     1       0.651  10.009  21.443  0.00  0.00    +0.000 C 
ATOM      5  C   UNL     1       0.999   8.919  20.478  0.00  0.00    +0.000 A 
ATOM      6  N   UNL     1       1.043   7.579  20.825  0.00  0.00    +0.000 NA
ATOM      7  C   UNL     1       1.519   6.870  19.814  0.00  0.00    +0.000 A 
ATOM      8  N   UNL     1       1.825   5.540  19.848  0.00  0.00    +0.000 N 
ATOM      9  C   UNL     1       1.083   4.671  20.759  0.00  0.00    +0.000 C 
ATOM     10  C   UNL     1       1.046   3.267  20.153  0.00  0.00    +0.000 C 
ATOM     11  O   UNL     1       2.351   2.692  20.020  0.00  0.00    +0.000 OA
ATOM     12  C   UNL     1       3.312   3.590  19.620  0.00  0.00    +0.000 A 
ATOM     13  C   UNL     1       4.560   3.031  19.337  0.00  0.00    +0.000 A 
ATOM     14  C   UNL     1       5.631   3.846  18.970  0.00  0.00    +0.000 A 
ATOM     15  C   UNL     1       5.470   5.232  18.892  0.00  0.00    +0.000 A 
ATOM     16  C   UNL     1       4.211   5.778  19.189  0.00  0.00    +0.000 A 
ATOM     17  C   UNL     1       3.104   4.982  19.543  0.00  0.00    +0.000 A 
ATOM     18  S   UNL     1       1.661   7.778  18.327  0.00  0.00    +0.000 S 
ATOM     19  C   UNL     1       1.371   9.201  19.184  0.00  0.00    +0.000 A 
ATOM     20  C   UNL     1       1.502  10.522  18.632  0.00  0.00    +0.000 C 
ATOM     21  O   UNL     1       1.940  10.796  17.520  0.00  0.00    +0.000 OA
ATOM     22  N   UNL     1       1.127  11.531  19.498  0.00  0.00    +0.000 N 
ATOM     23  H   UNL     1       1.154  12.447  19.067  0.00  0.00    +0.000 HD
ENDROOT
BRANCH  15  24
ATOM     24  C   UNL     1       6.593   6.097  18.533  0.00  0.00    +0.000 A 
ATOM     25  C   UNL     1       7.853   6.256  19.083  0.00  0.00    +0.000 A 
ATOM     26  N   UNL     1       8.583   7.202  18.408  0.00  0.00    +0.000 NA
ATOM     27  C   UNL     1       7.794   7.622  17.450  0.00  0.00    +0.000 A 
ATOM     28  N   UNL     1       6.586   6.986  17.480  0.00  0.00    +0.000 N 
ATOM     29  H   UNL     1       5.830   7.136  16.828  0.00  0.00    +0.000 HD
ENDBRANCH  15  24
TORSDOF 1
ENDMDL
MODEL 7
REMARK VINA RESULT:      -6.3      3.583      5.600
REMARK  Name = 
REMARK  3 active torsions:
REMARK  status: ('A' for Active; 'I' for Inactive)
REMARK    1  A    between atoms: C_1  and  C_2
REMARK    2  A    between atoms: C_2  and  C_3
REMARK    3  A    between atoms: C_15  and  C_16
REMARK                            x       y       z     vdW  Elec       q    Type
REMARK                         _______ _______ _______ _____ _____    ______ ____
ROOT
ATOM      1  C   UNL     1      -5.840  14.714  23.706  0.00  0.00    +0.000 C 
ATOM      2  C   UNL     1      -5.729  13.770  22.493  0.00  0.00    +0.000 C 
ATOM      3  C   UNL     1      -7.140  13.296  22.113  0.00  0.00    +0.000 C 
ATOM      4  C   UNL     1      -5.068  14.519  21.286  0.00  0.00    +0.000 C 
ATOM      5  C   UNL     1      -3.582  14.568  21.463  0.00  0.00    +0.000 A 
ATOM      6  N   UNL     1      -2.761  15.449  20.779  0.00  0.00    +0.000 NA
ATOM      7  C   UNL     1      -1.493  15.165  21.026  0.00  0.00    +0.000 A 
ATOM      8  N   UNL     1      -0.414  15.739  20.418  0.00  0.00    +0.000 N 
ATOM      9  C   UNL     1      -0.530  17.113  19.933  0.00  0.00    +0.000 C 
ATOM     10  C   UNL     1       0.858  17.754  19.982  0.00  0.00    +0.000 C 
ATOM     11  O   UNL     1       1.796  17.099  19.121  0.00  0.00    +0.000 OA
ATOM     12  C   UNL     1       1.669  15.731  19.105  0.00  0.00    +0.000 A 
ATOM     13  C   UNL     1       2.663  15.054  18.393  0.00  0.00    +0.000 A 
ATOM     14  C   UNL     1       2.615  13.666  18.261  0.00  0.00    +0.000 A 
ATOM     15  C   UNL     1       1.568  12.938  18.831  0.00  0.00    +0.000 A 
ATOM     16  C   UNL     1       0.572  13.635  19.535  0.00  0.00    +0.000 A 
ATOM     17  C   UNL     1       0.601  15.033  19.704  0.00  0.00    +0.000 A 
ATOM     18  S   UNL     1      -1.274  13.999  22.311  0.00  0.00    +0.000 S 
ATOM     19  C   UNL     1      -2.928  13.674  22.279  0.00  0.00    +0.000 A 
ATOM     20  C   UNL     1      -3.559  12.604  23.002  0.00  0.00    +0.000 C 
ATOM     21  O   UNL     1      -2.983  11.730  23.641  0.00  0.00    +0.000 OA
ATOM     22  N   UNL     1      -4.935  12.587  22.891  0.00  0.00    +0.000 N 
ATOM     23  H   UNL     1      -5.367  11.874  23.468  0.00  0.00    +0.000 HD
ENDROOT
BRANCH  15  24
ATOM     24  C   UNL     1       1.495  11.485  18.677  0.00  0.00    +0.000 A 
ATOM     25  C   UNL     1       0.790  10.515  19.365  0.00  0.00    +0.000 A 
ATOM     26  N   UNL     1       1.037   9.261  18.866  0.00  0.00    +0.000 NA
ATOM     27  C   UNL     1       1.877   9.447  17.878  0.00  0.00    +0.000 A 
ATOM     28  N   UNL     1       2.182  10.769  17.721  0.00  0.00    +0.000 N 
ATOM     29  H   UNL     1       2.795  11.148  17.013  0.00  0.00    +0.000 HD
ENDBRANCH  15  24
TORSDOF 1
ENDMDL
MODEL 8
REMARK VINA RESULT:      -6.2      8.205     11.088
REMARK  Name = 
REMARK  3 active torsions:
REMARK  status: ('A' for Active; 'I' for Inactive)
REMARK    1  A    between atoms: C_1  and  C_2
REMARK    2  A    between atoms: C_2  and  C_3
REMARK    3  A    between atoms: C_15  and  C_16
REMARK                            x       y       z     vdW  Elec       q    Type
REMARK                         _______ _______ _______ _____ _____    ______ ____
ROOT
ATOM      1  C   UNL     1       1.679  16.889  20.569  0.00  0.00    +0.000 C 
ATOM      2  C   UNL     1       1.941  15.716  19.605  0.00  0.00    +0.000 C 
ATOM      3  C   UNL     1       0.633  15.390  18.869  0.00  0.00    +0.000 C 
ATOM      4  C   UNL     1       3.058  16.102  18.577  0.00  0.00    +0.000 C 
ATOM      5  C   UNL     1       4.408  15.965  19.209  0.00  0.00    +0.000 A 
ATOM      6  N   UNL     1       5.551  16.561  18.701  0.00  0.00    +0.000 NA
ATOM      7  C   UNL     1       6.610  16.147  19.377  0.00  0.00    +0.000 A 
ATOM      8  N   UNL     1       7.911  16.422  19.068  0.00  0.00    +0.000 N 
ATOM      9  C   UNL     1       8.219  17.673  18.378  0.00  0.00    +0.000 C 
ATOM     10  C   UNL     1       9.634  18.098  18.773  0.00  0.00    +0.000 C 
ATOM     11  O   UNL     1      10.627  17.153  18.360  0.00  0.00    +0.000 OA
ATOM     12  C   UNL     1      10.237  15.843  18.503  0.00  0.00    +0.000 A 
ATOM     13  C   UNL     1      11.234  14.899  18.250  0.00  0.00    +0.000 A 
ATOM     14  C   UNL     1      10.947  13.535  18.313  0.00  0.00    +0.000 A 
ATOM     15  C   UNL     1       9.656  13.098  18.619  0.00  0.00    +0.000 A 
ATOM     16  C   UNL     1       8.662  14.062  18.860  0.00  0.00    +0.000 A 
ATOM     17  C   UNL     1       8.923  15.445  18.825  0.00  0.00    +0.000 A 
ATOM     18  S   UNL     1       6.211  15.243  20.820  0.00  0.00    +0.000 S 
ATOM     19  C   UNL     1       4.604  15.166  20.310  0.00  0.00    +0.000 A 
ATOM     20  C   UNL     1       3.590  14.368  20.942  0.00  0.00    +0.000 C 
ATOM     21  O   UNL     1       3.770  13.564  21.851  0.00  0.00    +0.000 OA
ATOM     22  N   UNL     1       2.330  14.532  20.402  0.00  0.00    +0.000 N 
ATOM     23  H   UNL     1       1.616  14.022  20.908  0.00  0.00    +0.000 HD
ENDROOT
BRANCH  15  24
ATOM     24  C   UNL     1       9.338  11.671  18.662  0.00  0.00    +0.000 A 
ATOM     25  C   UNL     1       9.752  10.655  19.504  0.00  0.00    +0.000 A 
ATOM     26  N   UNL     1       9.189   9.452  19.159  0.00  0.00    +0.000 NA
ATOM     27  C   UNL     1       8.431   9.715  18.122  0.00  0.00    +0.000 A 
ATOM     28  N   UNL     1       8.484  11.037  17.786  0.00  0.00    +0.000 N 
ATOM     29  H   UNL     1       7.969  11.470  17.032  0.00  0.00    +0.000 HD
ENDBRANCH  15  24
TORSDOF 1
ENDMDL
MODEL 9
REMARK VINA RESULT:      -6.2      2.384      4.594
REMARK  Name = 
REMARK  3 active torsions:
REMARK  status: ('A' for Active; 'I' for Inactive)
REMARK    1  A    between atoms: C_1  and  C_2
REMARK    2  A    between atoms: C_2  and  C_3
REMARK    3  A    between atoms: C_15  and  C_16
REMARK                            x       y       z     vdW  Elec       q    Type
REMARK                         _______ _______ _______ _____ _____    ______ ____
ROOT
ATOM      1  C   UNL     1      -2.893  16.932  24.816  0.00  0.00    +0.000 C 
ATOM      2  C   UNL     1      -1.957  15.708  24.848  0.00  0.00    +0.000 C 
ATOM      3  C   UNL     1      -1.391  15.564  26.268  0.00  0.00    +0.000 C 
ATOM      4  C   UNL     1      -2.747  14.416  24.448  0.00  0.00    +0.000 C 
ATOM      5  C   UNL     1      -2.894  14.343  22.960  0.00  0.00    +0.000 A 
ATOM      6  N   UNL     1      -3.827  13.541  22.324  0.00  0.00    +0.000 NA
ATOM      7  C   UNL     1      -3.627  13.570  21.017  0.00  0.00    +0.000 A 
ATOM      8  N   UNL     1      -4.271  12.796  20.094  0.00  0.00    +0.000 N 
ATOM      9  C   UNL     1      -5.633  12.351  20.379  0.00  0.00    +0.000 C 
ATOM     10  C   UNL     1      -6.365  12.175  19.047  0.00  0.00    +0.000 C 
ATOM     11  O   UNL     1      -5.772  11.163  18.226  0.00  0.00    +0.000 OA
ATOM     12  C   UNL     1      -4.399  11.154  18.263  0.00  0.00    +0.000 A 
ATOM     13  C   UNL     1      -3.788  10.280  17.361  0.00  0.00    +0.000 A 
ATOM     14  C   UNL     1      -2.400  10.145  17.339  0.00  0.00    +0.000 A 
ATOM     15  C   UNL     1      -1.605  10.873  18.226  0.00  0.00    +0.000 A 
ATOM     16  C   UNL     1      -2.235  11.741  19.134  0.00  0.00    +0.000 A 
ATOM     17  C   UNL     1      -3.632  11.916  19.169  0.00  0.00    +0.000 A 
ATOM     18  S   UNL     1      -2.480  14.788  20.510  0.00  0.00    +0.000 S 
ATOM     19  C   UNL     1      -2.045  15.030  22.123  0.00  0.00    +0.000 A 
ATOM     20  C   UNL     1      -0.937  15.837  22.553  0.00  0.00    +0.000 C 
ATOM     21  O   UNL     1      -0.104  16.363  21.822  0.00  0.00    +0.000 OA
ATOM     22  N   UNL     1      -0.829  15.957  23.924  0.00  0.00    +0.000 N 
ATOM     23  H   UNL     1      -0.090  16.590  24.206  0.00  0.00    +0.000 HD
ENDROOT
BRANCH  15  24
ATOM     24  C   UNL     1      -0.150  10.719  18.229  0.00  0.00    +0.000 A 
ATOM     25  C   UNL     1       0.664   9.614  18.057  0.00  0.00    +0.000 A 
ATOM     26  N   UNL     1       1.992   9.946  18.145  0.00  0.00    +0.000 NA
ATOM     27  C   UNL     1       2.006  11.239  18.361  0.00  0.00    +0.000 A 
ATOM     28  N   UNL     1       0.742  11.752  18.417  0.00  0.00    +0.000 N 
ATOM     29  H   UNL     1       0.511  12.725  18.557  0.00  0.00    +0.000 HD
ENDBRANCH  15  24
TORSDOF 1
ENDMDL
