MODEL 1
REMARK VINA RESULT:      -7.1      0.000      0.000
REMARK  Name = 
REMARK  8 active torsions:
REMARK  status: ('A' for Active; 'I' for Inactive)
REMARK    1  A    between atoms: C_2  and  C_4
REMARK    2  A    between atoms: C_6  and  N_7
REMARK    3  A    between atoms: N_7  and  C_8
REMARK    4  A    between atoms: N_7  and  C_11
REMARK    5  A    between atoms: C_8  and  C_9
REMARK    6  A    between atoms: C_11  and  C_12
REMARK    7  A    between atoms: C_14  and  N_15
REMARK    8  A    between atoms: C_19  and  N_20
REMARK                            x       y       z     vdW  Elec       q    Type
REMARK                         _______ _______ _______ _____ _____    ______ ____
ROOT
ATOM      1  C   UNL     1       6.182   5.494  18.344  0.00  0.00    +0.000 A 
ATOM      2  C   UNL     1       5.201   5.316  19.358  0.00  0.00    +0.000 A 
ATOM      3  C   UNL     1       3.957   4.663  19.162  0.00  0.00    +0.000 A 
ATOM      4  C   UNL     1       3.717   4.280  17.821  0.00  0.00    +0.000 A 
ATOM      5  C   UNL     1       4.669   4.408  16.793  0.00  0.00    +0.000 A 
ATOM      6  C   UNL     1       5.904   4.996  17.078  0.00  0.00    +0.000 A 
ENDROOT
BRANCH   1   8
ATOM      7  N   UNL     1       8.216   5.551  19.750  0.00  0.00    +0.000 N 
ATOM      8  C   UNL     1       7.461   6.127  18.778  0.00  0.00    +0.000 C 
ATOM      9  O   UNL     1       7.855   7.154  18.228  0.00  0.00    +0.000 OA
ATOM     10  H   UNL     1       9.098   6.004  19.977  0.00  0.00    +0.000 HD
ATOM     11  H   UNL     1       8.053   4.649  20.186  0.00  0.00    +0.000 HD
ENDBRANCH   1   8
BRANCH   4  12
ATOM     12  N   UNL     1       2.424   3.790  17.380  0.00  0.00    +0.000 N 
ATOM     13  O   UNL     1       2.316   2.577  17.161  0.00  0.00    +0.000 OA
ATOM     14  O   UNL     1       1.509   4.620  17.322  0.00  0.00    +0.000 OA
ENDBRANCH   4  12
BRANCH   6  15
ATOM     15  N   UNL     1       6.870   5.010  16.007  0.00  0.00    +0.000 N 
ATOM     16  O   UNL     1       6.581   5.663  14.995  0.00  0.00    +0.000 OA
ATOM     17  O   UNL     1       7.884   4.317  16.159  0.00  0.00    +0.000 OA
ENDBRANCH   6  15
BRANCH   3  18
ATOM     18  N   UNL     1       3.106   4.406  20.243  0.00  0.00    +0.000 N 
BRANCH  18  19
ATOM     19  C   UNL     1       2.824   3.022  20.721  0.00  0.00    +0.000 C 
BRANCH  19  20
ATOM     20  C   UNL     1       1.369   2.771  21.122  0.00  0.00    +0.000 C 
ATOM     21 CL   UNL     1       0.315   2.515  19.708  0.00  0.00    +0.000 Cl
ENDBRANCH  19  20
ENDBRANCH  18  19
BRANCH  18  22
ATOM     22  C   UNL     1       2.057   5.395  20.630  0.00  0.00    +0.000 C 
BRANCH  22  23
ATOM     23  C   UNL     1       2.201   6.775  19.992  0.00  0.00    +0.000 C 
ATOM     24 BR   UNL     1       1.272   8.157  21.005  0.00  0.00    +0.000 Br
ENDBRANCH  22  23
ENDBRANCH  18  22
ENDBRANCH   3  18
TORSDOF 8
ENDMDL
MODEL 2
REMARK VINA RESULT:      -6.9      2.229      2.811
REMARK  Name = 
REMARK  8 active torsions:
REMARK  status: ('A' for Active; 'I' for Inactive)
REMARK    1  A    between atoms: C_2  and  C_4
REMARK    2  A    between atoms: C_6  and  N_7
REMARK    3  A    between atoms: N_7  and  C_8
REMARK    4  A    between atoms: N_7  and  C_11
REMARK    5  A    between atoms: C_8  and  C_9
REMARK    6  A    between atoms: C_11  and  C_12
REMARK    7  A    between atoms: C_14  and  N_15
REMARK    8  A    between atoms: C_19  and  N_20
REMARK                            x       y       z     vdW  Elec       q    Type
REMARK                         _______ _______ _______ _____ _____    ______ ____
ROOT
ATOM      1  C   UNL     1       5.860   6.049  17.545  0.00  0.00    +0.000 A 
ATOM      2  C   UNL     1       4.728   6.435  18.316  0.00  0.00    +0.000 A 
ATOM      3  C   UNL     1       3.545   5.664  18.441  0.00  0.00    +0.000 A 
ATOM      4  C   UNL     1       3.536   4.496  17.640  0.00  0.00    +0.000 A 
ATOM      5  C   UNL     1       4.642   4.060  16.888  0.00  0.00    +0.000 A 
ATOM      6  C   UNL     1       5.802   4.837  16.871  0.00  0.00    +0.000 A 
ENDROOT
BRANCH   1   8
ATOM      7  N   UNL     1       8.002   6.762  18.556  0.00  0.00    +0.000 N 
ATOM      8  C   UNL     1       7.039   6.960  17.618  0.00  0.00    +0.000 C 
ATOM      9  O   UNL     1       7.162   7.870  16.801  0.00  0.00    +0.000 OA
ATOM     10  H   UNL     1       8.803   7.388  18.533  0.00  0.00    +0.000 HD
ATOM     11  H   UNL     1       8.067   5.978  19.199  0.00  0.00    +0.000 HD
ENDBRANCH   1   8
BRANCH   4  12
ATOM     12  N   UNL     1       2.341   3.690  17.470  0.00  0.00    +0.000 N 
ATOM     13  O   UNL     1       1.309   4.265  17.104  0.00  0.00    +0.000 OA
ATOM     14  O   UNL     1       2.469   2.471  17.644  0.00  0.00    +0.000 OA
ENDBRANCH   4  12
BRANCH   6  15
ATOM     15  N   UNL     1       6.931   4.287  16.161  0.00  0.00    +0.000 N 
ATOM     16  O   UNL     1       7.985   4.148  16.798  0.00  0.00    +0.000 OA
ATOM     17  O   UNL     1       6.776   4.057  14.955  0.00  0.00    +0.000 OA
ENDBRANCH   6  15
BRANCH   3  18
ATOM     18  N   UNL     1       2.533   6.046  19.327  0.00  0.00    +0.000 N 
BRANCH  18  19
ATOM     19  C   UNL     1       1.988   7.434  19.362  0.00  0.00    +0.000 C 
BRANCH  19  20
ATOM     20  C   UNL     1       1.581   7.924  20.753  0.00  0.00    +0.000 C 
ATOM     21 CL   UNL     1       0.612   9.418  20.686  0.00  0.00    +0.000 Cl
ENDBRANCH  19  20
ENDBRANCH  18  19
BRANCH  18  22
ATOM     22  C   UNL     1       2.313   5.289  20.595  0.00  0.00    +0.000 C 
BRANCH  22  23
ATOM     23  C   UNL     1       1.155   4.294  20.563  0.00  0.00    +0.000 C 
ATOM     24 BR   UNL     1       1.577   2.639  21.502  0.00  0.00    +0.000 Br
ENDBRANCH  22  23
ENDBRANCH  18  22
ENDBRANCH   3  18
TORSDOF 8
ENDMDL
MODEL 3
REMARK VINA RESULT:      -6.9      2.261      2.796
REMARK  Name = 
REMARK  8 active torsions:
REMARK  status: ('A' for Active; 'I' for Inactive)
REMARK    1  A    between atoms: C_2  and  C_4
REMARK    2  A    between atoms: C_6  and  N_7
REMARK    3  A    between atoms: N_7  and  C_8
REMARK    4  A    between atoms: N_7  and  C_11
REMARK    5  A    between atoms: C_8  and  C_9
REMARK    6  A    between atoms: C_11  and  C_12
REMARK    7  A    between atoms: C_14  and  N_15
REMARK    8  A    between atoms: C_19  and  N_20
REMARK                            x       y       z     vdW  Elec       q    Type
REMARK                         _______ _______ _______ _____ _____    ______ ____
ROOT
ATOM      1  C   UNL     1       5.890   5.969  17.509  0.00  0.00    +0.000 A 
ATOM      2  C   UNL     1       4.785   6.359  18.316  0.00  0.00    +0.000 A 
ATOM      3  C   UNL     1       3.568   5.638  18.409  0.00  0.00    +0.000 A 
ATOM      4  C   UNL     1       3.495   4.524  17.538  0.00  0.00    +0.000 A 
ATOM      5  C   UNL     1       4.571   4.084  16.747  0.00  0.00    +0.000 A 
ATOM      6  C   UNL     1       5.767   4.805  16.762  0.00  0.00    +0.000 A 
ENDROOT
BRANCH   1   8
ATOM      7  N   UNL     1       8.010   6.597  18.616  0.00  0.00    +0.000 N 
ATOM      8  C   UNL     1       7.111   6.817  17.622  0.00  0.00    +0.000 C 
ATOM      9  O   UNL     1       7.327   7.695  16.788  0.00  0.00    +0.000 OA
ATOM     10  H   UNL     1       8.845   7.178  18.620  0.00  0.00    +0.000 HD
ATOM     11  H   UNL     1       7.997   5.830  19.283  0.00  0.00    +0.000 HD
ENDBRANCH   1   8
BRANCH   4  12
ATOM     12  N   UNL     1       2.262   3.786  17.335  0.00  0.00    +0.000 N 
ATOM     13  O   UNL     1       2.322   2.551  17.365  0.00  0.00    +0.000 OA
ATOM     14  O   UNL     1       1.230   4.458  17.211  0.00  0.00    +0.000 OA
ENDBRANCH   4  12
BRANCH   6  15
ATOM     15  N   UNL     1       6.861   4.248  16.005  0.00  0.00    +0.000 N 
ATOM     16  O   UNL     1       6.612   3.859  14.856  0.00  0.00    +0.000 OA
ATOM     17  O   UNL     1       7.949   4.145  16.586  0.00  0.00    +0.000 OA
ENDBRANCH   6  15
BRANCH   3  18
ATOM     18  N   UNL     1       2.584   6.012  19.330  0.00  0.00    +0.000 N 
BRANCH  18  19
ATOM     19  C   UNL     1       2.035   7.397  19.390  0.00  0.00    +0.000 C 
BRANCH  19  20
ATOM     20  C   UNL     1       2.097   8.164  18.067  0.00  0.00    +0.000 C 
ATOM     21 CL   UNL     1       0.963   9.538  18.030  0.00  0.00    +0.000 Cl
ENDBRANCH  19  20
ENDBRANCH  18  19
BRANCH  18  22
ATOM     22  C   UNL     1       2.410   5.248  20.601  0.00  0.00    +0.000 C 
BRANCH  22  23
ATOM     23  C   UNL     1       1.188   4.332  20.644  0.00  0.00    +0.000 C 
ATOM     24 BR   UNL     1       1.581   2.615  21.478  0.00  0.00    +0.000 Br
ENDBRANCH  22  23
ENDBRANCH  18  22
ENDBRANCH   3  18
TORSDOF 8
ENDMDL
MODEL 4
REMARK VINA RESULT:      -6.8      0.911      1.223
REMARK  Name = 
REMARK  8 active torsions:
REMARK  status: ('A' for Active; 'I' for Inactive)
REMARK    1  A    between atoms: C_2  and  C_4
REMARK    2  A    between atoms: C_6  and  N_7
REMARK    3  A    between atoms: N_7  and  C_8
REMARK    4  A    between atoms: N_7  and  C_11
REMARK    5  A    between atoms: C_8  and  C_9
REMARK    6  A    between atoms: C_11  and  C_12
REMARK    7  A    between atoms: C_14  and  N_15
REMARK    8  A    between atoms: C_19  and  N_20
REMARK                            x       y       z     vdW  Elec       q    Type
REMARK                         _______ _______ _______ _____ _____    ______ ____
ROOT
ATOM      1  C   UNL     1       6.168   5.546  18.363  0.00  0.00    +0.000 A 
ATOM      2  C   UNL     1       5.187   5.358  19.377  0.00  0.00    +0.000 A 
ATOM      3  C   UNL     1       3.915   4.771  19.160  0.00  0.00    +0.000 A 
ATOM      4  C   UNL     1       3.648   4.469  17.803  0.00  0.00    +0.000 A 
ATOM      5  C   UNL     1       4.597   4.608  16.774  0.00  0.00    +0.000 A 
ATOM      6  C   UNL     1       5.858   5.127  17.076  0.00  0.00    +0.000 A 
ENDROOT
BRANCH   1   8
ATOM      7  N   UNL     1       8.197   5.461  19.775  0.00  0.00    +0.000 N 
ATOM      8  C   UNL     1       7.476   6.100  18.816  0.00  0.00    +0.000 C 
ATOM      9  O   UNL     1       7.925   7.118  18.294  0.00  0.00    +0.000 OA
ATOM     10  H   UNL     1       9.100   5.861  20.015  0.00  0.00    +0.000 HD
ATOM     11  H   UNL     1       7.984   4.558  20.188  0.00  0.00    +0.000 HD
ENDBRANCH   1   8
BRANCH   4  12
ATOM     12  N   UNL     1       2.331   4.058  17.351  0.00  0.00    +0.000 N 
ATOM     13  O   UNL     1       1.417   4.888  17.421  0.00  0.00    +0.000 OA
ATOM     14  O   UNL     1       2.243   2.922  16.868  0.00  0.00    +0.000 OA
ENDBRANCH   4  12
BRANCH   6  15
ATOM     15  N   UNL     1       6.815   5.154  15.998  0.00  0.00    +0.000 N 
ATOM     16  O   UNL     1       6.540   5.860  15.017  0.00  0.00    +0.000 OA
ATOM     17  O   UNL     1       7.806   4.422  16.110  0.00  0.00    +0.000 OA
ENDBRANCH   6  15
BRANCH   3  18
ATOM     18  N   UNL     1       3.062   4.495  20.234  0.00  0.00    +0.000 N 
BRANCH  18  19
ATOM     19  C   UNL     1       2.773   3.103  20.683  0.00  0.00    +0.000 C 
BRANCH  19  20
ATOM     20  C   UNL     1       3.961   2.143  20.584  0.00  0.00    +0.000 C 
ATOM     21 CL   UNL     1       3.944   1.203  19.071  0.00  0.00    +0.000 Cl
ENDBRANCH  19  20
ENDBRANCH  18  19
BRANCH  18  22
ATOM     22  C   UNL     1       2.017   5.481  20.641  0.00  0.00    +0.000 C 
BRANCH  22  23
ATOM     23  C   UNL     1       2.187   6.882  20.059  0.00  0.00    +0.000 C 
ATOM     24 BR   UNL     1       1.233   8.231  21.093  0.00  0.00    +0.000 Br
ENDBRANCH  22  23
ENDBRANCH  18  22
ENDBRANCH   3  18
TORSDOF 8
ENDMDL
MODEL 5
REMARK VINA RESULT:      -6.7      1.037      1.395
REMARK  Name = 
REMARK  8 active torsions:
REMARK  status: ('A' for Active; 'I' for Inactive)
REMARK    1  A    between atoms: C_2  and  C_4
REMARK    2  A    between atoms: C_6  and  N_7
REMARK    3  A    between atoms: N_7  and  C_8
REMARK    4  A    between atoms: N_7  and  C_11
REMARK    5  A    between atoms: C_8  and  C_9
REMARK    6  A    between atoms: C_11  and  C_12
REMARK    7  A    between atoms: C_14  and  N_15
REMARK    8  A    between atoms: C_19  and  N_20
REMARK                            x       y       z     vdW  Elec       q    Type
REMARK                         _______ _______ _______ _____ _____    ______ ____
ROOT
ATOM      1  C   UNL     1       6.051   5.714  17.830  0.00  0.00    +0.000 A 
ATOM      2  C   UNL     1       5.163   5.534  18.927  0.00  0.00    +0.000 A 
ATOM      3  C   UNL     1       4.017   4.700  18.900  0.00  0.00    +0.000 A 
ATOM      4  C   UNL     1       3.760   4.121  17.634  0.00  0.00    +0.000 A 
ATOM      5  C   UNL     1       4.626   4.245  16.533  0.00  0.00    +0.000 A 
ATOM      6  C   UNL     1       5.777   5.026  16.655  0.00  0.00    +0.000 A 
ENDROOT
BRANCH   1   8
ATOM      7  N   UNL     1       7.444   7.710  17.390  0.00  0.00    +0.000 N 
ATOM      8  C   UNL     1       7.248   6.564  18.093  0.00  0.00    +0.000 C 
ATOM      9  O   UNL     1       8.042   6.247  18.976  0.00  0.00    +0.000 OA
ATOM     10  H   UNL     1       8.255   8.270  17.640  0.00  0.00    +0.000 HD
ATOM     11  H   UNL     1       6.799   8.129  16.727  0.00  0.00    +0.000 HD
ENDBRANCH   1   8
BRANCH   4  12
ATOM     12  N   UNL     1       2.529   3.408  17.350  0.00  0.00    +0.000 N 
ATOM     13  O   UNL     1       1.510   4.081  17.151  0.00  0.00    +0.000 OA
ATOM     14  O   UNL     1       2.611   2.176  17.265  0.00  0.00    +0.000 OA
ENDBRANCH   4  12
BRANCH   6  15
ATOM     15  N   UNL     1       6.670   5.034  15.523  0.00  0.00    +0.000 N 
ATOM     16  O   UNL     1       7.782   4.509  15.677  0.00  0.00    +0.000 OA
ATOM     17  O   UNL     1       6.280   5.621  14.506  0.00  0.00    +0.000 OA
ENDBRANCH   6  15
BRANCH   3  18
ATOM     18  N   UNL     1       3.273   4.469  20.062  0.00  0.00    +0.000 N 
BRANCH  18  19
ATOM     19  C   UNL     1       3.185   3.122  20.697  0.00  0.00    +0.000 C 
BRANCH  19  20
ATOM     20  C   UNL     1       1.787   2.502  20.684  0.00  0.00    +0.000 C 
ATOM     21 CL   UNL     1       1.062   2.440  22.311  0.00  0.00    +0.000 Cl
ENDBRANCH  19  20
ENDBRANCH  18  19
BRANCH  18  22
ATOM     22  C   UNL     1       2.142   5.373  20.428  0.00  0.00    +0.000 C 
BRANCH  22  23
ATOM     23  C   UNL     1       2.196   6.763  19.797  0.00  0.00    +0.000 C 
ATOM     24 BR   UNL     1       1.345   8.114  20.915  0.00  0.00    +0.000 Br
ENDBRANCH  22  23
ENDBRANCH  18  22
ENDBRANCH   3  18
TORSDOF 8
ENDMDL
MODEL 6
REMARK VINA RESULT:      -6.7      2.721      4.596
REMARK  Name = 
REMARK  8 active torsions:
REMARK  status: ('A' for Active; 'I' for Inactive)
REMARK    1  A    between atoms: C_2  and  C_4
REMARK    2  A    between atoms: C_6  and  N_7
REMARK    3  A    between atoms: N_7  and  C_8
REMARK    4  A    between atoms: N_7  and  C_11
REMARK    5  A    between atoms: C_8  and  C_9
REMARK    6  A    between atoms: C_11  and  C_12
REMARK    7  A    between atoms: C_14  and  N_15
REMARK    8  A    between atoms: C_19  and  N_20
REMARK                            x       y       z     vdW  Elec       q    Type
REMARK                         _______ _______ _______ _____ _____    ______ ____
ROOT
ATOM      1  C   UNL     1       5.973   3.937  13.941  0.00  0.00    +0.000 A 
ATOM      2  C   UNL     1       5.159   3.676  15.078  0.00  0.00    +0.000 A 
ATOM      3  C   UNL     1       5.390   4.215  16.368  0.00  0.00    +0.000 A 
ATOM      4  C   UNL     1       6.580   4.975  16.466  0.00  0.00    +0.000 A 
ATOM      5  C   UNL     1       7.397   5.285  15.365  0.00  0.00    +0.000 A 
ATOM      6  C   UNL     1       7.067   4.777  14.107  0.00  0.00    +0.000 A 
ENDROOT
BRANCH   1   8
ATOM      7  N   UNL     1       6.208   2.340  12.067  0.00  0.00    +0.000 N 
ATOM      8  C   UNL     1       5.507   3.345  12.654  0.00  0.00    +0.000 C 
ATOM      9  O   UNL     1       4.461   3.739  12.141  0.00  0.00    +0.000 OA
ATOM     10  H   UNL     1       5.821   1.947  11.213  0.00  0.00    +0.000 HD
ATOM     11  H   UNL     1       7.012   1.857  12.457  0.00  0.00    +0.000 HD
ENDBRANCH   1   8
BRANCH   4  12
ATOM     12  N   UNL     1       7.097   5.434  17.743  0.00  0.00    +0.000 N 
ATOM     13  O   UNL     1       6.928   6.625  18.034  0.00  0.00    +0.000 OA
ATOM     14  O   UNL     1       7.611   4.576  18.471  0.00  0.00    +0.000 OA
ENDBRANCH   4  12
BRANCH   6  15
ATOM     15  N   UNL     1       7.888   5.211  13.004  0.00  0.00    +0.000 N 
ATOM     16  O   UNL     1       8.830   5.972  13.266  0.00  0.00    +0.000 OA
ATOM     17  O   UNL     1       7.551   4.837  11.873  0.00  0.00    +0.000 OA
ENDBRANCH   6  15
BRANCH   3  18
ATOM     18  N   UNL     1       4.465   4.021  17.400  0.00  0.00    +0.000 N 
BRANCH  18  19
ATOM     19  C   UNL     1       3.963   2.667  17.774  0.00  0.00    +0.000 C 
BRANCH  19  20
ATOM     20  C   UNL     1       2.450   2.487  17.629  0.00  0.00    +0.000 C 
ATOM     21 CL   UNL     1       1.692   1.909  19.134  0.00  0.00    +0.000 Cl
ENDBRANCH  19  20
ENDBRANCH  18  19
BRANCH  18  22
ATOM     22  C   UNL     1       3.557   5.129  17.819  0.00  0.00    +0.000 C 
BRANCH  22  23
ATOM     23  C   UNL     1       3.731   5.598  19.262  0.00  0.00    +0.000 C 
ATOM     24 BR   UNL     1       2.095   5.408  20.303  0.00  0.00    +0.000 Br
ENDBRANCH  22  23
ENDBRANCH  18  22
ENDBRANCH   3  18
TORSDOF 8
ENDMDL
MODEL 7
REMARK VINA RESULT:      -6.6      1.404      1.557
REMARK  Name = 
REMARK  8 active torsions:
REMARK  status: ('A' for Active; 'I' for Inactive)
REMARK    1  A    between atoms: C_2  and  C_4
REMARK    2  A    between atoms: C_6  and  N_7
REMARK    3  A    between atoms: N_7  and  C_8
REMARK    4  A    between atoms: N_7  and  C_11
REMARK    5  A    between atoms: C_8  and  C_9
REMARK    6  A    between atoms: C_11  and  C_12
REMARK    7  A    between atoms: C_14  and  N_15
REMARK    8  A    between atoms: C_19  and  N_20
REMARK                            x       y       z     vdW  Elec       q    Type
REMARK                         _______ _______ _______ _____ _____    ______ ____
ROOT
ATOM      1  C   UNL     1       6.074   5.832  17.766  0.00  0.00    +0.000 A 
ATOM      2  C   UNL     1       5.014   6.029  18.695  0.00  0.00    +0.000 A 
ATOM      3  C   UNL     1       3.857   5.214  18.772  0.00  0.00    +0.000 A 
ATOM      4  C   UNL     1       3.787   4.222  17.765  0.00  0.00    +0.000 A 
ATOM      5  C   UNL     1       4.823   3.971  16.848  0.00  0.00    +0.000 A 
ATOM      6  C   UNL     1       5.968   4.770  16.877  0.00  0.00    +0.000 A 
ENDROOT
BRANCH   1   8
ATOM      7  N   UNL     1       7.415   7.781  17.045  0.00  0.00    +0.000 N 
ATOM      8  C   UNL     1       7.243   6.746  17.908  0.00  0.00    +0.000 C 
ATOM      9  O   UNL     1       8.036   6.587  18.834  0.00  0.00    +0.000 OA
ATOM     10  H   UNL     1       8.207   8.396  17.214  0.00  0.00    +0.000 HD
ATOM     11  H   UNL     1       6.766   8.079  16.323  0.00  0.00    +0.000 HD
ENDBRANCH   1   8
BRANCH   4  12
ATOM     12  N   UNL     1       2.591   3.428  17.549  0.00  0.00    +0.000 N 
ATOM     13  O   UNL     1       1.583   4.011  17.131  0.00  0.00    +0.000 OA
ATOM     14  O   UNL     1       2.696   2.209  17.741  0.00  0.00    +0.000 OA
ENDBRANCH   4  12
BRANCH   6  15
ATOM     15  N   UNL     1       7.032   4.401  15.977  0.00  0.00    +0.000 N 
ATOM     16  O   UNL     1       6.742   4.288  14.778  0.00  0.00    +0.000 OA
ATOM     17  O   UNL     1       8.136   4.165  16.482  0.00  0.00    +0.000 OA
ENDBRANCH   6  15
BRANCH   3  18
ATOM     18  N   UNL     1       2.927   5.389  19.803  0.00  0.00    +0.000 N 
BRANCH  18  19
ATOM     19  C   UNL     1       2.718   4.366  20.869  0.00  0.00    +0.000 C 
BRANCH  19  20
ATOM     20  C   UNL     1       1.343   3.695  20.847  0.00  0.00    +0.000 C 
ATOM     21 CL   UNL     1       1.232   2.347  22.007  0.00  0.00    +0.000 Cl
ENDBRANCH  19  20
ENDBRANCH  18  19
BRANCH  18  22
ATOM     22  C   UNL     1       1.762   6.305  19.622  0.00  0.00    +0.000 C 
BRANCH  22  23
ATOM     23  C   UNL     1       2.093   7.794  19.690  0.00  0.00    +0.000 C 
ATOM     24 BR   UNL     1       2.074   8.636  17.932  0.00  0.00    +0.000 Br
ENDBRANCH  22  23
ENDBRANCH  18  22
ENDBRANCH   3  18
TORSDOF 8
ENDMDL
MODEL 8
REMARK VINA RESULT:      -6.5      1.281      1.574
REMARK  Name = 
REMARK  8 active torsions:
REMARK  status: ('A' for Active; 'I' for Inactive)
REMARK    1  A    between atoms: C_2  and  C_4
REMARK    2  A    between atoms: C_6  and  N_7
REMARK    3  A    between atoms: N_7  and  C_8
REMARK    4  A    between atoms: N_7  and  C_11
REMARK    5  A    between atoms: C_8  and  C_9
REMARK    6  A    between atoms: C_11  and  C_12
REMARK    7  A    between atoms: C_14  and  N_15
REMARK    8  A    between atoms: C_19  and  N_20
REMARK                            x       y       z     vdW  Elec       q    Type
REMARK                         _______ _______ _______ _____ _____    ______ ____
ROOT
ATOM      1  C   UNL     1       6.130   5.392  18.439  0.00  0.00    +0.000 A 
ATOM      2  C   UNL     1       5.057   5.527  19.363  0.00  0.00    +0.000 A 
ATOM      3  C   UNL     1       3.780   4.934  19.199  0.00  0.00    +0.000 A 
ATOM      4  C   UNL     1       3.617   4.260  17.964  0.00  0.00    +0.000 A 
ATOM      5  C   UNL     1       4.657   4.074  17.036  0.00  0.00    +0.000 A 
ATOM      6  C   UNL     1       5.912   4.627  17.300  0.00  0.00    +0.000 A 
ENDROOT
BRANCH   1   8
ATOM      7  N   UNL     1       8.201   5.439  19.790  0.00  0.00    +0.000 N 
ATOM      8  C   UNL     1       7.421   6.020  18.842  0.00  0.00    +0.000 C 
ATOM      9  O   UNL     1       7.802   7.049  18.286  0.00  0.00    +0.000 OA
ATOM     10  H   UNL     1       9.090   5.890  19.995  0.00  0.00    +0.000 HD
ATOM     11  H   UNL     1       8.048   4.535  20.226  0.00  0.00    +0.000 HD
ENDBRANCH   1   8
BRANCH   4  12
ATOM     12  N   UNL     1       2.325   3.769  17.522  0.00  0.00    +0.000 N 
ATOM     13  O   UNL     1       1.430   4.601  17.330  0.00  0.00    +0.000 OA
ATOM     14  O   UNL     1       2.240   2.552  17.308  0.00  0.00    +0.000 OA
ENDBRANCH   4  12
BRANCH   6  15
ATOM     15  N   UNL     1       6.959   4.320  16.357  0.00  0.00    +0.000 N 
ATOM     16  O   UNL     1       8.097   4.143  16.815  0.00  0.00    +0.000 OA
ATOM     17  O   UNL     1       6.651   4.318  15.159  0.00  0.00    +0.000 OA
ENDBRANCH   6  15
BRANCH   3  18
ATOM     18  N   UNL     1       2.825   5.000  20.219  0.00  0.00    +0.000 N 
BRANCH  18  19
ATOM     19  C   UNL     1       2.583   3.866  21.157  0.00  0.00    +0.000 C 
BRANCH  19  20
ATOM     20  C   UNL     1       2.843   2.480  20.562  0.00  0.00    +0.000 C 
ATOM     21 CL   UNL     1       4.557   2.006  20.681  0.00  0.00    +0.000 Cl
ENDBRANCH  19  20
ENDBRANCH  18  19
BRANCH  18  22
ATOM     22  C   UNL     1       1.670   5.940  20.112  0.00  0.00    +0.000 C 
BRANCH  22  23
ATOM     23  C   UNL     1       2.043   7.419  20.045  0.00  0.00    +0.000 C 
ATOM     24 BR   UNL     1       2.246   8.048  18.212  0.00  0.00    +0.000 Br
ENDBRANCH  22  23
ENDBRANCH  18  22
ENDBRANCH   3  18
TORSDOF 8
ENDMDL
MODEL 9
REMARK VINA RESULT:      -6.5      1.299      1.458
REMARK  Name = 
REMARK  8 active torsions:
REMARK  status: ('A' for Active; 'I' for Inactive)
REMARK    1  A    between atoms: C_2  and  C_4
REMARK    2  A    between atoms: C_6  and  N_7
REMARK    3  A    between atoms: N_7  and  C_8
REMARK    4  A    between atoms: N_7  and  C_11
REMARK    5  A    between atoms: C_8  and  C_9
REMARK    6  A    between atoms: C_11  and  C_12
REMARK    7  A    between atoms: C_14  and  N_15
REMARK    8  A    between atoms: C_19  and  N_20
REMARK                            x       y       z     vdW  Elec       q    Type
REMARK                         _______ _______ _______ _____ _____    ______ ____
ROOT
ATOM      1  C   UNL     1       6.088   5.886  17.626  0.00  0.00    +0.000 A 
ATOM      2  C   UNL     1       5.145   5.822  18.689  0.00  0.00    +0.000 A 
ATOM      3  C   UNL     1       4.020   4.959  18.710  0.00  0.00    +0.000 A 
ATOM      4  C   UNL     1       3.846   4.217  17.517  0.00  0.00    +0.000 A 
ATOM      5  C   UNL     1       4.769   4.225  16.455  0.00  0.00    +0.000 A 
ATOM      6  C   UNL     1       5.895   5.047  16.537  0.00  0.00    +0.000 A 
ENDROOT
BRANCH   1   8
ATOM      7  N   UNL     1       7.399   7.911  17.077  0.00  0.00    +0.000 N 
ATOM      8  C   UNL     1       7.250   6.796  17.840  0.00  0.00    +0.000 C 
ATOM      9  O   UNL     1       8.058   6.559  18.736  0.00  0.00    +0.000 OA
ATOM     10  H   UNL     1       8.187   8.516  17.294  0.00  0.00    +0.000 HD
ATOM     11  H   UNL     1       6.736   8.268  16.395  0.00  0.00    +0.000 HD
ENDBRANCH   1   8
BRANCH   4  12
ATOM     12  N   UNL     1       2.648   3.439  17.262  0.00  0.00    +0.000 N 
ATOM     13  O   UNL     1       2.723   2.211  17.394  0.00  0.00    +0.000 OA
ATOM     14  O   UNL     1       1.622   4.077  16.995  0.00  0.00    +0.000 OA
ENDBRANCH   4  12
BRANCH   6  15
ATOM     15  N   UNL     1       6.849   4.937  15.461  0.00  0.00    +0.000 N 
ATOM     16  O   UNL     1       7.920   4.367  15.713  0.00  0.00    +0.000 OA
ATOM     17  O   UNL     1       6.548   5.475  14.388  0.00  0.00    +0.000 OA
ENDBRANCH   6  15
BRANCH   3  18
ATOM     18  N   UNL     1       3.218   4.857  19.851  0.00  0.00    +0.000 N 
BRANCH  18  19
ATOM     19  C   UNL     1       3.203   3.635  20.707  0.00  0.00    +0.000 C 
BRANCH  19  20
ATOM     20  C   UNL     1       2.210   3.683  21.869  0.00  0.00    +0.000 C 
ATOM     21 CL   UNL     1       1.133   2.264  21.896  0.00  0.00    +0.000 Cl
ENDBRANCH  19  20
ENDBRANCH  18  19
BRANCH  18  22
ATOM     22  C   UNL     1       1.990   5.694  19.989  0.00  0.00    +0.000 C 
BRANCH  22  23
ATOM     23  C   UNL     1       2.233   7.201  20.020  0.00  0.00    +0.000 C 
ATOM     24 BR   UNL     1       2.144   8.000  18.244  0.00  0.00    +0.000 Br
ENDBRANCH  22  23
ENDBRANCH  18  22
ENDBRANCH   3  18
TORSDOF 8
ENDMDL
