MODEL 1
REMARK VINA RESULT:      -7.8      0.000      0.000
REMARK  Name = 
REMARK  3 active torsions:
REMARK  status: ('A' for Active; 'I' for Inactive)
REMARK    1  A    between atoms: C_1  and  C_2
REMARK    2  A    between atoms: C_7  and  C_8
REMARK    3  A    between atoms: N_15  and  C_16
REMARK                            x       y       z     vdW  Elec       q    Type
REMARK                         _______ _______ _______ _____ _____    ______ ____
ROOT
ATOM      1  C   UNL     1       4.187   4.533  17.935  0.00  0.00    +0.000 A 
ATOM      2  C   UNL     1       3.896   3.356  17.264  0.00  0.00    +0.000 A 
ATOM      3  C   UNL     1       2.501   3.218  17.324  0.00  0.00    +0.000 A 
ATOM      4  N   UNL     1       1.923   4.236  17.957  0.00  0.00    +0.000 NA
ATOM      5  N   UNL     1       2.977   4.921  18.499  0.00  0.00    +0.000 N 
ATOM      6  C   UNL     1       2.705   5.914  19.460  0.00  0.00    +0.000 C 
ATOM      7  O   UNL     1       2.887   5.660  20.643  0.00  0.00    +0.000 OA
ATOM      8  N   UNL     1       2.162   7.034  18.852  0.00  0.00    +0.000 N 
ATOM      9  H   UNL     1       1.990   6.972  17.853  0.00  0.00    +0.000 HD
ENDROOT
BRANCH   8  10
ATOM     10  C   UNL     1       1.699   8.187  19.524  0.00  0.00    +0.000 A 
ATOM     11  C   UNL     1       1.325   8.192  20.870  0.00  0.00    +0.000 A 
ATOM     12  C   UNL     1       0.812   9.351  21.456  0.00  0.00    +0.000 A 
ATOM     13 CL   UNL     1       0.337   9.327  23.112  0.00  0.00    +0.000 Cl
ATOM     14  C   UNL     1       0.671  10.517  20.718  0.00  0.00    +0.000 A 
ATOM     15  C   UNL     1       1.069  10.525  19.386  0.00  0.00    +0.000 A 
ATOM     16 CL   UNL     1       0.895  11.962  18.456  0.00  0.00    +0.000 Cl
ATOM     17  C   UNL     1       1.593   9.373  18.787  0.00  0.00    +0.000 A 
ENDBRANCH   8  10
BRANCH   1  24
ATOM     18  C   UNL     1       5.156   6.731  16.026  0.00  0.00    +0.000 C 
ATOM     19  C   UNL     1       5.914   6.260  17.229  0.00  0.00    +0.000 A 
ATOM     20  N   UNL     1       7.102   6.889  17.449  0.00  0.00    +0.000 NA
ATOM     21  C   UNL     1       7.792   6.506  18.544  0.00  0.00    +0.000 A 
ATOM     22  C   UNL     1       7.315   5.540  19.406  0.00  0.00    +0.000 A 
ATOM     23  N   UNL     1       6.136   4.913  19.204  0.00  0.00    +0.000 NA
ATOM     24  C   UNL     1       5.443   5.263  18.098  0.00  0.00    +0.000 A 
ENDBRANCH   1  24
TORSDOF 2
ENDMDL
MODEL 2
REMARK VINA RESULT:      -7.7      0.158      1.880
REMARK  Name = 
REMARK  3 active torsions:
REMARK  status: ('A' for Active; 'I' for Inactive)
REMARK    1  A    between atoms: C_1  and  C_2
REMARK    2  A    between atoms: C_7  and  C_8
REMARK    3  A    between atoms: N_15  and  C_16
REMARK                            x       y       z     vdW  Elec       q    Type
REMARK                         _______ _______ _______ _____ _____    ______ ____
ROOT
ATOM      1  C   UNL     1       4.242   4.481  17.985  0.00  0.00    +0.000 A 
ATOM      2  C   UNL     1       3.970   3.259  17.390  0.00  0.00    +0.000 A 
ATOM      3  C   UNL     1       2.577   3.112  17.439  0.00  0.00    +0.000 A 
ATOM      4  N   UNL     1       1.980   4.165  17.994  0.00  0.00    +0.000 NA
ATOM      5  N   UNL     1       3.020   4.894  18.504  0.00  0.00    +0.000 N 
ATOM      6  C   UNL     1       2.725   5.947  19.392  0.00  0.00    +0.000 C 
ATOM      7  O   UNL     1       2.891   5.775  20.592  0.00  0.00    +0.000 OA
ATOM      8  N   UNL     1       2.183   7.018  18.702  0.00  0.00    +0.000 N 
ATOM      9  H   UNL     1       2.027   6.888  17.707  0.00  0.00    +0.000 HD
ENDROOT
BRANCH   8  10
ATOM     10  C   UNL     1       1.700   8.210  19.287  0.00  0.00    +0.000 A 
ATOM     11  C   UNL     1       1.650   9.432  18.611  0.00  0.00    +0.000 A 
ATOM     12  C   UNL     1       1.223  10.586  19.270  0.00  0.00    +0.000 A 
ATOM     13 CL   UNL     1       1.191  12.085  18.422  0.00  0.00    +0.000 Cl
ATOM     14  C   UNL     1       0.834  10.542  20.601  0.00  0.00    +0.000 A 
ATOM     15  C   UNL     1       0.854   9.323  21.270  0.00  0.00    +0.000 A 
ATOM     16 CL   UNL     1       0.381   9.254  22.922  0.00  0.00    +0.000 Cl
ATOM     17  C   UNL     1       1.272   8.155  20.620  0.00  0.00    +0.000 A 
ENDBRANCH   8  10
BRANCH   1  24
ATOM     18  C   UNL     1       5.152   6.658  16.024  0.00  0.00    +0.000 C 
ATOM     19  C   UNL     1       5.933   6.219  17.224  0.00  0.00    +0.000 A 
ATOM     20  N   UNL     1       7.115   6.869  17.415  0.00  0.00    +0.000 NA
ATOM     21  C   UNL     1       7.825   6.515  18.507  0.00  0.00    +0.000 A 
ATOM     22  C   UNL     1       7.375   5.559  19.393  0.00  0.00    +0.000 A 
ATOM     23  N   UNL     1       6.203   4.911  19.219  0.00  0.00    +0.000 NA
ATOM     24  C   UNL     1       5.489   5.231  18.117  0.00  0.00    +0.000 A 
ENDBRANCH   1  24
TORSDOF 2
ENDMDL
MODEL 3
REMARK VINA RESULT:      -7.2      1.509      1.607
REMARK  Name = 
REMARK  3 active torsions:
REMARK  status: ('A' for Active; 'I' for Inactive)
REMARK    1  A    between atoms: C_1  and  C_2
REMARK    2  A    between atoms: C_7  and  C_8
REMARK    3  A    between atoms: N_15  and  C_16
REMARK                            x       y       z     vdW  Elec       q    Type
REMARK                         _______ _______ _______ _____ _____    ______ ____
ROOT
ATOM      1  C   UNL     1       3.946   4.956  17.802  0.00  0.00    +0.000 A 
ATOM      2  C   UNL     1       3.601   3.666  17.432  0.00  0.00    +0.000 A 
ATOM      3  C   UNL     1       2.199   3.631  17.433  0.00  0.00    +0.000 A 
ATOM      4  N   UNL     1       1.668   4.810  17.749  0.00  0.00    +0.000 NA
ATOM      5  N   UNL     1       2.742   5.547  18.169  0.00  0.00    +0.000 N 
ATOM      6  C   UNL     1       2.498   6.768  18.828  0.00  0.00    +0.000 C 
ATOM      7  O   UNL     1       2.603   6.815  20.046  0.00  0.00    +0.000 OA
ATOM      8  N   UNL     1       2.070   7.724  17.922  0.00  0.00    +0.000 N 
ATOM      9  H   UNL     1       1.943   7.419  16.962  0.00  0.00    +0.000 HD
ENDROOT
BRANCH   8  10
ATOM     10  C   UNL     1       1.661   9.036  18.249  0.00  0.00    +0.000 A 
ATOM     11  C   UNL     1       0.418   9.334  18.814  0.00  0.00    +0.000 A 
ATOM     12  C   UNL     1       0.050  10.660  19.051  0.00  0.00    +0.000 A 
ATOM     13 CL   UNL     1      -1.496  11.004  19.728  0.00  0.00    +0.000 Cl
ATOM     14  C   UNL     1       0.910  11.703  18.739  0.00  0.00    +0.000 A 
ATOM     15  C   UNL     1       2.160  11.409  18.204  0.00  0.00    +0.000 A 
ATOM     16 CL   UNL     1       3.235  12.692  17.807  0.00  0.00    +0.000 Cl
ATOM     17  C   UNL     1       2.547  10.084  17.968  0.00  0.00    +0.000 A 
ENDBRANCH   8  10
BRANCH   1  24
ATOM     18  C   UNL     1       4.967   6.901  15.660  0.00  0.00    +0.000 C 
ATOM     19  C   UNL     1       5.738   6.507  16.882  0.00  0.00    +0.000 A 
ATOM     20  N   UNL     1       6.964   7.088  17.007  0.00  0.00    +0.000 NA
ATOM     21  C   UNL     1       7.667   6.775  18.115  0.00  0.00    +0.000 A 
ATOM     22  C   UNL     1       7.169   5.927  19.081  0.00  0.00    +0.000 A 
ATOM     23  N   UNL     1       5.952   5.349  18.974  0.00  0.00    +0.000 NA
ATOM     24  C   UNL     1       5.243   5.627  17.858  0.00  0.00    +0.000 A 
ENDBRANCH   1  24
TORSDOF 2
ENDMDL
MODEL 4
REMARK VINA RESULT:      -7.2      1.857      4.022
REMARK  Name = 
REMARK  3 active torsions:
REMARK  status: ('A' for Active; 'I' for Inactive)
REMARK    1  A    between atoms: C_1  and  C_2
REMARK    2  A    between atoms: C_7  and  C_8
REMARK    3  A    between atoms: N_15  and  C_16
REMARK                            x       y       z     vdW  Elec       q    Type
REMARK                         _______ _______ _______ _____ _____    ______ ____
ROOT
ATOM      1  C   UNL     1       3.892   4.816  18.631  0.00  0.00    +0.000 A 
ATOM      2  C   UNL     1       5.102   4.562  18.006  0.00  0.00    +0.000 A 
ATOM      3  C   UNL     1       5.512   5.785  17.456  0.00  0.00    +0.000 A 
ATOM      4  N   UNL     1       4.655   6.768  17.723  0.00  0.00    +0.000 NA
ATOM      5  N   UNL     1       3.576   6.119  18.261  0.00  0.00    +0.000 N 
ATOM      6  C   UNL     1       2.374   6.837  18.416  0.00  0.00    +0.000 C 
ATOM      7  O   UNL     1       1.469   6.657  17.611  0.00  0.00    +0.000 OA
ATOM      8  N   UNL     1       2.482   7.734  19.465  0.00  0.00    +0.000 N 
ATOM      9  H   UNL     1       3.386   7.791  19.924  0.00  0.00    +0.000 HD
ENDROOT
BRANCH   8  10
ATOM     10  C   UNL     1       1.495   8.668  19.849  0.00  0.00    +0.000 A 
ATOM     11  C   UNL     1       0.944   9.606  18.972  0.00  0.00    +0.000 A 
ATOM     12  C   UNL     1       0.019  10.545  19.432  0.00  0.00    +0.000 A 
ATOM     13 CL   UNL     1      -0.630  11.706  18.337  0.00  0.00    +0.000 Cl
ATOM     14  C   UNL     1      -0.375  10.561  20.762  0.00  0.00    +0.000 A 
ATOM     15  C   UNL     1       0.148   9.610  21.632  0.00  0.00    +0.000 A 
ATOM     16 CL   UNL     1      -0.327   9.621  23.286  0.00  0.00    +0.000 Cl
ATOM     17  C   UNL     1       1.070   8.657  21.183  0.00  0.00    +0.000 A 
ENDBRANCH   8  10
BRANCH   1  24
ATOM     18  C   UNL     1       2.457   2.290  17.643  0.00  0.00    +0.000 C 
ATOM     19  C   UNL     1       2.369   2.822  19.040  0.00  0.00    +0.000 A 
ATOM     20  N   UNL     1       1.594   2.093  19.890  0.00  0.00    +0.000 NA
ATOM     21  C   UNL     1       1.523   2.532  21.165  0.00  0.00    +0.000 A 
ATOM     22  C   UNL     1       2.208   3.650  21.591  0.00  0.00    +0.000 A 
ATOM     23  N   UNL     1       2.985   4.379  20.761  0.00  0.00    +0.000 NA
ATOM     24  C   UNL     1       3.048   3.972  19.474  0.00  0.00    +0.000 A 
ENDBRANCH   1  24
TORSDOF 2
ENDMDL
MODEL 5
REMARK VINA RESULT:      -7.0      1.853      3.550
REMARK  Name = 
REMARK  3 active torsions:
REMARK  status: ('A' for Active; 'I' for Inactive)
REMARK    1  A    between atoms: C_1  and  C_2
REMARK    2  A    between atoms: C_7  and  C_8
REMARK    3  A    between atoms: N_15  and  C_16
REMARK                            x       y       z     vdW  Elec       q    Type
REMARK                         _______ _______ _______ _____ _____    ______ ____
ROOT
ATOM      1  C   UNL     1       3.798   4.898  18.449  0.00  0.00    +0.000 A 
ATOM      2  C   UNL     1       4.964   4.655  17.741  0.00  0.00    +0.000 A 
ATOM      3  C   UNL     1       5.345   5.891  17.197  0.00  0.00    +0.000 A 
ATOM      4  N   UNL     1       4.512   6.870  17.545  0.00  0.00    +0.000 NA
ATOM      5  N   UNL     1       3.467   6.212  18.135  0.00  0.00    +0.000 N 
ATOM      6  C   UNL     1       2.282   6.931  18.386  0.00  0.00    +0.000 C 
ATOM      7  O   UNL     1       1.326   6.777  17.638  0.00  0.00    +0.000 OA
ATOM      8  N   UNL     1       2.464   7.800  19.449  0.00  0.00    +0.000 N 
ATOM      9  H   UNL     1       3.396   7.841  19.850  0.00  0.00    +0.000 HD
ENDROOT
BRANCH   8  10
ATOM     10  C   UNL     1       1.510   8.728  19.920  0.00  0.00    +0.000 A 
ATOM     11  C   UNL     1       1.077   8.775  21.248  0.00  0.00    +0.000 A 
ATOM     12  C   UNL     1       0.081   9.675  21.635  0.00  0.00    +0.000 A 
ATOM     13 CL   UNL     1      -0.453   9.699  23.272  0.00  0.00    +0.000 Cl
ATOM     14  C   UNL     1      -0.490  10.541  20.713  0.00  0.00    +0.000 A 
ATOM     15  C   UNL     1      -0.041  10.518  19.397  0.00  0.00    +0.000 A 
ATOM     16 CL   UNL     1      -0.744  11.582  18.242  0.00  0.00    +0.000 Cl
ATOM     17  C   UNL     1       0.962   9.627  18.997  0.00  0.00    +0.000 A 
ENDBRANCH   8  10
BRANCH   1  24
ATOM     18  C   UNL     1       2.572   2.225  17.574  0.00  0.00    +0.000 C 
ATOM     19  C   UNL     1       2.421   2.819  18.941  0.00  0.00    +0.000 A 
ATOM     20  N   UNL     1       1.689   2.076  19.818  0.00  0.00    +0.000 NA
ATOM     21  C   UNL     1       1.564   2.572  21.067  0.00  0.00    +0.000 A 
ATOM     22  C   UNL     1       2.157   3.758  21.444  0.00  0.00    +0.000 A 
ATOM     23  N   UNL     1       2.891   4.502  20.588  0.00  0.00    +0.000 NA
ATOM     24  C   UNL     1       3.005   4.037  19.324  0.00  0.00    +0.000 A 
ENDBRANCH   1  24
TORSDOF 2
ENDMDL
MODEL 6
REMARK VINA RESULT:      -6.8      4.592      7.362
REMARK  Name = 
REMARK  3 active torsions:
REMARK  status: ('A' for Active; 'I' for Inactive)
REMARK    1  A    between atoms: C_1  and  C_2
REMARK    2  A    between atoms: C_7  and  C_8
REMARK    3  A    between atoms: N_15  and  C_16
REMARK                            x       y       z     vdW  Elec       q    Type
REMARK                         _______ _______ _______ _____ _____    ______ ____
ROOT
ATOM      1  C   UNL     1       3.657   5.156  18.752  0.00  0.00    +0.000 A 
ATOM      2  C   UNL     1       2.896   6.112  19.404  0.00  0.00    +0.000 A 
ATOM      3  C   UNL     1       3.041   7.290  18.657  0.00  0.00    +0.000 A 
ATOM      4  N   UNL     1       3.811   7.113  17.585  0.00  0.00    +0.000 NA
ATOM      5  N   UNL     1       4.341   5.865  17.771  0.00  0.00    +0.000 N 
ATOM      6  C   UNL     1       5.412   5.466  16.947  0.00  0.00    +0.000 C 
ATOM      7  O   UNL     1       6.549   5.488  17.401  0.00  0.00    +0.000 OA
ATOM      8  N   UNL     1       4.957   5.191  15.669  0.00  0.00    +0.000 N 
ATOM      9  H   UNL     1       3.972   5.358  15.489  0.00  0.00    +0.000 HD
ENDROOT
BRANCH   8  10
ATOM     10  C   UNL     1       5.770   4.840  14.568  0.00  0.00    +0.000 A 
ATOM     11  C   UNL     1       6.966   5.493  14.259  0.00  0.00    +0.000 A 
ATOM     12  C   UNL     1       7.689   5.140  13.118  0.00  0.00    +0.000 A 
ATOM     13 CL   UNL     1       9.149   5.975  12.744  0.00  0.00    +0.000 Cl
ATOM     14  C   UNL     1       7.240   4.133  12.276  0.00  0.00    +0.000 A 
ATOM     15  C   UNL     1       6.065   3.460  12.596  0.00  0.00    +0.000 A 
ATOM     16 CL   UNL     1       5.493   2.212  11.559  0.00  0.00    +0.000 Cl
ATOM     17  C   UNL     1       5.334   3.797  13.741  0.00  0.00    +0.000 A 
ENDBRANCH   8  10
BRANCH   1  24
ATOM     18  C   UNL     1       2.301   2.999  17.042  0.00  0.00    +0.000 C 
ATOM     19  C   UNL     1       3.178   2.716  18.223  0.00  0.00    +0.000 A 
ATOM     20  N   UNL     1       3.360   1.396  18.507  0.00  0.00    +0.000 NA
ATOM     21  C   UNL     1       4.171   1.112  19.547  0.00  0.00    +0.000 A 
ATOM     22  C   UNL     1       4.798   2.100  20.276  0.00  0.00    +0.000 A 
ATOM     23  N   UNL     1       4.633   3.413  20.002  0.00  0.00    +0.000 NA
ATOM     24  C   UNL     1       3.802   3.720  18.981  0.00  0.00    +0.000 A 
ENDBRANCH   1  24
TORSDOF 2
ENDMDL
MODEL 7
REMARK VINA RESULT:      -6.7      4.085      7.601
REMARK  Name = 
REMARK  3 active torsions:
REMARK  status: ('A' for Active; 'I' for Inactive)
REMARK    1  A    between atoms: C_1  and  C_2
REMARK    2  A    between atoms: C_7  and  C_8
REMARK    3  A    between atoms: N_15  and  C_16
REMARK                            x       y       z     vdW  Elec       q    Type
REMARK                         _______ _______ _______ _____ _____    ______ ____
ROOT
ATOM      1  C   UNL     1      -0.063  12.176  21.496  0.00  0.00    +0.000 A 
ATOM      2  C   UNL     1      -0.874  12.684  22.497  0.00  0.00    +0.000 A 
ATOM      3  C   UNL     1      -1.447  11.570  23.128  0.00  0.00    +0.000 A 
ATOM      4  N   UNL     1      -1.022  10.423  22.602  0.00  0.00    +0.000 NA
ATOM      5  N   UNL     1      -0.342  10.813  21.480  0.00  0.00    +0.000 N 
ATOM      6  C   UNL     1       0.017   9.828  20.540  0.00  0.00    +0.000 C 
ATOM      7  O   UNL     1      -0.643   9.719  19.515  0.00  0.00    +0.000 OA
ATOM      8  N   UNL     1       1.061   9.060  21.026  0.00  0.00    +0.000 N 
ATOM      9  H   UNL     1       1.377   9.263  21.969  0.00  0.00    +0.000 HD
ENDROOT
BRANCH   8  10
ATOM     10  C   UNL     1       1.619   7.935  20.380  0.00  0.00    +0.000 A 
ATOM     11  C   UNL     1       2.397   8.022  19.221  0.00  0.00    +0.000 A 
ATOM     12  C   UNL     1       2.863   6.865  18.595  0.00  0.00    +0.000 A 
ATOM     13 CL   UNL     1       3.800   6.997  17.155  0.00  0.00    +0.000 Cl
ATOM     14  C   UNL     1       2.573   5.611  19.112  0.00  0.00    +0.000 A 
ATOM     15  C   UNL     1       1.825   5.520  20.281  0.00  0.00    +0.000 A 
ATOM     16 CL   UNL     1       1.452   3.971  20.931  0.00  0.00    +0.000 Cl
ATOM     17  C   UNL     1       1.357   6.672  20.925  0.00  0.00    +0.000 A 
ENDBRANCH   8  10
BRANCH   1  24
ATOM     18  C   UNL     1      -0.736  12.988  18.614  0.00  0.00    +0.000 C 
ATOM     19  C   UNL     1       0.596  13.199  19.265  0.00  0.00    +0.000 A 
ATOM     20  N   UNL     1       1.533  13.805  18.483  0.00  0.00    +0.000 NA
ATOM     21  C   UNL     1       2.734  14.037  19.054  0.00  0.00    +0.000 A 
ATOM     22  C   UNL     1       2.998  13.695  20.363  0.00  0.00    +0.000 A 
ATOM     23  N   UNL     1       2.077  13.100  21.152  0.00  0.00    +0.000 NA
ATOM     24  C   UNL     1       0.877  12.834  20.591  0.00  0.00    +0.000 A 
ENDBRANCH   1  24
TORSDOF 2
ENDMDL
MODEL 8
REMARK VINA RESULT:      -6.7      4.119      7.399
REMARK  Name = 
REMARK  3 active torsions:
REMARK  status: ('A' for Active; 'I' for Inactive)
REMARK    1  A    between atoms: C_1  and  C_2
REMARK    2  A    between atoms: C_7  and  C_8
REMARK    3  A    between atoms: N_15  and  C_16
REMARK                            x       y       z     vdW  Elec       q    Type
REMARK                         _______ _______ _______ _____ _____    ______ ____
ROOT
ATOM      1  C   UNL     1      -0.089  12.200  21.522  0.00  0.00    +0.000 A 
ATOM      2  C   UNL     1      -0.850  12.760  22.535  0.00  0.00    +0.000 A 
ATOM      3  C   UNL     1      -1.409  11.680  23.234  0.00  0.00    +0.000 A 
ATOM      4  N   UNL     1      -1.023  10.506  22.737  0.00  0.00    +0.000 NA
ATOM      5  N   UNL     1      -0.386  10.842  21.573  0.00  0.00    +0.000 N 
ATOM      6  C   UNL     1      -0.081   9.815  20.658  0.00  0.00    +0.000 C 
ATOM      7  O   UNL     1      -0.785   9.676  19.667  0.00  0.00    +0.000 OA
ATOM      8  N   UNL     1       0.973   9.051  21.130  0.00  0.00    +0.000 N 
ATOM      9  H   UNL     1       1.332   9.287  22.051  0.00  0.00    +0.000 HD
ENDROOT
BRANCH   8  10
ATOM     10  C   UNL     1       1.489   7.894  20.507  0.00  0.00    +0.000 A 
ATOM     11  C   UNL     1       1.328   6.606  21.026  0.00  0.00    +0.000 A 
ATOM     12  C   UNL     1       1.920   5.511  20.395  0.00  0.00    +0.000 A 
ATOM     13 CL   UNL     1       1.726   3.936  21.066  0.00  0.00    +0.000 Cl
ATOM     14  C   UNL     1       2.670   5.677  19.240  0.00  0.00    +0.000 A 
ATOM     15  C   UNL     1       2.809   6.952  18.702  0.00  0.00    +0.000 A 
ATOM     16 CL   UNL     1       3.741   7.174  17.274  0.00  0.00    +0.000 Cl
ATOM     17  C   UNL     1       2.214   8.059  19.320  0.00  0.00    +0.000 A 
ENDBRANCH   8  10
BRANCH   1  24
ATOM     18  C   UNL     1      -0.875  12.910  18.642  0.00  0.00    +0.000 C 
ATOM     19  C   UNL     1       0.488  13.126  19.226  0.00  0.00    +0.000 A 
ATOM     20  N   UNL     1       1.398  13.686  18.382  0.00  0.00    +0.000 NA
ATOM     21  C   UNL     1       2.625  13.922  18.891  0.00  0.00    +0.000 A 
ATOM     22  C   UNL     1       2.941  13.627  20.201  0.00  0.00    +0.000 A 
ATOM     23  N   UNL     1       2.047  13.077  21.051  0.00  0.00    +0.000 NA
ATOM     24  C   UNL     1       0.820  12.808  20.552  0.00  0.00    +0.000 A 
ENDBRANCH   1  24
TORSDOF 2
ENDMDL
MODEL 9
REMARK VINA RESULT:      -6.6      6.477      8.328
REMARK  Name = 
REMARK  3 active torsions:
REMARK  status: ('A' for Active; 'I' for Inactive)
REMARK    1  A    between atoms: C_1  and  C_2
REMARK    2  A    between atoms: C_7  and  C_8
REMARK    3  A    between atoms: N_15  and  C_16
REMARK                            x       y       z     vdW  Elec       q    Type
REMARK                         _______ _______ _______ _____ _____    ______ ____
ROOT
ATOM      1  C   UNL     1       1.157  12.243  20.616  0.00  0.00    +0.000 A 
ATOM      2  C   UNL     1       2.210  13.140  20.705  0.00  0.00    +0.000 A 
ATOM      3  C   UNL     1       2.245  13.812  19.474  0.00  0.00    +0.000 A 
ATOM      4  N   UNL     1       1.275  13.409  18.655  0.00  0.00    +0.000 NA
ATOM      5  N   UNL     1       0.752  12.313  19.287  0.00  0.00    +0.000 N 
ATOM      6  C   UNL     1      -0.125  11.481  18.564  0.00  0.00    +0.000 C 
ATOM      7  O   UNL     1       0.295  10.422  18.119  0.00  0.00    +0.000 OA
ATOM      8  N   UNL     1      -1.354  12.100  18.408  0.00  0.00    +0.000 N 
ATOM      9  H   UNL     1      -1.437  13.046  18.769  0.00  0.00    +0.000 HD
ENDROOT
BRANCH   8  10
ATOM     10  C   UNL     1      -2.442  11.586  17.669  0.00  0.00    +0.000 A 
ATOM     11  C   UNL     1      -2.323  11.110  16.361  0.00  0.00    +0.000 A 
ATOM     12  C   UNL     1      -3.452  10.676  15.662  0.00  0.00    +0.000 A 
ATOM     13 CL   UNL     1      -3.285  10.114  14.042  0.00  0.00    +0.000 Cl
ATOM     14  C   UNL     1      -4.707  10.703  16.253  0.00  0.00    +0.000 A 
ATOM     15  C   UNL     1      -4.825  11.148  17.565  0.00  0.00    +0.000 A 
ATOM     16 CL   UNL     1      -6.375  11.193  18.310  0.00  0.00    +0.000 Cl
ATOM     17  C   UNL     1      -3.701  11.579  18.281  0.00  0.00    +0.000 A 
ENDBRANCH   8  10
BRANCH   1  24
ATOM     18  C   UNL     1      -1.358  12.940  22.230  0.00  0.00    +0.000 C 
ATOM     19  C   UNL     1      -0.583  11.666  22.376  0.00  0.00    +0.000 A 
ATOM     20  N   UNL     1      -1.078  10.790  23.294  0.00  0.00    +0.000 NA
ATOM     21  C   UNL     1      -0.418   9.619  23.424  0.00  0.00    +0.000 A 
ATOM     22  C   UNL     1       0.689   9.316  22.659  0.00  0.00    +0.000 A 
ATOM     23  N   UNL     1       1.186  10.173  21.740  0.00  0.00    +0.000 NA
ATOM     24  C   UNL     1       0.556  11.362  21.614  0.00  0.00    +0.000 A 
ENDBRANCH   1  24
TORSDOF 2
ENDMDL
