MODEL 1
REMARK VINA RESULT:      -8.6      0.000      0.000
REMARK  Name = 
REMARK  9 active torsions:
REMARK  status: ('A' for Active; 'I' for Inactive)
REMARK    1  A    between atoms: C_1  and  C_2
REMARK    2  A    between atoms: C_2  and  C_4
REMARK    3  A    between atoms: C_8  and  C_9
REMARK    4  A    between atoms: C_12  and  N_13
REMARK    5  A    between atoms: C_14  and  C_16
REMARK    6  A    between atoms: C_18  and  O_19
REMARK    7  A    between atoms: C_20  and  O_21
REMARK    8  A    between atoms: C_22  and  O_23
REMARK    9  A    between atoms: C_25  and  N_26
REMARK                            x       y       z     vdW  Elec       q    Type
REMARK                         _______ _______ _______ _____ _____    ______ ____
ROOT
ATOM      1  C   UNL     1      -0.280  10.791  21.759  0.00  0.00    +0.000 A 
ATOM      2  C   UNL     1       0.454   9.828  22.463  0.00  0.00    +0.000 A 
ATOM      3  C   UNL     1       1.206   8.854  21.801  0.00  0.00    +0.000 A 
ATOM      4  C   UNL     1       1.270   8.797  20.403  0.00  0.00    +0.000 A 
ATOM      5  C   UNL     1       0.498   9.731  19.683  0.00  0.00    +0.000 A 
ATOM      6  C   UNL     1      -0.271  10.700  20.358  0.00  0.00    +0.000 A 
ENDROOT
BRANCH   1  11
ATOM      7  C   UNL     1      -2.941  12.837  23.527  0.00  0.00    +0.000 A 
ATOM      8  C   UNL     1      -2.390  14.120  23.442  0.00  0.00    +0.000 A 
ATOM      9  C   UNL     1      -1.123  14.306  22.897  0.00  0.00    +0.000 A 
ATOM     10  C   UNL     1      -0.417  13.213  22.393  0.00  0.00    +0.000 A 
ATOM     11  C   UNL     1      -0.953  11.913  22.440  0.00  0.00    +0.000 A 
ATOM     12  C   UNL     1      -2.205  11.742  23.058  0.00  0.00    +0.000 A 
BRANCH   7  14
ATOM     13  C   UNL     1      -5.383  13.674  23.666  0.00  0.00    +0.000 C 
ATOM     14  C   UNL     1      -4.323  12.681  24.067  0.00  0.00    +0.000 C 
ATOM     15  O   UNL     1      -4.577  11.755  24.836  0.00  0.00    +0.000 OA
ENDBRANCH   7  14
ENDBRANCH   1  11
BRANCH   4  16
ATOM     16  N   UNL     1       2.106   7.850  19.757  0.00  0.00    +0.000 N 
ATOM     17  C   UNL     1       2.138   6.486  19.994  0.00  0.00    +0.000 C 
ATOM     18  O   UNL     1       1.455   5.870  20.804  0.00  0.00    +0.000 OA
ATOM     19  H   UNL     1       2.873   8.242  19.211  0.00  0.00    +0.000 HD
BRANCH  17  20
ATOM     20  C   UNL     1       3.194   5.735  19.268  0.00  0.00    +0.000 A 
ATOM     21  C   UNL     1       3.629   6.266  18.040  0.00  0.00    +0.000 A 
ATOM     22  C   UNL     1       4.518   5.541  17.260  0.00  0.00    +0.000 A 
ATOM     23  C   UNL     1       4.990   4.314  17.706  0.00  0.00    +0.000 A 
ATOM     24  C   UNL     1       4.595   3.813  18.940  0.00  0.00    +0.000 A 
ATOM     25  C   UNL     1       3.708   4.519  19.740  0.00  0.00    +0.000 A 
BRANCH  22  26
ATOM     26  O   UNL     1       4.927   5.982  16.034  0.00  0.00    +0.000 OA
ATOM     27  H   UNL     1       5.708   5.464  15.767  0.00  0.00    +0.000 HD
ENDBRANCH  22  26
BRANCH  23  28
ATOM     28  O   UNL     1       5.834   3.572  16.926  0.00  0.00    +0.000 OA
ATOM     29  H   UNL     1       6.588   4.173  16.748  0.00  0.00    +0.000 HD
ENDBRANCH  23  28
BRANCH  24  30
ATOM     30  O   UNL     1       5.049   2.599  19.366  0.00  0.00    +0.000 OA
ATOM     31  H   UNL     1       4.834   2.575  20.321  0.00  0.00    +0.000 HD
ENDBRANCH  24  30
ENDBRANCH  17  20
ENDBRANCH   4  16
BRANCH   5  32
ATOM     32  N   UNL     1       0.505   9.792  18.210  0.00  0.00    +0.000 N 
ATOM     33  O   UNL     1      -0.580   9.943  17.627  0.00  0.00    +0.000 OA
ATOM     34  O   UNL     1       1.593   9.669  17.629  0.00  0.00    +0.000 OA
ENDBRANCH   5  32
TORSDOF 8
ENDMDL
MODEL 2
REMARK VINA RESULT:      -8.5      2.000      9.797
REMARK  Name = 
REMARK  9 active torsions:
REMARK  status: ('A' for Active; 'I' for Inactive)
REMARK    1  A    between atoms: C_1  and  C_2
REMARK    2  A    between atoms: C_2  and  C_4
REMARK    3  A    between atoms: C_8  and  C_9
REMARK    4  A    between atoms: C_12  and  N_13
REMARK    5  A    between atoms: C_14  and  C_16
REMARK    6  A    between atoms: C_18  and  O_19
REMARK    7  A    between atoms: C_20  and  O_21
REMARK    8  A    between atoms: C_22  and  O_23
REMARK    9  A    between atoms: C_25  and  N_26
REMARK                            x       y       z     vdW  Elec       q    Type
REMARK                         _______ _______ _______ _____ _____    ______ ____
ROOT
ATOM      1  C   UNL     1       1.945   7.889  19.106  0.00  0.00    +0.000 A 
ATOM      2  C   UNL     1       1.852   7.862  20.504  0.00  0.00    +0.000 A 
ATOM      3  C   UNL     1       1.074   8.789  21.203  0.00  0.00    +0.000 A 
ATOM      4  C   UNL     1       0.343   9.784  20.542  0.00  0.00    +0.000 A 
ATOM      5  C   UNL     1       0.466   9.852  19.140  0.00  0.00    +0.000 A 
ATOM      6  C   UNL     1       1.265   8.924  18.443  0.00  0.00    +0.000 A 
ENDROOT
BRANCH   1  11
ATOM      7  C   UNL     1       2.988   4.455  17.878  0.00  0.00    +0.000 A 
ATOM      8  C   UNL     1       4.154   4.767  17.171  0.00  0.00    +0.000 A 
ATOM      9  C   UNL     1       4.548   6.094  17.017  0.00  0.00    +0.000 A 
ATOM     10  C   UNL     1       3.799   7.112  17.608  0.00  0.00    +0.000 A 
ATOM     11  C   UNL     1       2.636   6.830  18.347  0.00  0.00    +0.000 A 
ATOM     12  C   UNL     1       2.221   5.488  18.430  0.00  0.00    +0.000 A 
BRANCH   7  14
ATOM     13  C   UNL     1       1.276   2.678  18.648  0.00  0.00    +0.000 C 
ATOM     14  C   UNL     1       2.625   3.021  18.070  0.00  0.00    +0.000 C 
ATOM     15  O   UNL     1       3.428   2.141  17.765  0.00  0.00    +0.000 OA
ENDBRANCH   7  14
ENDBRANCH   1  11
BRANCH   4  16
ATOM     16  N   UNL     1      -0.503  10.661  21.269  0.00  0.00    +0.000 N 
ATOM     17  C   UNL     1      -0.162  11.907  21.767  0.00  0.00    +0.000 C 
ATOM     18  O   UNL     1       0.928  12.459  21.666  0.00  0.00    +0.000 OA
ATOM     19  H   UNL     1      -1.371  10.249  21.611  0.00  0.00    +0.000 HD
BRANCH  17  20
ATOM     20  C   UNL     1      -1.198  12.569  22.600  0.00  0.00    +0.000 A 
ATOM     21  C   UNL     1      -0.920  13.873  23.051  0.00  0.00    +0.000 A 
ATOM     22  C   UNL     1      -1.793  14.488  23.936  0.00  0.00    +0.000 A 
ATOM     23  C   UNL     1      -2.943  13.828  24.349  0.00  0.00    +0.000 A 
ATOM     24  C   UNL     1      -3.238  12.559  23.866  0.00  0.00    +0.000 A 
ATOM     25  C   UNL     1      -2.382  11.922  22.978  0.00  0.00    +0.000 A 
BRANCH  22  26
ATOM     26  O   UNL     1      -1.542  15.728  24.452  0.00  0.00    +0.000 OA
ATOM     27  H   UNL     1      -1.996  16.388  23.896  0.00  0.00    +0.000 HD
ENDBRANCH  22  26
BRANCH  23  28
ATOM     28  O   UNL     1      -3.788  14.408  25.254  0.00  0.00    +0.000 OA
ATOM     29  H   UNL     1      -3.192  14.774  25.940  0.00  0.00    +0.000 HD
ENDBRANCH  23  28
BRANCH  24  30
ATOM     30  O   UNL     1      -4.359  11.908  24.287  0.00  0.00    +0.000 OA
ATOM     31  H   UNL     1      -4.919  11.833  23.487  0.00  0.00    +0.000 HD
ENDBRANCH  24  30
ENDBRANCH  17  20
ENDBRANCH   4  16
BRANCH   5  32
ATOM     32  N   UNL     1      -0.276  10.835  18.330  0.00  0.00    +0.000 N 
ATOM     33  O   UNL     1       0.030  12.033  18.442  0.00  0.00    +0.000 OA
ATOM     34  O   UNL     1      -1.179  10.416  17.593  0.00  0.00    +0.000 OA
ENDBRANCH   5  32
TORSDOF 8
ENDMDL
MODEL 3
REMARK VINA RESULT:      -8.4      2.208      9.889
REMARK  Name = 
REMARK  9 active torsions:
REMARK  status: ('A' for Active; 'I' for Inactive)
REMARK    1  A    between atoms: C_1  and  C_2
REMARK    2  A    between atoms: C_2  and  C_4
REMARK    3  A    between atoms: C_8  and  C_9
REMARK    4  A    between atoms: C_12  and  N_13
REMARK    5  A    between atoms: C_14  and  C_16
REMARK    6  A    between atoms: C_18  and  O_19
REMARK    7  A    between atoms: C_20  and  O_21
REMARK    8  A    between atoms: C_22  and  O_23
REMARK    9  A    between atoms: C_25  and  N_26
REMARK                            x       y       z     vdW  Elec       q    Type
REMARK                         _______ _______ _______ _____ _____    ______ ____
ROOT
ATOM      1  C   UNL     1       1.904   8.038  19.101  0.00  0.00    +0.000 A 
ATOM      2  C   UNL     1       1.829   7.978  20.499  0.00  0.00    +0.000 A 
ATOM      3  C   UNL     1       1.072   8.896  21.231  0.00  0.00    +0.000 A 
ATOM      4  C   UNL     1       0.344   9.915  20.605  0.00  0.00    +0.000 A 
ATOM      5  C   UNL     1       0.449  10.016  19.203  0.00  0.00    +0.000 A 
ATOM      6  C   UNL     1       1.228   9.097  18.473  0.00  0.00    +0.000 A 
ENDROOT
BRANCH   1  11
ATOM      7  C   UNL     1       2.858   4.626  17.744  0.00  0.00    +0.000 A 
ATOM      8  C   UNL     1       4.042   4.932  17.064  0.00  0.00    +0.000 A 
ATOM      9  C   UNL     1       4.478   6.250  16.971  0.00  0.00    +0.000 A 
ATOM     10  C   UNL     1       3.753   7.267  17.594  0.00  0.00    +0.000 A 
ATOM     11  C   UNL     1       2.573   6.990  18.307  0.00  0.00    +0.000 A 
ATOM     12  C   UNL     1       2.116   5.660  18.329  0.00  0.00    +0.000 A 
BRANCH   7  14
ATOM     13  C   UNL     1       3.514   2.133  17.926  0.00  0.00    +0.000 C 
ATOM     14  C   UNL     1       2.448   3.198  17.871  0.00  0.00    +0.000 C 
ATOM     15  O   UNL     1       1.255   2.906  17.921  0.00  0.00    +0.000 OA
ENDBRANCH   7  14
ENDBRANCH   1  11
BRANCH   4  16
ATOM     16  N   UNL     1      -0.482  10.783  21.365  0.00  0.00    +0.000 N 
ATOM     17  C   UNL     1      -0.141  12.041  21.834  0.00  0.00    +0.000 C 
ATOM     18  O   UNL     1       0.932  12.612  21.676  0.00  0.00    +0.000 OA
ATOM     19  H   UNL     1      -1.325  10.359  21.752  0.00  0.00    +0.000 HD
BRANCH  17  20
ATOM     20  C   UNL     1      -1.147  12.692  22.711  0.00  0.00    +0.000 A 
ATOM     21  C   UNL     1      -2.248  11.912  23.112  0.00  0.00    +0.000 A 
ATOM     22  C   UNL     1      -3.280  12.505  23.824  0.00  0.00    +0.000 A 
ATOM     23  C   UNL     1      -3.209  13.852  24.157  0.00  0.00    +0.000 A 
ATOM     24  C   UNL     1      -2.099  14.608  23.800  0.00  0.00    +0.000 A 
ATOM     25  C   UNL     1      -1.053  14.038  23.090  0.00  0.00    +0.000 A 
BRANCH  22  26
ATOM     26  O   UNL     1      -4.398  11.810  24.186  0.00  0.00    +0.000 OA
ATOM     27  H   UNL     1      -4.183  11.271  24.969  0.00  0.00    +0.000 HD
ENDBRANCH  22  26
BRANCH  23  28
ATOM     28  O   UNL     1      -4.240  14.456  24.822  0.00  0.00    +0.000 OA
ATOM     29  H   UNL     1      -4.479  13.817  25.526  0.00  0.00    +0.000 HD
ENDBRANCH  23  28
BRANCH  24  30
ATOM     30  O   UNL     1      -2.042  15.933  24.115  0.00  0.00    +0.000 OA
ATOM     31  H   UNL     1      -1.103  16.179  23.988  0.00  0.00    +0.000 HD
ENDBRANCH  24  30
ENDBRANCH  17  20
ENDBRANCH   4  16
BRANCH   5  32
ATOM     32  N   UNL     1      -0.292  11.027  18.427  0.00  0.00    +0.000 N 
ATOM     33  O   UNL     1       0.062  12.213  18.526  0.00  0.00    +0.000 OA
ATOM     34  O   UNL     1      -1.243  10.643  17.732  0.00  0.00    +0.000 OA
ENDBRANCH   5  32
TORSDOF 8
ENDMDL
MODEL 4
REMARK VINA RESULT:      -8.4      2.110     10.006
REMARK  Name = 
REMARK  9 active torsions:
REMARK  status: ('A' for Active; 'I' for Inactive)
REMARK    1  A    between atoms: C_1  and  C_2
REMARK    2  A    between atoms: C_2  and  C_4
REMARK    3  A    between atoms: C_8  and  C_9
REMARK    4  A    between atoms: C_12  and  N_13
REMARK    5  A    between atoms: C_14  and  C_16
REMARK    6  A    between atoms: C_18  and  O_19
REMARK    7  A    between atoms: C_20  and  O_21
REMARK    8  A    between atoms: C_22  and  O_23
REMARK    9  A    between atoms: C_25  and  N_26
REMARK                            x       y       z     vdW  Elec       q    Type
REMARK                         _______ _______ _______ _____ _____    ______ ____
ROOT
ATOM      1  C   UNL     1       2.054   7.511  19.445  0.00  0.00    +0.000 A 
ATOM      2  C   UNL     1       1.616   7.354  20.766  0.00  0.00    +0.000 A 
ATOM      3  C   UNL     1       0.837   8.326  21.398  0.00  0.00    +0.000 A 
ATOM      4  C   UNL     1       0.450   9.501  20.741  0.00  0.00    +0.000 A 
ATOM      5  C   UNL     1       0.925   9.693  19.429  0.00  0.00    +0.000 A 
ATOM      6  C   UNL     1       1.723   8.715  18.804  0.00  0.00    +0.000 A 
ENDROOT
BRANCH   1  11
ATOM      7  C   UNL     1       4.399   5.724  17.057  0.00  0.00    +0.000 A 
ATOM      8  C   UNL     1       3.857   4.435  17.066  0.00  0.00    +0.000 A 
ATOM      9  C   UNL     1       2.794   4.125  17.911  0.00  0.00    +0.000 A 
ATOM     10  C   UNL     1       2.241   5.118  18.721  0.00  0.00    +0.000 A 
ATOM     11  C   UNL     1       2.746   6.430  18.716  0.00  0.00    +0.000 A 
ATOM     12  C   UNL     1       3.863   6.701  17.906  0.00  0.00    +0.000 A 
BRANCH   7  14
ATOM     13  C   UNL     1       5.716   5.133  14.912  0.00  0.00    +0.000 C 
ATOM     14  C   UNL     1       5.501   6.036  16.100  0.00  0.00    +0.000 C 
ATOM     15  O   UNL     1       6.221   7.013  16.296  0.00  0.00    +0.000 OA
ENDBRANCH   7  14
ENDBRANCH   1  11
BRANCH   4  16
ATOM     16  N   UNL     1      -0.409  10.434  21.378  0.00  0.00    +0.000 N 
ATOM     17  C   UNL     1      -0.077  11.718  21.776  0.00  0.00    +0.000 C 
ATOM     18  O   UNL     1       1.015  12.262  21.649  0.00  0.00    +0.000 OA
ATOM     19  H   UNL     1      -1.283  10.051  21.737  0.00  0.00    +0.000 HD
BRANCH  17  20
ATOM     20  C   UNL     1      -1.127  12.446  22.533  0.00  0.00    +0.000 A 
ATOM     21  C   UNL     1      -0.874  13.795  22.843  0.00  0.00    +0.000 A 
ATOM     22  C   UNL     1      -1.761  14.486  23.656  0.00  0.00    +0.000 A 
ATOM     23  C   UNL     1      -2.900  13.852  24.136  0.00  0.00    +0.000 A 
ATOM     24  C   UNL     1      -3.170  12.533  23.790  0.00  0.00    +0.000 A 
ATOM     25  C   UNL     1      -2.300  11.822  22.976  0.00  0.00    +0.000 A 
BRANCH  22  26
ATOM     26  O   UNL     1      -1.534  15.778  24.037  0.00  0.00    +0.000 OA
ATOM     27  H   UNL     1      -0.575  15.947  23.986  0.00  0.00    +0.000 HD
ENDBRANCH  22  26
BRANCH  23  28
ATOM     28  O   UNL     1      -3.758  14.510  24.972  0.00  0.00    +0.000 OA
ATOM     29  H   UNL     1      -4.644  14.171  24.723  0.00  0.00    +0.000 HD
ENDBRANCH  23  28
BRANCH  24  30
ATOM     30  O   UNL     1      -4.281  11.910  24.277  0.00  0.00    +0.000 OA
ATOM     31  H   UNL     1      -4.175  10.972  24.016  0.00  0.00    +0.000 HD
ENDBRANCH  24  30
ENDBRANCH  17  20
ENDBRANCH   4  16
BRANCH   5  32
ATOM     32  N   UNL     1       0.563  10.874  18.624  0.00  0.00    +0.000 N 
ATOM     33  O   UNL     1       1.457  11.690  18.350  0.00  0.00    +0.000 OA
ATOM     34  O   UNL     1      -0.621  11.000  18.278  0.00  0.00    +0.000 OA
ENDBRANCH   5  32
TORSDOF 8
ENDMDL
MODEL 5
REMARK VINA RESULT:      -8.3      2.192     10.089
REMARK  Name = 
REMARK  9 active torsions:
REMARK  status: ('A' for Active; 'I' for Inactive)
REMARK    1  A    between atoms: C_1  and  C_2
REMARK    2  A    between atoms: C_2  and  C_4
REMARK    3  A    between atoms: C_8  and  C_9
REMARK    4  A    between atoms: C_12  and  N_13
REMARK    5  A    between atoms: C_14  and  C_16
REMARK    6  A    between atoms: C_18  and  O_19
REMARK    7  A    between atoms: C_20  and  O_21
REMARK    8  A    between atoms: C_22  and  O_23
REMARK    9  A    between atoms: C_25  and  N_26
REMARK                            x       y       z     vdW  Elec       q    Type
REMARK                         _______ _______ _______ _____ _____    ______ ____
ROOT
ATOM      1  C   UNL     1       1.861   7.894  19.591  0.00  0.00    +0.000 A 
ATOM      2  C   UNL     1       1.437   7.741  20.917  0.00  0.00    +0.000 A 
ATOM      3  C   UNL     1       0.612   8.685  21.534  0.00  0.00    +0.000 A 
ATOM      4  C   UNL     1       0.163   9.825  20.857  0.00  0.00    +0.000 A 
ATOM      5  C   UNL     1       0.621  10.015  19.538  0.00  0.00    +0.000 A 
ATOM      6  C   UNL     1       1.466   9.067  18.927  0.00  0.00    +0.000 A 
ENDROOT
BRANCH   1  11
ATOM      7  C   UNL     1       4.363   6.180  17.311  0.00  0.00    +0.000 A 
ATOM      8  C   UNL     1       3.828   4.889  17.251  0.00  0.00    +0.000 A 
ATOM      9  C   UNL     1       2.715   4.554  18.017  0.00  0.00    +0.000 A 
ATOM     10  C   UNL     1       2.105   5.522  18.816  0.00  0.00    +0.000 A 
ATOM     11  C   UNL     1       2.603   6.836  18.879  0.00  0.00    +0.000 A 
ATOM     12  C   UNL     1       3.769   7.132  18.149  0.00  0.00    +0.000 A 
BRANCH   7  14
ATOM     13  C   UNL     1       6.893   6.643  17.051  0.00  0.00    +0.000 C 
ATOM     14  C   UNL     1       5.522   6.521  16.436  0.00  0.00    +0.000 C 
ATOM     15  O   UNL     1       5.346   6.706  15.233  0.00  0.00    +0.000 OA
ENDBRANCH   7  14
ENDBRANCH   1  11
BRANCH   4  16
ATOM     16  N   UNL     1      -0.739  10.726  21.480  0.00  0.00    +0.000 N 
ATOM     17  C   UNL     1      -0.448  12.005  21.925  0.00  0.00    +0.000 C 
ATOM     18  O   UNL     1       0.637  12.570  21.859  0.00  0.00    +0.000 OA
ATOM     19  H   UNL     1      -1.621  10.319  21.791  0.00  0.00    +0.000 HD
BRANCH  17  20
ATOM     20  C   UNL     1      -1.543  12.694  22.654  0.00  0.00    +0.000 A 
ATOM     21  C   UNL     1      -2.467  11.883  23.338  0.00  0.00    +0.000 A 
ATOM     22  C   UNL     1      -3.579  12.465  23.928  0.00  0.00    +0.000 A 
ATOM     23  C   UNL     1      -3.759  13.840  23.863  0.00  0.00    +0.000 A 
ATOM     24  C   UNL     1      -2.821  14.644  23.227  0.00  0.00    +0.000 A 
ATOM     25  C   UNL     1      -1.698  14.086  22.631  0.00  0.00    +0.000 A 
BRANCH  22  26
ATOM     26  O   UNL     1      -4.538  11.718  24.552  0.00  0.00    +0.000 OA
ATOM     27  H   UNL     1      -5.216  12.323  24.904  0.00  0.00    +0.000 HD
ENDBRANCH  22  26
BRANCH  23  28
ATOM     28  O   UNL     1      -4.873  14.419  24.405  0.00  0.00    +0.000 OA
ATOM     29  H   UNL     1      -5.619  13.910  24.022  0.00  0.00    +0.000 HD
ENDBRANCH  23  28
BRANCH  24  30
ATOM     30  O   UNL     1      -3.010  15.992  23.152  0.00  0.00    +0.000 OA
ATOM     31  H   UNL     1      -3.953  16.124  23.381  0.00  0.00    +0.000 HD
ENDBRANCH  24  30
ENDBRANCH  17  20
ENDBRANCH   4  16
BRANCH   5  32
ATOM     32  N   UNL     1       0.195  11.159  18.712  0.00  0.00    +0.000 N 
ATOM     33  O   UNL     1      -0.952  11.143  18.238  0.00  0.00    +0.000 OA
ATOM     34  O   UNL     1       1.013  12.070  18.517  0.00  0.00    +0.000 OA
ENDBRANCH   5  32
TORSDOF 8
ENDMDL
MODEL 6
REMARK VINA RESULT:      -8.2      1.931      9.925
REMARK  Name = 
REMARK  9 active torsions:
REMARK  status: ('A' for Active; 'I' for Inactive)
REMARK    1  A    between atoms: C_1  and  C_2
REMARK    2  A    between atoms: C_2  and  C_4
REMARK    3  A    between atoms: C_8  and  C_9
REMARK    4  A    between atoms: C_12  and  N_13
REMARK    5  A    between atoms: C_14  and  C_16
REMARK    6  A    between atoms: C_18  and  O_19
REMARK    7  A    between atoms: C_20  and  O_21
REMARK    8  A    between atoms: C_22  and  O_23
REMARK    9  A    between atoms: C_25  and  N_26
REMARK                            x       y       z     vdW  Elec       q    Type
REMARK                         _______ _______ _______ _____ _____    ______ ____
ROOT
ATOM      1  C   UNL     1       1.798   8.215  19.354  0.00  0.00    +0.000 A 
ATOM      2  C   UNL     1       1.569   8.127  20.733  0.00  0.00    +0.000 A 
ATOM      3  C   UNL     1       0.737   9.034  21.395  0.00  0.00    +0.000 A 
ATOM      4  C   UNL     1       0.085  10.069  20.713  0.00  0.00    +0.000 A 
ATOM      5  C   UNL     1       0.345  10.196  19.334  0.00  0.00    +0.000 A 
ATOM      6  C   UNL     1       1.198   9.288  18.677  0.00  0.00    +0.000 A 
ENDROOT
BRANCH   1  11
ATOM      7  C   UNL     1       3.276   4.854  18.397  0.00  0.00    +0.000 A 
ATOM      8  C   UNL     1       4.224   5.242  17.445  0.00  0.00    +0.000 A 
ATOM      9  C   UNL     1       4.320   6.573  17.051  0.00  0.00    +0.000 A 
ATOM     10  C   UNL     1       3.495   7.532  17.639  0.00  0.00    +0.000 A 
ATOM     11  C   UNL     1       2.548   7.180  18.618  0.00  0.00    +0.000 A 
ATOM     12  C   UNL     1       2.423   5.818  18.950  0.00  0.00    +0.000 A 
BRANCH   7  14
ATOM     13  C   UNL     1       2.068   2.568  18.429  0.00  0.00    +0.000 C 
ATOM     14  C   UNL     1       3.237   3.429  18.837  0.00  0.00    +0.000 C 
ATOM     15  O   UNL     1       4.148   2.979  19.529  0.00  0.00    +0.000 OA
ENDBRANCH   7  14
ENDBRANCH   1  11
BRANCH   4  16
ATOM     16  N   UNL     1      -0.818  10.925  21.395  0.00  0.00    +0.000 N 
ATOM     17  C   UNL     1      -0.523  12.163  21.941  0.00  0.00    +0.000 C 
ATOM     18  O   UNL     1       0.567  12.723  21.932  0.00  0.00    +0.000 OA
ATOM     19  H   UNL     1      -1.706  10.501  21.663  0.00  0.00    +0.000 HD
BRANCH  17  20
ATOM     20  C   UNL     1      -1.622  12.801  22.710  0.00  0.00    +0.000 A 
ATOM     21  C   UNL     1      -2.534  11.946  23.356  0.00  0.00    +0.000 A 
ATOM     22  C   UNL     1      -3.649  12.485  23.980  0.00  0.00    +0.000 A 
ATOM     23  C   UNL     1      -3.845  13.859  23.985  0.00  0.00    +0.000 A 
ATOM     24  C   UNL     1      -2.919  14.705  23.387  0.00  0.00    +0.000 A 
ATOM     25  C   UNL     1      -1.793  14.191  22.758  0.00  0.00    +0.000 A 
BRANCH  22  26
ATOM     26  O   UNL     1      -4.596  11.696  24.570  0.00  0.00    +0.000 OA
ATOM     27  H   UNL     1      -5.361  12.256  24.798  0.00  0.00    +0.000 HD
ENDBRANCH  22  26
BRANCH  23  28
ATOM     28  O   UNL     1      -4.962  14.397  24.561  0.00  0.00    +0.000 OA
ATOM     29  H   UNL     1      -5.686  14.172  23.939  0.00  0.00    +0.000 HD
ENDBRANCH  23  28
BRANCH  24  30
ATOM     30  O   UNL     1      -3.124  16.053  23.381  0.00  0.00    +0.000 OA
ATOM     31  H   UNL     1      -3.866  16.189  22.756  0.00  0.00    +0.000 HD
ENDBRANCH  24  30
ENDBRANCH  17  20
ENDBRANCH   4  16
BRANCH   5  32
ATOM     32  N   UNL     1      -0.303  11.226  18.502  0.00  0.00    +0.000 N 
ATOM     33  O   UNL     1      -1.253  10.881  17.781  0.00  0.00    +0.000 OA
ATOM     34  O   UNL     1       0.147  12.380  18.550  0.00  0.00    +0.000 OA
ENDBRANCH   5  32
TORSDOF 8
ENDMDL
MODEL 7
REMARK VINA RESULT:      -8.2      0.590      1.647
REMARK  Name = 
REMARK  9 active torsions:
REMARK  status: ('A' for Active; 'I' for Inactive)
REMARK    1  A    between atoms: C_1  and  C_2
REMARK    2  A    between atoms: C_2  and  C_4
REMARK    3  A    between atoms: C_8  and  C_9
REMARK    4  A    between atoms: C_12  and  N_13
REMARK    5  A    between atoms: C_14  and  C_16
REMARK    6  A    between atoms: C_18  and  O_19
REMARK    7  A    between atoms: C_20  and  O_21
REMARK    8  A    between atoms: C_22  and  O_23
REMARK    9  A    between atoms: C_25  and  N_26
REMARK                            x       y       z     vdW  Elec       q    Type
REMARK                         _______ _______ _______ _____ _____    ______ ____
ROOT
ATOM      1  C   UNL     1      -0.299  10.846  21.679  0.00  0.00    +0.000 A 
ATOM      2  C   UNL     1       0.475   9.904  22.368  0.00  0.00    +0.000 A 
ATOM      3  C   UNL     1       1.220   8.934  21.691  0.00  0.00    +0.000 A 
ATOM      4  C   UNL     1       1.236   8.861  20.293  0.00  0.00    +0.000 A 
ATOM      5  C   UNL     1       0.424   9.774  19.590  0.00  0.00    +0.000 A 
ATOM      6  C   UNL     1      -0.337  10.738  20.280  0.00  0.00    +0.000 A 
ENDROOT
BRANCH   1  11
ATOM      7  C   UNL     1      -3.002  12.971  23.282  0.00  0.00    +0.000 A 
ATOM      8  C   UNL     1      -2.348  14.204  23.381  0.00  0.00    +0.000 A 
ATOM      9  C   UNL     1      -1.010  14.321  23.015  0.00  0.00    +0.000 A 
ATOM     10  C   UNL     1      -0.331  13.213  22.506  0.00  0.00    +0.000 A 
ATOM     11  C   UNL     1      -0.967  11.966  22.369  0.00  0.00    +0.000 A 
ATOM     12  C   UNL     1      -2.298  11.856  22.811  0.00  0.00    +0.000 A 
BRANCH   7  14
ATOM     13  C   UNL     1      -4.854  12.276  24.946  0.00  0.00    +0.000 C 
ATOM     14  C   UNL     1      -4.450  12.894  23.632  0.00  0.00    +0.000 C 
ATOM     15  O   UNL     1      -5.292  13.324  22.845  0.00  0.00    +0.000 OA
ENDBRANCH   7  14
ENDBRANCH   1  11
BRANCH   4  16
ATOM     16  N   UNL     1       2.064   7.920  19.630  0.00  0.00    +0.000 N 
ATOM     17  C   UNL     1       2.157   6.566  19.907  0.00  0.00    +0.000 C 
ATOM     18  O   UNL     1       1.543   5.957  20.776  0.00  0.00    +0.000 OA
ATOM     19  H   UNL     1       2.785   8.317  19.027  0.00  0.00    +0.000 HD
BRANCH  17  20
ATOM     20  C   UNL     1       3.193   5.825  19.145  0.00  0.00    +0.000 A 
ATOM     21  C   UNL     1       3.646   4.611  19.693  0.00  0.00    +0.000 A 
ATOM     22  C   UNL     1       4.702   3.942  19.090  0.00  0.00    +0.000 A 
ATOM     23  C   UNL     1       5.285   4.460  17.941  0.00  0.00    +0.000 A 
ATOM     24  C   UNL     1       4.805   5.635  17.376  0.00  0.00    +0.000 A 
ATOM     25  C   UNL     1       3.749   6.321  17.958  0.00  0.00    +0.000 A 
BRANCH  22  26
ATOM     26  O   UNL     1       5.219   2.792  19.614  0.00  0.00    +0.000 OA
ATOM     27  H   UNL     1       4.908   2.043  19.073  0.00  0.00    +0.000 HD
ENDBRANCH  22  26
BRANCH  23  28
ATOM     28  O   UNL     1       6.353   3.831  17.363  0.00  0.00    +0.000 OA
ATOM     29  H   UNL     1       7.028   3.802  18.073  0.00  0.00    +0.000 HD
ENDBRANCH  23  28
BRANCH  24  30
ATOM     30  O   UNL     1       5.392   6.147  16.257  0.00  0.00    +0.000 OA
ATOM     31  H   UNL     1       5.881   6.935  16.571  0.00  0.00    +0.000 HD
ENDBRANCH  24  30
ENDBRANCH  17  20
ENDBRANCH   4  16
BRANCH   5  32
ATOM     32  N   UNL     1       0.379   9.816  18.117  0.00  0.00    +0.000 N 
ATOM     33  O   UNL     1      -0.728   9.942  17.570  0.00  0.00    +0.000 OA
ATOM     34  O   UNL     1       1.448   9.704  17.500  0.00  0.00    +0.000 OA
ENDBRANCH   5  32
TORSDOF 8
ENDMDL
MODEL 8
REMARK VINA RESULT:      -8.2      2.630     10.220
REMARK  Name = 
REMARK  9 active torsions:
REMARK  status: ('A' for Active; 'I' for Inactive)
REMARK    1  A    between atoms: C_1  and  C_2
REMARK    2  A    between atoms: C_2  and  C_4
REMARK    3  A    between atoms: C_8  and  C_9
REMARK    4  A    between atoms: C_12  and  N_13
REMARK    5  A    between atoms: C_14  and  C_16
REMARK    6  A    between atoms: C_18  and  O_19
REMARK    7  A    between atoms: C_20  and  O_21
REMARK    8  A    between atoms: C_22  and  O_23
REMARK    9  A    between atoms: C_25  and  N_26
REMARK                            x       y       z     vdW  Elec       q    Type
REMARK                         _______ _______ _______ _____ _____    ______ ____
ROOT
ATOM      1  C   UNL     1       2.287   7.720  18.603  0.00  0.00    +0.000 A 
ATOM      2  C   UNL     1       1.853   8.729  17.733  0.00  0.00    +0.000 A 
ATOM      3  C   UNL     1       1.101   9.814  18.190  0.00  0.00    +0.000 A 
ATOM      4  C   UNL     1       0.751   9.951  19.539  0.00  0.00    +0.000 A 
ATOM      5  C   UNL     1       1.141   8.918  20.415  0.00  0.00    +0.000 A 
ATOM      6  C   UNL     1       1.885   7.819  19.944  0.00  0.00    +0.000 A 
ENDROOT
BRANCH   1  11
ATOM      7  C   UNL     1       5.374   5.974  17.254  0.00  0.00    +0.000 A 
ATOM      8  C   UNL     1       4.871   4.691  17.014  0.00  0.00    +0.000 A 
ATOM      9  C   UNL     1       3.564   4.370  17.372  0.00  0.00    +0.000 A 
ATOM     10  C   UNL     1       2.740   5.346  17.935  0.00  0.00    +0.000 A 
ATOM     11  C   UNL     1       3.207   6.652  18.166  0.00  0.00    +0.000 A 
ATOM     12  C   UNL     1       4.551   6.932  17.858  0.00  0.00    +0.000 A 
BRANCH   7  14
ATOM     13  C   UNL     1       7.570   7.293  17.599  0.00  0.00    +0.000 C 
ATOM     14  C   UNL     1       6.760   6.299  16.807  0.00  0.00    +0.000 C 
ATOM     15  O   UNL     1       7.218   5.764  15.800  0.00  0.00    +0.000 OA
ENDBRANCH   7  14
ENDBRANCH   1  11
BRANCH   4  16
ATOM     16  N   UNL     1       0.056  11.103  19.990  0.00  0.00    +0.000 N 
ATOM     17  C   UNL     1       0.607  12.189  20.650  0.00  0.00    +0.000 C 
ATOM     18  O   UNL     1       1.784  12.335  20.957  0.00  0.00    +0.000 OA
ATOM     19  H   UNL     1      -0.961  11.029  19.992  0.00  0.00    +0.000 HD
BRANCH  17  20
ATOM     20  C   UNL     1      -0.362  13.210  21.123  0.00  0.00    +0.000 A 
ATOM     21  C   UNL     1      -0.075  13.848  22.344  0.00  0.00    +0.000 A 
ATOM     22  C   UNL     1      -1.007  14.715  22.895  0.00  0.00    +0.000 A 
ATOM     23  C   UNL     1      -2.200  14.965  22.231  0.00  0.00    +0.000 A 
ATOM     24  C   UNL     1      -2.461  14.369  21.003  0.00  0.00    +0.000 A 
ATOM     25  C   UNL     1      -1.544  13.501  20.428  0.00  0.00    +0.000 A 
BRANCH  22  26
ATOM     26  O   UNL     1      -0.806  15.315  24.106  0.00  0.00    +0.000 OA
ATOM     27  H   UNL     1      -0.567  14.625  24.752  0.00  0.00    +0.000 HD
ENDBRANCH  22  26
BRANCH  23  28
ATOM     28  O   UNL     1      -3.144  15.785  22.786  0.00  0.00    +0.000 OA
ATOM     29  H   UNL     1      -3.156  15.531  23.733  0.00  0.00    +0.000 HD
ENDBRANCH  23  28
BRANCH  24  30
ATOM     30  O   UNL     1      -3.641  14.606  20.362  0.00  0.00    +0.000 OA
ATOM     31  H   UNL     1      -4.199  13.829  20.574  0.00  0.00    +0.000 HD
ENDBRANCH  24  30
ENDBRANCH  17  20
ENDBRANCH   4  16
BRANCH   5  32
ATOM     32  N   UNL     1       0.857   8.962  21.861  0.00  0.00    +0.000 N 
ATOM     33  O   UNL     1      -0.300   8.718  22.237  0.00  0.00    +0.000 OA
ATOM     34  O   UNL     1       1.786   9.261  22.626  0.00  0.00    +0.000 OA
ENDBRANCH   5  32
TORSDOF 8
ENDMDL
MODEL 9
REMARK VINA RESULT:      -8.1      2.691     10.166
REMARK  Name = 
REMARK  9 active torsions:
REMARK  status: ('A' for Active; 'I' for Inactive)
REMARK    1  A    between atoms: C_1  and  C_2
REMARK    2  A    between atoms: C_2  and  C_4
REMARK    3  A    between atoms: C_8  and  C_9
REMARK    4  A    between atoms: C_12  and  N_13
REMARK    5  A    between atoms: C_14  and  C_16
REMARK    6  A    between atoms: C_18  and  O_19
REMARK    7  A    between atoms: C_20  and  O_21
REMARK    8  A    between atoms: C_22  and  O_23
REMARK    9  A    between atoms: C_25  and  N_26
REMARK                            x       y       z     vdW  Elec       q    Type
REMARK                         _______ _______ _______ _____ _____    ______ ____
ROOT
ATOM      1  C   UNL     1       2.312   7.771  18.599  0.00  0.00    +0.000 A 
ATOM      2  C   UNL     1       1.931   8.814  17.745  0.00  0.00    +0.000 A 
ATOM      3  C   UNL     1       1.184   9.901  18.207  0.00  0.00    +0.000 A 
ATOM      4  C   UNL     1       0.786  10.006  19.546  0.00  0.00    +0.000 A 
ATOM      5  C   UNL     1       1.122   8.939  20.404  0.00  0.00    +0.000 A 
ATOM      6  C   UNL     1       1.862   7.839  19.927  0.00  0.00    +0.000 A 
ENDROOT
BRANCH   1  11
ATOM      7  C   UNL     1       5.388   6.006  17.251  0.00  0.00    +0.000 A 
ATOM      8  C   UNL     1       4.878   4.724  17.017  0.00  0.00    +0.000 A 
ATOM      9  C   UNL     1       3.571   4.411  17.379  0.00  0.00    +0.000 A 
ATOM     10  C   UNL     1       2.753   5.393  17.940  0.00  0.00    +0.000 A 
ATOM     11  C   UNL     1       3.226   6.698  18.165  0.00  0.00    +0.000 A 
ATOM     12  C   UNL     1       4.571   6.970  17.854  0.00  0.00    +0.000 A 
BRANCH   7  14
ATOM     13  C   UNL     1       7.570   7.358  17.554  0.00  0.00    +0.000 C 
ATOM     14  C   UNL     1       6.774   6.323  16.801  0.00  0.00    +0.000 C 
ATOM     15  O   UNL     1       7.245   5.747  15.822  0.00  0.00    +0.000 OA
ENDBRANCH   7  14
ENDBRANCH   1  11
BRANCH   4  16
ATOM     16  N   UNL     1       0.099  11.158  20.006  0.00  0.00    +0.000 N 
ATOM     17  C   UNL     1       0.650  12.220  20.703  0.00  0.00    +0.000 C 
ATOM     18  O   UNL     1       1.821  12.340  21.044  0.00  0.00    +0.000 OA
ATOM     19  H   UNL     1      -0.919  11.101  19.981  0.00  0.00    +0.000 HD
BRANCH  17  20
ATOM     20  C   UNL     1      -0.315  13.246  21.176  0.00  0.00    +0.000 A 
ATOM     21  C   UNL     1      -0.826  14.137  20.214  0.00  0.00    +0.000 A 
ATOM     22  C   UNL     1      -1.629  15.192  20.620  0.00  0.00    +0.000 A 
ATOM     23  C   UNL     1      -1.944  15.347  21.964  0.00  0.00    +0.000 A 
ATOM     24  C   UNL     1      -1.477  14.438  22.906  0.00  0.00    +0.000 A 
ATOM     25  C   UNL     1      -0.673  13.373  22.525  0.00  0.00    +0.000 A 
BRANCH  22  26
ATOM     26  O   UNL     1      -2.102  16.120  19.736  0.00  0.00    +0.000 OA
ATOM     27  H   UNL     1      -1.666  16.971  19.925  0.00  0.00    +0.000 HD
ENDBRANCH  22  26
BRANCH  23  28
ATOM     28  O   UNL     1      -2.700  16.407  22.380  0.00  0.00    +0.000 OA
ATOM     29  H   UNL     1      -3.019  16.816  21.548  0.00  0.00    +0.000 HD
ENDBRANCH  23  28
BRANCH  24  30
ATOM     30  O   UNL     1      -1.775  14.604  24.226  0.00  0.00    +0.000 OA
ATOM     31  H   UNL     1      -2.486  13.954  24.403  0.00  0.00    +0.000 HD
ENDBRANCH  24  30
ENDBRANCH  17  20
ENDBRANCH   4  16
BRANCH   5  32
ATOM     32  N   UNL     1       0.786   8.947  21.839  0.00  0.00    +0.000 N 
ATOM     33  O   UNL     1      -0.381   8.677  22.167  0.00  0.00    +0.000 OA
ATOM     34  O   UNL     1       1.681   9.241  22.644  0.00  0.00    +0.000 OA
ENDBRANCH   5  32
TORSDOF 8
ENDMDL
