MODEL 1
REMARK VINA RESULT:      -8.8      0.000      0.000
REMARK  Name = 
REMARK  5 active torsions:
REMARK  status: ('A' for Active; 'I' for Inactive)
REMARK    1  A    between atoms: C_1  and  C_2
REMARK    2  A    between atoms: C_2  and  C_3
REMARK    3  A    between atoms: C_3  and  C_4
REMARK    4  A    between atoms: C_3  and  C_14
REMARK    5  A    between atoms: C_17  and  C_18
REMARK                            x       y       z     vdW  Elec       q    Type
REMARK                         _______ _______ _______ _____ _____    ______ ____
ROOT
ATOM      1  C   UNL     1       0.919   9.701  18.636  0.00  0.00    +0.000 C 
ATOM      2  C   UNL     1       1.860   8.968  19.559  0.00  0.00    +0.000 C 
ATOM      3  C   UNL     1       1.726   7.482  19.667  0.00  0.00    +0.000 C 
ATOM      4  C   UNL     1       2.087   6.920  18.264  0.00  0.00    +0.000 C 
ATOM      5  C   UNL     1       2.508   8.115  17.364  0.00  0.00    +0.000 C 
ATOM      6  C   UNL     1       2.317   9.344  18.193  0.00  0.00    +0.000 C 
ENDROOT
BRANCH   4   7
ATOM      7  C   UNL     1       3.163   5.853  18.338  0.00  0.00    +0.000 A 
ATOM      8  C   UNL     1       4.504   6.264  18.319  0.00  0.00    +0.000 A 
ATOM      9  C   UNL     1       5.501   5.313  18.377  0.00  0.00    +0.000 A 
ATOM     10  N   UNL     1       5.262   3.992  18.455  0.00  0.00    +0.000 NA
ATOM     11  C   UNL     1       3.987   3.579  18.484  0.00  0.00    +0.000 A 
ATOM     12  C   UNL     1       3.762   2.212  18.576  0.00  0.00    +0.000 A 
ATOM     13  C   UNL     1       2.476   1.678  18.624  0.00  0.00    +0.000 A 
ATOM     14  C   UNL     1       1.390   2.537  18.568  0.00  0.00    +0.000 A 
ATOM     15  F   UNL     1       0.152   2.034  18.616  0.00  0.00    +0.000 F 
ATOM     16  C   UNL     1       1.576   3.907  18.465  0.00  0.00    +0.000 A 
ATOM     17  C   UNL     1       2.878   4.463  18.426  0.00  0.00    +0.000 A 
ENDBRANCH   4   7
BRANCH   1  18
ATOM     18  C   UNL     1       0.499  11.130  18.872  0.00  0.00    +0.000 C 
BRANCH  18  19
ATOM     19  C   UNL     1      -0.967  11.283  18.560  0.00  0.00    +0.000 A 
ATOM     20  N   UNL     1      -1.897  11.652  19.418  0.00  0.00    +0.000 NA
ATOM     21  C   UNL     1      -3.071  11.655  18.719  0.00  0.00    +0.000 A 
ATOM     22  C   UNL     1      -4.358  11.989  19.156  0.00  0.00    +0.000 A 
ATOM     23  C   UNL     1      -5.396  11.944  18.224  0.00  0.00    +0.000 A 
ATOM     24 CL   UNL     1      -6.989  12.373  18.721  0.00  0.00    +0.000 Cl
ATOM     25  C   UNL     1      -5.169  11.565  16.898  0.00  0.00    +0.000 A 
ATOM     26  C   UNL     1      -3.887  11.210  16.453  0.00  0.00    +0.000 A 
ATOM     27  C   UNL     1      -2.862  11.272  17.399  0.00  0.00    +0.000 A 
ATOM     28  N   UNL     1      -1.515  11.014  17.329  0.00  0.00    +0.000 N 
ATOM     29  H   UNL     1      -1.012  10.696  16.514  0.00  0.00    +0.000 HD
ENDBRANCH  18  19
BRANCH  18  31
ATOM     30  C   UNL     1       1.554  12.780  20.539  0.00  0.00    +0.000 C 
ATOM     31  C   UNL     1       0.777  11.488  20.350  0.00  0.00    +0.000 C 
ENDBRANCH  18  31
ENDBRANCH   1  18
TORSDOF 4
ENDMDL
MODEL 2
REMARK VINA RESULT:      -8.7      1.041      1.189
REMARK  Name = 
REMARK  5 active torsions:
REMARK  status: ('A' for Active; 'I' for Inactive)
REMARK    1  A    between atoms: C_1  and  C_2
REMARK    2  A    between atoms: C_2  and  C_3
REMARK    3  A    between atoms: C_3  and  C_4
REMARK    4  A    between atoms: C_3  and  C_14
REMARK    5  A    between atoms: C_17  and  C_18
REMARK                            x       y       z     vdW  Elec       q    Type
REMARK                         _______ _______ _______ _____ _____    ______ ____
ROOT
ATOM      1  C   UNL     1       0.450   9.933  19.420  0.00  0.00    +0.000 C 
ATOM      2  C   UNL     1       1.735   9.292  19.883  0.00  0.00    +0.000 C 
ATOM      3  C   UNL     1       1.819   7.799  19.877  0.00  0.00    +0.000 C 
ATOM      4  C   UNL     1       1.722   7.374  18.386  0.00  0.00    +0.000 C 
ATOM      5  C   UNL     1       1.657   8.665  17.524  0.00  0.00    +0.000 C 
ATOM      6  C   UNL     1       1.632   9.806  18.490  0.00  0.00    +0.000 C 
ENDROOT
BRANCH   4   7
ATOM      7  C   UNL     1       2.869   6.470  17.975  0.00  0.00    +0.000 A 
ATOM      8  C   UNL     1       4.085   7.069  17.611  0.00  0.00    +0.000 A 
ATOM      9  C   UNL     1       5.140   6.269  17.226  0.00  0.00    +0.000 A 
ATOM     10  N   UNL     1       5.076   4.927  17.181  0.00  0.00    +0.000 NA
ATOM     11  C   UNL     1       3.927   4.334  17.535  0.00  0.00    +0.000 A 
ATOM     12  C   UNL     1       3.886   2.947  17.492  0.00  0.00    +0.000 A 
ATOM     13  C   UNL     1       2.744   2.233  17.850  0.00  0.00    +0.000 A 
ATOM     14  C   UNL     1       1.615   2.928  18.250  0.00  0.00    +0.000 A 
ATOM     15  F   UNL     1       0.515   2.251  18.598  0.00  0.00    +0.000 F 
ATOM     16  C   UNL     1       1.615   4.315  18.295  0.00  0.00    +0.000 A 
ATOM     17  C   UNL     1       2.773   5.052  17.944  0.00  0.00    +0.000 A 
ENDBRANCH   4   7
BRANCH   1  18
ATOM     18  C   UNL     1      -0.021  11.271  19.932  0.00  0.00    +0.000 C 
BRANCH  18  19
ATOM     19  C   UNL     1      -1.440  11.510  19.489  0.00  0.00    +0.000 A 
ATOM     20  N   UNL     1      -2.357  12.161  20.177  0.00  0.00    +0.000 NA
ATOM     21  C   UNL     1      -3.488  12.136  19.411  0.00  0.00    +0.000 A 
ATOM     22  C   UNL     1      -4.743  12.698  19.671  0.00  0.00    +0.000 A 
ATOM     23  C   UNL     1      -5.734  12.559  18.698  0.00  0.00    +0.000 A 
ATOM     24 CL   UNL     1      -7.284  13.261  18.974  0.00  0.00    +0.000 Cl
ATOM     25  C   UNL     1      -5.494  11.871  17.505  0.00  0.00    +0.000 A 
ATOM     26  C   UNL     1      -4.246  11.288  17.241  0.00  0.00    +0.000 A 
ATOM     27  C   UNL     1      -3.267  11.448  18.223  0.00  0.00    +0.000 A 
ATOM     28  N   UNL     1      -1.959  11.035  18.309  0.00  0.00    +0.000 N 
ATOM     29  H   UNL     1      -1.462  10.489  17.620  0.00  0.00    +0.000 HD
ENDBRANCH  18  19
BRANCH  18  31
ATOM     30  C   UNL     1      -0.595  10.071  22.133  0.00  0.00    +0.000 C 
ATOM     31  C   UNL     1       0.071  11.268  21.475  0.00  0.00    +0.000 C 
ENDBRANCH  18  31
ENDBRANCH   1  18
TORSDOF 4
ENDMDL
MODEL 3
REMARK VINA RESULT:      -8.6      1.039      1.039
REMARK  Name = 
REMARK  5 active torsions:
REMARK  status: ('A' for Active; 'I' for Inactive)
REMARK    1  A    between atoms: C_1  and  C_2
REMARK    2  A    between atoms: C_2  and  C_3
REMARK    3  A    between atoms: C_3  and  C_4
REMARK    4  A    between atoms: C_3  and  C_14
REMARK    5  A    between atoms: C_17  and  C_18
REMARK                            x       y       z     vdW  Elec       q    Type
REMARK                         _______ _______ _______ _____ _____    ______ ____
ROOT
ATOM      1  C   UNL     1       0.648  10.007  18.885  0.00  0.00    +0.000 C 
ATOM      2  C   UNL     1       1.793   9.432  19.681  0.00  0.00    +0.000 C 
ATOM      3  C   UNL     1       1.777   7.966  19.981  0.00  0.00    +0.000 C 
ATOM      4  C   UNL     1       1.899   7.251  18.607  0.00  0.00    +0.000 C 
ATOM      5  C   UNL     1       2.064   8.342  17.513  0.00  0.00    +0.000 C 
ATOM      6  C   UNL     1       1.956   9.655  18.219  0.00  0.00    +0.000 C 
ENDROOT
BRANCH   4   7
ATOM      7  C   UNL     1       3.035   6.245  18.587  0.00  0.00    +0.000 A 
ATOM      8  C   UNL     1       4.185   6.562  17.847  0.00  0.00    +0.000 A 
ATOM      9  C   UNL     1       5.228   5.661  17.807  0.00  0.00    +0.000 A 
ATOM     10  N   UNL     1       5.213   4.479  18.447  0.00  0.00    +0.000 NA
ATOM     11  C   UNL     1       4.128   4.162  19.168  0.00  0.00    +0.000 A 
ATOM     12  C   UNL     1       4.138   2.942  19.831  0.00  0.00    +0.000 A 
ATOM     13  C   UNL     1       3.066   2.521  20.615  0.00  0.00    +0.000 A 
ATOM     14  C   UNL     1       1.954   3.341  20.728  0.00  0.00    +0.000 A 
ATOM     15  F   UNL     1       0.921   2.947  21.481  0.00  0.00    +0.000 F 
ATOM     16  C   UNL     1       1.905   4.562  20.072  0.00  0.00    +0.000 A 
ATOM     17  C   UNL     1       2.992   5.006  19.281  0.00  0.00    +0.000 A 
ENDBRANCH   4   7
BRANCH   1  18
ATOM     18  C   UNL     1       0.190  11.436  19.037  0.00  0.00    +0.000 C 
BRANCH  18  19
ATOM     19  C   UNL     1      -1.273  11.535  18.694  0.00  0.00    +0.000 A 
ATOM     20  N   UNL     1      -2.234  11.870  19.532  0.00  0.00    +0.000 NA
ATOM     21  C   UNL     1      -3.393  11.830  18.809  0.00  0.00    +0.000 A 
ATOM     22  C   UNL     1      -4.699  12.117  19.219  0.00  0.00    +0.000 A 
ATOM     23  C   UNL     1      -5.715  12.034  18.266  0.00  0.00    +0.000 A 
ATOM     24 CL   UNL     1      -7.333  12.405  18.730  0.00  0.00    +0.000 Cl
ATOM     25  C   UNL     1      -5.447  11.664  16.944  0.00  0.00    +0.000 A 
ATOM     26  C   UNL     1      -4.144  11.356  16.527  0.00  0.00    +0.000 A 
ATOM     27  C   UNL     1      -3.143  11.455  17.494  0.00  0.00    +0.000 A 
ATOM     28  N   UNL     1      -1.785  11.247  17.452  0.00  0.00    +0.000 N 
ATOM     29  H   UNL     1      -1.255  10.947  16.648  0.00  0.00    +0.000 HD
ENDBRANCH  18  19
BRANCH  18  31
ATOM     30  C   UNL     1       1.434  13.015  20.640  0.00  0.00    +0.000 C 
ATOM     31  C   UNL     1       0.435  11.879  20.497  0.00  0.00    +0.000 C 
ENDBRANCH  18  31
ENDBRANCH   1  18
TORSDOF 4
ENDMDL
MODEL 4
REMARK VINA RESULT:      -8.4      1.285      1.866
REMARK  Name = 
REMARK  5 active torsions:
REMARK  status: ('A' for Active; 'I' for Inactive)
REMARK    1  A    between atoms: C_1  and  C_2
REMARK    2  A    between atoms: C_2  and  C_3
REMARK    3  A    between atoms: C_3  and  C_4
REMARK    4  A    between atoms: C_3  and  C_14
REMARK    5  A    between atoms: C_17  and  C_18
REMARK                            x       y       z     vdW  Elec       q    Type
REMARK                         _______ _______ _______ _____ _____    ______ ____
ROOT
ATOM      1  C   UNL     1       0.485   9.854  19.854  0.00  0.00    +0.000 C 
ATOM      2  C   UNL     1       1.743   9.108  20.223  0.00  0.00    +0.000 C 
ATOM      3  C   UNL     1       1.761   7.623  20.036  0.00  0.00    +0.000 C 
ATOM      4  C   UNL     1       1.639   7.387  18.505  0.00  0.00    +0.000 C 
ATOM      5  C   UNL     1       1.627   8.776  17.807  0.00  0.00    +0.000 C 
ATOM      6  C   UNL     1       1.656   9.790  18.904  0.00  0.00    +0.000 C 
ENDROOT
BRANCH   4   7
ATOM      7  C   UNL     1       2.744   6.492  17.976  0.00  0.00    +0.000 A 
ATOM      8  C   UNL     1       3.925   7.098  17.522  0.00  0.00    +0.000 A 
ATOM      9  C   UNL     1       4.941   6.306  17.029  0.00  0.00    +0.000 A 
ATOM     10  N   UNL     1       4.869   4.965  16.960  0.00  0.00    +0.000 NA
ATOM     11  C   UNL     1       3.754   4.366  17.399  0.00  0.00    +0.000 A 
ATOM     12  C   UNL     1       3.705   2.980  17.330  0.00  0.00    +0.000 A 
ATOM     13  C   UNL     1       2.597   2.259  17.770  0.00  0.00    +0.000 A 
ATOM     14  C   UNL     1       1.508   2.946  18.281  0.00  0.00    +0.000 A 
ATOM     15  F   UNL     1       0.441   2.262  18.708  0.00  0.00    +0.000 F 
ATOM     16  C   UNL     1       1.517   4.331  18.356  0.00  0.00    +0.000 A 
ATOM     17  C   UNL     1       2.641   5.075  17.923  0.00  0.00    +0.000 A 
ENDBRANCH   4   7
BRANCH   1  18
ATOM     18  C   UNL     1       0.076  11.139  20.529  0.00  0.00    +0.000 C 
BRANCH  18  19
ATOM     19  C   UNL     1      -1.315  11.518  20.092  0.00  0.00    +0.000 A 
ATOM     20  N   UNL     1      -1.901  11.120  18.980  0.00  0.00    +0.000 NA
ATOM     21  C   UNL     1      -3.140  11.698  18.982  0.00  0.00    +0.000 A 
ATOM     22  C   UNL     1      -4.167  11.586  18.040  0.00  0.00    +0.000 A 
ATOM     23  C   UNL     1      -5.364  12.257  18.296  0.00  0.00    +0.000 A 
ATOM     24 CL   UNL     1      -6.661  12.121  17.169  0.00  0.00    +0.000 Cl
ATOM     25  C   UNL     1      -5.534  13.028  19.450  0.00  0.00    +0.000 A 
ATOM     26  C   UNL     1      -4.505  13.163  20.393  0.00  0.00    +0.000 A 
ATOM     27  C   UNL     1      -3.321  12.476  20.120  0.00  0.00    +0.000 A 
ATOM     28  N   UNL     1      -2.131  12.365  20.800  0.00  0.00    +0.000 N 
ATOM     29  H   UNL     1      -1.902  12.817  21.672  0.00  0.00    +0.000 HD
ENDBRANCH  18  19
BRANCH  18  31
ATOM     30  C   UNL     1      -0.597   9.677  22.535  0.00  0.00    +0.000 C 
ATOM     31  C   UNL     1       0.122  10.928  22.060  0.00  0.00    +0.000 C 
ENDBRANCH  18  31
ENDBRANCH   1  18
TORSDOF 4
ENDMDL
MODEL 5
REMARK VINA RESULT:      -8.1      0.835      1.410
REMARK  Name = 
REMARK  5 active torsions:
REMARK  status: ('A' for Active; 'I' for Inactive)
REMARK    1  A    between atoms: C_1  and  C_2
REMARK    2  A    between atoms: C_2  and  C_3
REMARK    3  A    between atoms: C_3  and  C_4
REMARK    4  A    between atoms: C_3  and  C_14
REMARK    5  A    between atoms: C_17  and  C_18
REMARK                            x       y       z     vdW  Elec       q    Type
REMARK                         _______ _______ _______ _____ _____    ______ ____
ROOT
ATOM      1  C   UNL     1       0.750  10.071  19.003  0.00  0.00    +0.000 C 
ATOM      2  C   UNL     1       1.907   9.354  19.654  0.00  0.00    +0.000 C 
ATOM      3  C   UNL     1       1.833   7.865  19.779  0.00  0.00    +0.000 C 
ATOM      4  C   UNL     1       1.842   7.316  18.326  0.00  0.00    +0.000 C 
ATOM      5  C   UNL     1       2.000   8.523  17.360  0.00  0.00    +0.000 C 
ATOM      6  C   UNL     1       1.999   9.745  18.221  0.00  0.00    +0.000 C 
ENDROOT
BRANCH   4   7
ATOM      7  C   UNL     1       2.922   6.272  18.117  0.00  0.00    +0.000 A 
ATOM      8  C   UNL     1       4.222   6.714  17.826  0.00  0.00    +0.000 A 
ATOM      9  C   UNL     1       5.220   5.784  17.625  0.00  0.00    +0.000 A 
ATOM     10  N   UNL     1       5.022   4.456  17.695  0.00  0.00    +0.000 NA
ATOM     11  C   UNL     1       3.790   4.013  17.983  0.00  0.00    +0.000 A 
ATOM     12  C   UNL     1       3.609   2.639  18.062  0.00  0.00    +0.000 A 
ATOM     13  C   UNL     1       2.372   2.074  18.365  0.00  0.00    +0.000 A 
ATOM     14  C   UNL     1       1.289   2.910  18.583  0.00  0.00    +0.000 A 
ATOM     15  F   UNL     1       0.097   2.377  18.877  0.00  0.00    +0.000 F 
ATOM     16  C   UNL     1       1.428   4.287  18.502  0.00  0.00    +0.000 A 
ATOM     17  C   UNL     1       2.683   4.873  18.206  0.00  0.00    +0.000 A 
ENDBRANCH   4   7
BRANCH   1  18
ATOM     18  C   UNL     1       0.375  11.489  19.350  0.00  0.00    +0.000 C 
BRANCH  18  19
ATOM     19  C   UNL     1      -1.124  11.636  19.320  0.00  0.00    +0.000 A 
ATOM     20  N   UNL     1      -1.921  11.148  18.390  0.00  0.00    +0.000 NA
ATOM     21  C   UNL     1      -3.187  11.516  18.751  0.00  0.00    +0.000 A 
ATOM     22  C   UNL     1      -4.402  11.238  18.116  0.00  0.00    +0.000 A 
ATOM     23  C   UNL     1      -5.573  11.704  18.714  0.00  0.00    +0.000 A 
ATOM     24 CL   UNL     1      -7.090  11.359  17.972  0.00  0.00    +0.000 Cl
ATOM     25  C   UNL     1      -5.542  12.438  19.904  0.00  0.00    +0.000 A 
ATOM     26  C   UNL     1      -4.329  12.738  20.540  0.00  0.00    +0.000 A 
ATOM     27  C   UNL     1      -3.171  12.254  19.930  0.00  0.00    +0.000 A 
ATOM     28  N   UNL     1      -1.839  12.339  20.258  0.00  0.00    +0.000 N 
ATOM     29  H   UNL     1      -1.455  12.823  21.057  0.00  0.00    +0.000 HD
ENDBRANCH  18  19
BRANCH  18  31
ATOM     30  C   UNL     1       1.851  13.014  20.802  0.00  0.00    +0.000 C 
ATOM     31  C   UNL     1       0.921  11.813  20.759  0.00  0.00    +0.000 C 
ENDBRANCH  18  31
ENDBRANCH   1  18
TORSDOF 4
ENDMDL
MODEL 6
REMARK VINA RESULT:      -8.1      2.712      3.554
REMARK  Name = 
REMARK  5 active torsions:
REMARK  status: ('A' for Active; 'I' for Inactive)
REMARK    1  A    between atoms: C_1  and  C_2
REMARK    2  A    between atoms: C_2  and  C_3
REMARK    3  A    between atoms: C_3  and  C_4
REMARK    4  A    between atoms: C_3  and  C_14
REMARK    5  A    between atoms: C_17  and  C_18
REMARK                            x       y       z     vdW  Elec       q    Type
REMARK                         _______ _______ _______ _____ _____    ______ ____
ROOT
ATOM      1  C   UNL     1       0.882  10.891  18.891  0.00  0.00    +0.000 C 
ATOM      2  C   UNL     1       0.780   9.627  18.075  0.00  0.00    +0.000 C 
ATOM      3  C   UNL     1       1.991   8.755  17.972  0.00  0.00    +0.000 C 
ATOM      4  C   UNL     1       2.263   8.234  19.410  0.00  0.00    +0.000 C 
ATOM      5  C   UNL     1       1.131   8.766  20.333  0.00  0.00    +0.000 C 
ATOM      6  C   UNL     1       0.274   9.639  19.474  0.00  0.00    +0.000 C 
ENDROOT
BRANCH   4   7
ATOM      7  C   UNL     1       2.374   6.721  19.457  0.00  0.00    +0.000 A 
ATOM      8  C   UNL     1       1.638   6.034  20.435  0.00  0.00    +0.000 A 
ATOM      9  C   UNL     1       1.729   4.660  20.503  0.00  0.00    +0.000 A 
ATOM     10  N   UNL     1       2.489   3.925  19.673  0.00  0.00    +0.000 NA
ATOM     11  C   UNL     1       3.192   4.561  18.725  0.00  0.00    +0.000 A 
ATOM     12  C   UNL     1       3.961   3.782  17.871  0.00  0.00    +0.000 A 
ATOM     13  C   UNL     1       4.720   4.342  16.846  0.00  0.00    +0.000 A 
ATOM     14  C   UNL     1       4.714   5.718  16.681  0.00  0.00    +0.000 A 
ATOM     15  F   UNL     1       5.437   6.265  15.698  0.00  0.00    +0.000 F 
ATOM     16  C   UNL     1       3.966   6.529  17.521  0.00  0.00    +0.000 A 
ATOM     17  C   UNL     1       3.182   5.971  18.560  0.00  0.00    +0.000 A 
ENDBRANCH   4   7
BRANCH   1  18
ATOM     18  C   UNL     1       0.054  12.117  18.596  0.00  0.00    +0.000 C 
BRANCH  18  19
ATOM     19  C   UNL     1      -1.019  12.264  19.642  0.00  0.00    +0.000 A 
ATOM     20  N   UNL     1      -0.854  12.087  20.938  0.00  0.00    +0.000 NA
ATOM     21  C   UNL     1      -2.075  12.315  21.506  0.00  0.00    +0.000 A 
ATOM     22  C   UNL     1      -2.442  12.276  22.856  0.00  0.00    +0.000 A 
ATOM     23  C   UNL     1      -3.763  12.587  23.183  0.00  0.00    +0.000 A 
ATOM     24 CL   UNL     1      -4.244  12.574  24.837  0.00  0.00    +0.000 Cl
ATOM     25  C   UNL     1      -4.700  12.916  22.197  0.00  0.00    +0.000 A 
ATOM     26  C   UNL     1      -4.348  12.940  20.840  0.00  0.00    +0.000 A 
ATOM     27  C   UNL     1      -3.020  12.635  20.537  0.00  0.00    +0.000 A 
ATOM     28  N   UNL     1      -2.327  12.570  19.353  0.00  0.00    +0.000 N 
ATOM     29  H   UNL     1      -2.708  12.731  18.432  0.00  0.00    +0.000 HD
ENDBRANCH  18  19
BRANCH  18  31
ATOM     30  C   UNL     1       2.428  13.041  18.239  0.00  0.00    +0.000 C 
ATOM     31  C   UNL     1       0.984  13.352  18.599  0.00  0.00    +0.000 C 
ENDBRANCH  18  31
ENDBRANCH   1  18
TORSDOF 4
ENDMDL
MODEL 7
REMARK VINA RESULT:      -8.0      3.713      5.538
REMARK  Name = 
REMARK  5 active torsions:
REMARK  status: ('A' for Active; 'I' for Inactive)
REMARK    1  A    between atoms: C_1  and  C_2
REMARK    2  A    between atoms: C_2  and  C_3
REMARK    3  A    between atoms: C_3  and  C_4
REMARK    4  A    between atoms: C_3  and  C_14
REMARK    5  A    between atoms: C_17  and  C_18
REMARK                            x       y       z     vdW  Elec       q    Type
REMARK                         _______ _______ _______ _____ _____    ______ ____
ROOT
ATOM      1  C   UNL     1       1.476  10.303  19.280  0.00  0.00    +0.000 C 
ATOM      2  C   UNL     1       1.152   9.384  18.129  0.00  0.00    +0.000 C 
ATOM      3  C   UNL     1       2.278   8.646  17.478  0.00  0.00    +0.000 C 
ATOM      4  C   UNL     1       2.837   7.681  18.561  0.00  0.00    +0.000 C 
ATOM      5  C   UNL     1       1.954   7.827  19.832  0.00  0.00    +0.000 C 
ATOM      6  C   UNL     1       0.963   8.904  19.525  0.00  0.00    +0.000 C 
ENDROOT
BRANCH   4   7
ATOM      7  C   UNL     1       2.899   6.247  18.070  0.00  0.00    +0.000 A 
ATOM      8  C   UNL     1       1.744   5.459  18.183  0.00  0.00    +0.000 A 
ATOM      9  C   UNL     1       1.777   4.150  17.751  0.00  0.00    +0.000 A 
ATOM     10  N   UNL     1       2.867   3.573  17.216  0.00  0.00    +0.000 NA
ATOM     11  C   UNL     1       3.979   4.312  17.089  0.00  0.00    +0.000 A 
ATOM     12  C   UNL     1       5.090   3.701  16.524  0.00  0.00    +0.000 A 
ATOM     13  C   UNL     1       6.291   4.382  16.337  0.00  0.00    +0.000 A 
ATOM     14  C   UNL     1       6.381   5.705  16.738  0.00  0.00    +0.000 A 
ATOM     15  F   UNL     1       7.529   6.368  16.561  0.00  0.00    +0.000 F 
ATOM     16  C   UNL     1       5.295   6.346  17.317  0.00  0.00    +0.000 A 
ATOM     17  C   UNL     1       4.066   5.668  17.502  0.00  0.00    +0.000 A 
ENDBRANCH   4   7
BRANCH   1  18
ATOM     18  C   UNL     1       0.651  11.523  19.604  0.00  0.00    +0.000 C 
BRANCH  18  19
ATOM     19  C   UNL     1       1.498  12.759  19.453  0.00  0.00    +0.000 A 
ATOM     20  N   UNL     1       2.022  13.452  20.445  0.00  0.00    +0.000 NA
ATOM     21  C   UNL     1       2.703  14.483  19.862  0.00  0.00    +0.000 A 
ATOM     22  C   UNL     1       3.452  15.499  20.465  0.00  0.00    +0.000 A 
ATOM     23  C   UNL     1       4.087  16.423  19.635  0.00  0.00    +0.000 A 
ATOM     24 CL   UNL     1       5.038  17.674  20.343  0.00  0.00    +0.000 Cl
ATOM     25  C   UNL     1       3.973  16.351  18.243  0.00  0.00    +0.000 A 
ATOM     26  C   UNL     1       3.211  15.348  17.627  0.00  0.00    +0.000 A 
ATOM     27  C   UNL     1       2.592  14.429  18.477  0.00  0.00    +0.000 A 
ATOM     28  N   UNL     1       1.796  13.334  18.242  0.00  0.00    +0.000 N 
ATOM     29  H   UNL     1       1.493  13.003  17.338  0.00  0.00    +0.000 HD
ENDBRANCH  18  19
BRANCH  18  31
ATOM     30  C   UNL     1      -1.876  11.900  19.313  0.00  0.00    +0.000 C 
ATOM     31  C   UNL     1      -0.555  11.572  18.638  0.00  0.00    +0.000 C 
ENDBRANCH  18  31
ENDBRANCH   1  18
TORSDOF 4
ENDMDL
MODEL 8
REMARK VINA RESULT:      -8.0      4.376      9.554
REMARK  Name = 
REMARK  5 active torsions:
REMARK  status: ('A' for Active; 'I' for Inactive)
REMARK    1  A    between atoms: C_1  and  C_2
REMARK    2  A    between atoms: C_2  and  C_3
REMARK    3  A    between atoms: C_3  and  C_4
REMARK    4  A    between atoms: C_3  and  C_14
REMARK    5  A    between atoms: C_17  and  C_18
REMARK                            x       y       z     vdW  Elec       q    Type
REMARK                         _______ _______ _______ _____ _____    ______ ____
ROOT
ATOM      1  C   UNL     1       3.334   5.518  19.000  0.00  0.00    +0.000 C 
ATOM      2  C   UNL     1       1.910   5.804  19.406  0.00  0.00    +0.000 C 
ATOM      3  C   UNL     1       1.663   6.918  20.373  0.00  0.00    +0.000 C 
ATOM      4  C   UNL     1       2.095   8.219  19.640  0.00  0.00    +0.000 C 
ATOM      5  C   UNL     1       2.526   7.834  18.197  0.00  0.00    +0.000 C 
ATOM      6  C   UNL     1       2.427   6.345  18.120  0.00  0.00    +0.000 C 
ENDROOT
BRANCH   4   7
ATOM      7  C   UNL     1       1.000   9.269  19.648  0.00  0.00    +0.000 A 
ATOM      8  C   UNL     1       0.605   9.822  18.420  0.00  0.00    +0.000 A 
ATOM      9  C   UNL     1      -0.382  10.784  18.402  0.00  0.00    +0.000 A 
ATOM     10  N   UNL     1      -1.004  11.230  19.507  0.00  0.00    +0.000 NA
ATOM     11  C   UNL     1      -0.649  10.707  20.689  0.00  0.00    +0.000 A 
ATOM     12  C   UNL     1      -1.312  11.173  21.817  0.00  0.00    +0.000 A 
ATOM     13  C   UNL     1      -1.027  10.688  23.092  0.00  0.00    +0.000 A 
ATOM     14  C   UNL     1      -0.047   9.721  23.238  0.00  0.00    +0.000 A 
ATOM     15  F   UNL     1       0.232   9.247  24.458  0.00  0.00    +0.000 F 
ATOM     16  C   UNL     1       0.644   9.239  22.136  0.00  0.00    +0.000 A 
ATOM     17  C   UNL     1       0.356   9.715  20.834  0.00  0.00    +0.000 A 
ENDBRANCH   4   7
BRANCH   1  18
ATOM     18  C   UNL     1       3.802   4.144  18.593  0.00  0.00    +0.000 C 
BRANCH  18  19
ATOM     19  C   UNL     1       4.647   4.246  17.351  0.00  0.00    +0.000 A 
ATOM     20  N   UNL     1       4.379   3.675  16.194  0.00  0.00    +0.000 NA
ATOM     21  C   UNL     1       5.400   4.025  15.356  0.00  0.00    +0.000 A 
ATOM     22  C   UNL     1       5.590   3.696  14.010  0.00  0.00    +0.000 A 
ATOM     23  C   UNL     1       6.712   4.216  13.363  0.00  0.00    +0.000 A 
ATOM     24 CL   UNL     1       6.964   3.853  11.697  0.00  0.00    +0.000 Cl
ATOM     25  C   UNL     1       7.629   5.030  14.035  0.00  0.00    +0.000 A 
ATOM     26  C   UNL     1       7.460   5.351  15.389  0.00  0.00    +0.000 A 
ATOM     27  C   UNL     1       6.326   4.828  16.014  0.00  0.00    +0.000 A 
ATOM     28  N   UNL     1       5.836   4.933  17.293  0.00  0.00    +0.000 N 
ATOM     29  H   UNL     1       6.267   5.437  18.054  0.00  0.00    +0.000 HD
ENDBRANCH  18  19
BRANCH  18  31
ATOM     30  C   UNL     1       4.300   2.082  20.046  0.00  0.00    +0.000 C 
ATOM     31  C   UNL     1       4.621   3.538  19.756  0.00  0.00    +0.000 C 
ENDBRANCH  18  31
ENDBRANCH   1  18
TORSDOF 4
ENDMDL
MODEL 9
REMARK VINA RESULT:      -8.0      1.782      2.469
REMARK  Name = 
REMARK  5 active torsions:
REMARK  status: ('A' for Active; 'I' for Inactive)
REMARK    1  A    between atoms: C_1  and  C_2
REMARK    2  A    between atoms: C_2  and  C_3
REMARK    3  A    between atoms: C_3  and  C_4
REMARK    4  A    between atoms: C_3  and  C_14
REMARK    5  A    between atoms: C_17  and  C_18
REMARK                            x       y       z     vdW  Elec       q    Type
REMARK                         _______ _______ _______ _____ _____    ______ ____
ROOT
ATOM      1  C   UNL     1       1.335  10.538  19.512  0.00  0.00    +0.000 C 
ATOM      2  C   UNL     1       0.896   9.387  18.641  0.00  0.00    +0.000 C 
ATOM      3  C   UNL     1       1.923   8.376  18.241  0.00  0.00    +0.000 C 
ATOM      4  C   UNL     1       2.370   7.680  19.557  0.00  0.00    +0.000 C 
ATOM      5  C   UNL     1       1.518   8.264  20.719  0.00  0.00    +0.000 C 
ATOM      6  C   UNL     1       0.661   9.326  20.109  0.00  0.00    +0.000 C 
ENDROOT
BRANCH   4   7
ATOM      7  C   UNL     1       2.259   6.170  19.470  0.00  0.00    +0.000 A 
ATOM      8  C   UNL     1       1.363   5.522  20.335  0.00  0.00    +0.000 A 
ATOM      9  C   UNL     1       1.250   4.149  20.281  0.00  0.00    +0.000 A 
ATOM     10  N   UNL     1       1.954   3.379  19.433  0.00  0.00    +0.000 NA
ATOM     11  C   UNL     1       2.807   3.979  18.591  0.00  0.00    +0.000 A 
ATOM     12  C   UNL     1       3.516   3.167  17.715  0.00  0.00    +0.000 A 
ATOM     13  C   UNL     1       4.419   3.690  16.792  0.00  0.00    +0.000 A 
ATOM     14  C   UNL     1       4.623   5.060  16.755  0.00  0.00    +0.000 A 
ATOM     15  F   UNL     1       5.486   5.572  15.871  0.00  0.00    +0.000 F 
ATOM     16  C   UNL     1       3.941   5.902  17.621  0.00  0.00    +0.000 A 
ATOM     17  C   UNL     1       3.012   5.383  18.557  0.00  0.00    +0.000 A 
ENDBRANCH   4   7
BRANCH   1  18
ATOM     18  C   UNL     1       0.661  11.887  19.475  0.00  0.00    +0.000 C 
BRANCH  18  19
ATOM     19  C   UNL     1      -0.718  11.746  18.889  0.00  0.00    +0.000 A 
ATOM     20  N   UNL     1      -1.849  11.876  19.554  0.00  0.00    +0.000 NA
ATOM     21  C   UNL     1      -2.846  11.666  18.644  0.00  0.00    +0.000 A 
ATOM     22  C   UNL     1      -4.233  11.706  18.828  0.00  0.00    +0.000 A 
ATOM     23  C   UNL     1      -5.045  11.488  17.715  0.00  0.00    +0.000 A 
ATOM     24 CL   UNL     1      -6.758  11.555  17.899  0.00  0.00    +0.000 Cl
ATOM     25  C   UNL     1      -4.500  11.223  16.454  0.00  0.00    +0.000 A 
ATOM     26  C   UNL     1      -3.113  11.162  16.262  0.00  0.00    +0.000 A 
ATOM     27  C   UNL     1      -2.319  11.394  17.386  0.00  0.00    +0.000 A 
ATOM     28  N   UNL     1      -0.958  11.424  17.575  0.00  0.00    +0.000 N 
ATOM     29  H   UNL     1      -0.257  11.253  16.869  0.00  0.00    +0.000 HD
ENDBRANCH  18  19
BRANCH  18  31
ATOM     30  C   UNL     1       0.853  13.930  21.025  0.00  0.00    +0.000 C 
ATOM     31  C   UNL     1       0.583  12.438  20.917  0.00  0.00    +0.000 C 
ENDBRANCH  18  31
ENDBRANCH   1  18
TORSDOF 4
ENDMDL
