MODEL 1
REMARK VINA RESULT:      -6.4      0.000      0.000
REMARK  Name = 
REMARK  11 active torsions:
REMARK  status: ('A' for Active; 'I' for Inactive)
REMARK    1  A    between atoms: C_1  and  C_2
REMARK    2  A    between atoms: C_2  and  C_3
REMARK    3  A    between atoms: C_2  and  C_4
REMARK    4  A    between atoms: C_2  and  C_5
REMARK    5  A    between atoms: C_5  and  N_6
REMARK    6  A    between atoms: C_7  and  C_9
REMARK    7  A    between atoms: C_9  and  C_10
REMARK    8  A    between atoms: C_9  and  C_11
REMARK    9  A    between atoms: C_9  and  N_12
REMARK   10  A    between atoms: N_12  and  C_13
REMARK   11  A    between atoms: C_13  and  C_14
REMARK                            x       y       z     vdW  Elec       q    Type
REMARK                         _______ _______ _______ _____ _____    ______ ____
ROOT
ATOM      1  C   UNL     1       5.518   4.882  17.830  0.00  0.00    +0.000 C 
ATOM      2  C   UNL     1       4.800   6.103  17.231  0.00  0.00    +0.000 C 
ATOM      3  C   UNL     1       6.209   5.305  19.141  0.00  0.00    +0.000 C 
ENDROOT
BRANCH   1   5
ATOM      4  N   UNL     1       4.259   3.529  19.488  0.00  0.00    +0.000 N 
ATOM      5  C   UNL     1       4.472   3.773  18.144  0.00  0.00    +0.000 C 
ATOM      6  O   UNL     1       3.878   3.154  17.265  0.00  0.00    +0.000 OA
ATOM      7  H   UNL     1       4.799   4.040  20.173  0.00  0.00    +0.000 HD
BRANCH   4   8
ATOM      8  C   UNL     1       3.278   2.566  19.954  0.00  0.00    +0.000 C 
BRANCH   8  10
ATOM      9  C   UNL     1       0.838   2.979  19.424  0.00  0.00    +0.000 C 
ATOM     10  C   UNL     1       1.966   3.232  20.438  0.00  0.00    +0.000 C 
ATOM     11  C   UNL     1       2.158   4.746  20.620  0.00  0.00    +0.000 C 
ATOM     12  C   UNL     1       1.557   2.616  21.790  0.00  0.00    +0.000 C 
ENDBRANCH   8  10
ENDBRANCH   4   8
ENDBRANCH   1   5
BRANCH   1  13
ATOM     13  N   UNL     1       6.578   4.372  16.919  0.00  0.00    +0.000 NA
ATOM     14  H   UNL     1       6.269   3.519  16.460  0.00  0.00    +0.000 HD
BRANCH  13  15
ATOM     15  C   UNL     1       6.989   5.320  15.880  0.00  0.00    +0.000 C 
BRANCH  15  16
ATOM     16  C   UNL     1       6.765   4.709  14.528  0.00  0.00    +0.000 A 
ATOM     17  C   UNL     1       5.781   3.817  14.149  0.00  0.00    +0.000 A 
ATOM     18  C   UNL     1       5.887   3.443  12.780  0.00  0.00    +0.000 A 
ATOM     19  C   UNL     1       6.945   4.065  12.155  0.00  0.00    +0.000 A 
ATOM     20  S   UNL     1       7.802   5.095  13.217  0.00  0.00    +0.000 S 
ENDBRANCH  15  16
ENDBRANCH  13  15
ENDBRANCH   1  13
TORSDOF 6
ENDMDL
MODEL 2
REMARK VINA RESULT:      -6.3      0.233      1.062
REMARK  Name = 
REMARK  11 active torsions:
REMARK  status: ('A' for Active; 'I' for Inactive)
REMARK    1  A    between atoms: C_1  and  C_2
REMARK    2  A    between atoms: C_2  and  C_3
REMARK    3  A    between atoms: C_2  and  C_4
REMARK    4  A    between atoms: C_2  and  C_5
REMARK    5  A    between atoms: C_5  and  N_6
REMARK    6  A    between atoms: C_7  and  C_9
REMARK    7  A    between atoms: C_9  and  C_10
REMARK    8  A    between atoms: C_9  and  C_11
REMARK    9  A    between atoms: C_9  and  N_12
REMARK   10  A    between atoms: N_12  and  C_13
REMARK   11  A    between atoms: C_13  and  C_14
REMARK                            x       y       z     vdW  Elec       q    Type
REMARK                         _______ _______ _______ _____ _____    ______ ____
ROOT
ATOM      1  C   UNL     1       5.339   4.824  17.610  0.00  0.00    +0.000 C 
ATOM      2  C   UNL     1       4.660   6.011  16.906  0.00  0.00    +0.000 C 
ATOM      3  C   UNL     1       6.022   5.332  18.895  0.00  0.00    +0.000 C 
ENDROOT
BRANCH   1   5
ATOM      4  N   UNL     1       4.210   3.439  19.335  0.00  0.00    +0.000 N 
ATOM      5  C   UNL     1       4.261   3.768  17.993  0.00  0.00    +0.000 C 
ATOM      6  O   UNL     1       3.509   3.259  17.166  0.00  0.00    +0.000 OA
ATOM      7  H   UNL     1       4.875   3.859  19.971  0.00  0.00    +0.000 HD
BRANCH   4   8
ATOM      8  C   UNL     1       3.229   2.513  19.868  0.00  0.00    +0.000 C 
BRANCH   8  10
ATOM      9  C   UNL     1       2.330   4.712  20.740  0.00  0.00    +0.000 C 
ATOM     10  C   UNL     1       2.008   3.229  20.498  0.00  0.00    +0.000 C 
ATOM     11  C   UNL     1       1.616   2.569  21.829  0.00  0.00    +0.000 C 
ATOM     12  C   UNL     1       0.815   3.139  19.527  0.00  0.00    +0.000 C 
ENDBRANCH   8  10
ENDBRANCH   4   8
ENDBRANCH   1   5
BRANCH   1  13
ATOM     13  N   UNL     1       6.398   4.219  16.759  0.00  0.00    +0.000 NA
ATOM     14  H   UNL     1       6.026   3.429  16.239  0.00  0.00    +0.000 HD
BRANCH  13  15
ATOM     15  C   UNL     1       7.005   5.146  15.799  0.00  0.00    +0.000 C 
BRANCH  15  16
ATOM     16  C   UNL     1       6.817   4.618  14.408  0.00  0.00    +0.000 A 
ATOM     17  C   UNL     1       5.862   3.728  13.955  0.00  0.00    +0.000 A 
ATOM     18  C   UNL     1       5.998   3.446  12.567  0.00  0.00    +0.000 A 
ATOM     19  C   UNL     1       7.048   4.134  12.001  0.00  0.00    +0.000 A 
ATOM     20  S   UNL     1       7.862   5.114  13.141  0.00  0.00    +0.000 S 
ENDBRANCH  15  16
ENDBRANCH  13  15
ENDBRANCH   1  13
TORSDOF 6
ENDMDL
MODEL 3
REMARK VINA RESULT:      -6.2      1.211      1.743
REMARK  Name = 
REMARK  11 active torsions:
REMARK  status: ('A' for Active; 'I' for Inactive)
REMARK    1  A    between atoms: C_1  and  C_2
REMARK    2  A    between atoms: C_2  and  C_3
REMARK    3  A    between atoms: C_2  and  C_4
REMARK    4  A    between atoms: C_2  and  C_5
REMARK    5  A    between atoms: C_5  and  N_6
REMARK    6  A    between atoms: C_7  and  C_9
REMARK    7  A    between atoms: C_9  and  C_10
REMARK    8  A    between atoms: C_9  and  C_11
REMARK    9  A    between atoms: C_9  and  N_12
REMARK   10  A    between atoms: N_12  and  C_13
REMARK   11  A    between atoms: C_13  and  C_14
REMARK                            x       y       z     vdW  Elec       q    Type
REMARK                         _______ _______ _______ _____ _____    ______ ____
ROOT
ATOM      1  C   UNL     1       6.146   4.962  17.782  0.00  0.00    +0.000 C 
ATOM      2  C   UNL     1       5.426   6.287  17.479  0.00  0.00    +0.000 C 
ATOM      3  C   UNL     1       7.408   5.262  18.614  0.00  0.00    +0.000 C 
ENDROOT
BRANCH   1   5
ATOM      4  N   UNL     1       4.116   3.537  17.914  0.00  0.00    +0.000 N 
ATOM      5  C   UNL     1       5.201   4.041  18.608  0.00  0.00    +0.000 C 
ATOM      6  O   UNL     1       5.399   3.779  19.791  0.00  0.00    +0.000 OA
ATOM      7  H   UNL     1       3.978   3.811  16.951  0.00  0.00    +0.000 HD
BRANCH   4   8
ATOM      8  C   UNL     1       3.169   2.620  18.519  0.00  0.00    +0.000 C 
BRANCH   8  10
ATOM      9  C   UNL     1       1.815   3.945  20.198  0.00  0.00    +0.000 C 
ATOM     10  C   UNL     1       1.798   3.280  18.812  0.00  0.00    +0.000 C 
ATOM     11  C   UNL     1       0.669   2.239  18.760  0.00  0.00    +0.000 C 
ATOM     12  C   UNL     1       1.524   4.364  17.751  0.00  0.00    +0.000 C 
ENDBRANCH   8  10
ENDBRANCH   4   8
ENDBRANCH   1   5
BRANCH   1  13
ATOM     13  N   UNL     1       6.592   4.286  16.534  0.00  0.00    +0.000 NA
ATOM     14  H   UNL     1       5.835   3.734  16.141  0.00  0.00    +0.000 HD
BRANCH  13  15
ATOM     15  C   UNL     1       7.075   5.197  15.493  0.00  0.00    +0.000 C 
BRANCH  15  16
ATOM     16  C   UNL     1       6.815   4.596  14.143  0.00  0.00    +0.000 A 
ATOM     17  C   UNL     1       5.818   3.709  13.782  0.00  0.00    +0.000 A 
ATOM     18  C   UNL     1       5.889   3.344  12.409  0.00  0.00    +0.000 A 
ATOM     19  C   UNL     1       6.933   3.967  11.762  0.00  0.00    +0.000 A 
ATOM     20  S   UNL     1       7.819   4.988  12.809  0.00  0.00    +0.000 S 
ENDBRANCH  15  16
ENDBRANCH  13  15
ENDBRANCH   1  13
TORSDOF 6
ENDMDL
MODEL 4
REMARK VINA RESULT:      -6.2      1.082      1.472
REMARK  Name = 
REMARK  11 active torsions:
REMARK  status: ('A' for Active; 'I' for Inactive)
REMARK    1  A    between atoms: C_1  and  C_2
REMARK    2  A    between atoms: C_2  and  C_3
REMARK    3  A    between atoms: C_2  and  C_4
REMARK    4  A    between atoms: C_2  and  C_5
REMARK    5  A    between atoms: C_5  and  N_6
REMARK    6  A    between atoms: C_7  and  C_9
REMARK    7  A    between atoms: C_9  and  C_10
REMARK    8  A    between atoms: C_9  and  C_11
REMARK    9  A    between atoms: C_9  and  N_12
REMARK   10  A    between atoms: N_12  and  C_13
REMARK   11  A    between atoms: C_13  and  C_14
REMARK                            x       y       z     vdW  Elec       q    Type
REMARK                         _______ _______ _______ _____ _____    ______ ____
ROOT
ATOM      1  C   UNL     1       5.303   5.708  17.513  0.00  0.00    +0.000 C 
ATOM      2  C   UNL     1       4.176   6.755  17.527  0.00  0.00    +0.000 C 
ATOM      3  C   UNL     1       6.641   6.414  17.808  0.00  0.00    +0.000 C 
ENDROOT
BRANCH   1   5
ATOM      4  N   UNL     1       3.723   4.221  18.721  0.00  0.00    +0.000 N 
ATOM      5  C   UNL     1       5.034   4.648  18.622  0.00  0.00    +0.000 C 
ATOM      6  O   UNL     1       5.919   4.222  19.359  0.00  0.00    +0.000 OA
ATOM      7  H   UNL     1       3.024   4.629  18.115  0.00  0.00    +0.000 HD
BRANCH   4   8
ATOM      8  C   UNL     1       3.312   3.199  19.665  0.00  0.00    +0.000 C 
BRANCH   8  10
ATOM      9  C   UNL     1       1.937   5.094  20.626  0.00  0.00    +0.000 C 
ATOM     10  C   UNL     1       2.016   3.571  20.428  0.00  0.00    +0.000 C 
ATOM     11  C   UNL     1       1.971   2.877  21.798  0.00  0.00    +0.000 C 
ATOM     12  C   UNL     1       0.797   3.121  19.601  0.00  0.00    +0.000 C 
ENDBRANCH   8  10
ENDBRANCH   4   8
ENDBRANCH   1   5
BRANCH   1  13
ATOM     13  N   UNL     1       5.431   5.063  16.179  0.00  0.00    +0.000 NA
ATOM     14  H   UNL     1       4.708   5.404  15.550  0.00  0.00    +0.000 HD
BRANCH  13  15
ATOM     15  C   UNL     1       6.728   5.268  15.529  0.00  0.00    +0.000 C 
BRANCH  15  16
ATOM     16  C   UNL     1       6.704   4.657  14.159  0.00  0.00    +0.000 A 
ATOM     17  C   UNL     1       5.850   3.685  13.675  0.00  0.00    +0.000 A 
ATOM     18  C   UNL     1       6.132   3.341  12.323  0.00  0.00    +0.000 A 
ATOM     19  C   UNL     1       7.188   4.064  11.816  0.00  0.00    +0.000 A 
ATOM     20  S   UNL     1       7.831   5.154  12.966  0.00  0.00    +0.000 S 
ENDBRANCH  15  16
ENDBRANCH  13  15
ENDBRANCH   1  13
TORSDOF 6
ENDMDL
MODEL 5
REMARK VINA RESULT:      -6.2      1.496      1.945
REMARK  Name = 
REMARK  11 active torsions:
REMARK  status: ('A' for Active; 'I' for Inactive)
REMARK    1  A    between atoms: C_1  and  C_2
REMARK    2  A    between atoms: C_2  and  C_3
REMARK    3  A    between atoms: C_2  and  C_4
REMARK    4  A    between atoms: C_2  and  C_5
REMARK    5  A    between atoms: C_5  and  N_6
REMARK    6  A    between atoms: C_7  and  C_9
REMARK    7  A    between atoms: C_9  and  C_10
REMARK    8  A    between atoms: C_9  and  C_11
REMARK    9  A    between atoms: C_9  and  N_12
REMARK   10  A    between atoms: N_12  and  C_13
REMARK   11  A    between atoms: C_13  and  C_14
REMARK                            x       y       z     vdW  Elec       q    Type
REMARK                         _______ _______ _______ _____ _____    ______ ____
ROOT
ATOM      1  C   UNL     1       6.239   5.818  17.419  0.00  0.00    +0.000 C 
ATOM      2  C   UNL     1       5.265   6.768  16.701  0.00  0.00    +0.000 C 
ATOM      3  C   UNL     1       7.426   6.638  17.961  0.00  0.00    +0.000 C 
ENDROOT
BRANCH   1   5
ATOM      4  N   UNL     1       4.187   5.509  18.783  0.00  0.00    +0.000 N 
ATOM      5  C   UNL     1       5.508   5.135  18.611  0.00  0.00    +0.000 C 
ATOM      6  O   UNL     1       6.059   4.325  19.351  0.00  0.00    +0.000 OA
ATOM      7  H   UNL     1       3.789   6.207  18.169  0.00  0.00    +0.000 HD
BRANCH   4   8
ATOM      8  C   UNL     1       3.347   4.928  19.813  0.00  0.00    +0.000 C 
BRANCH   8  10
ATOM      9  C   UNL     1       1.023   3.993  20.178  0.00  0.00    +0.000 C 
ATOM     10  C   UNL     1       2.239   4.012  19.236  0.00  0.00    +0.000 C 
ATOM     11  C   UNL     1       2.760   2.578  19.050  0.00  0.00    +0.000 C 
ATOM     12  C   UNL     1       1.791   4.561  17.868  0.00  0.00    +0.000 C 
ENDBRANCH   8  10
ENDBRANCH   4   8
ENDBRANCH   1   5
BRANCH   1  13
ATOM     13  N   UNL     1       6.797   4.803  16.484  0.00  0.00    +0.000 NA
ATOM     14  H   UNL     1       7.383   4.143  16.988  0.00  0.00    +0.000 HD
BRANCH  13  15
ATOM     15  C   UNL     1       5.786   4.040  15.747  0.00  0.00    +0.000 C 
BRANCH  15  16
ATOM     16  C   UNL     1       6.137   4.026  14.288  0.00  0.00    +0.000 A 
ATOM     17  C   UNL     1       5.492   3.361  13.263  0.00  0.00    +0.000 A 
ATOM     18  C   UNL     1       6.117   3.573  12.002  0.00  0.00    +0.000 A 
ATOM     19  C   UNL     1       7.216   4.396  12.103  0.00  0.00    +0.000 A 
ATOM     20  S   UNL     1       7.487   4.912  13.710  0.00  0.00    +0.000 S 
ENDBRANCH  15  16
ENDBRANCH  13  15
ENDBRANCH   1  13
TORSDOF 6
ENDMDL
MODEL 6
REMARK VINA RESULT:      -6.1      1.672      1.991
REMARK  Name = 
REMARK  11 active torsions:
REMARK  status: ('A' for Active; 'I' for Inactive)
REMARK    1  A    between atoms: C_1  and  C_2
REMARK    2  A    between atoms: C_2  and  C_3
REMARK    3  A    between atoms: C_2  and  C_4
REMARK    4  A    between atoms: C_2  and  C_5
REMARK    5  A    between atoms: C_5  and  N_6
REMARK    6  A    between atoms: C_7  and  C_9
REMARK    7  A    between atoms: C_9  and  C_10
REMARK    8  A    between atoms: C_9  and  C_11
REMARK    9  A    between atoms: C_9  and  N_12
REMARK   10  A    between atoms: N_12  and  C_13
REMARK   11  A    between atoms: C_13  and  C_14
REMARK                            x       y       z     vdW  Elec       q    Type
REMARK                         _______ _______ _______ _____ _____    ______ ____
ROOT
ATOM      1  C   UNL     1       6.211   5.846  17.457  0.00  0.00    +0.000 C 
ATOM      2  C   UNL     1       5.177   6.642  16.642  0.00  0.00    +0.000 C 
ATOM      3  C   UNL     1       7.370   6.786  17.843  0.00  0.00    +0.000 C 
ENDROOT
BRANCH   1   5
ATOM      4  N   UNL     1       4.162   5.201  18.702  0.00  0.00    +0.000 N 
ATOM      5  C   UNL     1       5.539   5.309  18.754  0.00  0.00    +0.000 C 
ATOM      6  O   UNL     1       6.182   5.006  19.756  0.00  0.00    +0.000 OA
ATOM      7  H   UNL     1       3.675   5.498  17.867  0.00  0.00    +0.000 HD
BRANCH   4   8
ATOM      8  C   UNL     1       3.386   4.668  19.806  0.00  0.00    +0.000 C 
BRANCH   8  10
ATOM      9  C   UNL     1       1.696   4.363  17.947  0.00  0.00    +0.000 C 
ATOM     10  C   UNL     1       2.139   3.877  19.337  0.00  0.00    +0.000 C 
ATOM     11  C   UNL     1       0.979   4.048  20.330  0.00  0.00    +0.000 C 
ATOM     12  C   UNL     1       2.497   2.381  19.242  0.00  0.00    +0.000 C 
ENDBRANCH   8  10
ENDBRANCH   4   8
ENDBRANCH   1   5
BRANCH   1  13
ATOM     13  N   UNL     1       6.794   4.734  16.659  0.00  0.00    +0.000 NA
ATOM     14  H   UNL     1       7.070   3.969  17.268  0.00  0.00    +0.000 HD
BRANCH  13  15
ATOM     15  C   UNL     1       5.899   4.193  15.632  0.00  0.00    +0.000 C 
BRANCH  15  16
ATOM     16  C   UNL     1       6.519   4.383  14.279  0.00  0.00    +0.000 A 
ATOM     17  C   UNL     1       7.509   5.275  13.912  0.00  0.00    +0.000 A 
ATOM     18  C   UNL     1       7.842   5.177  12.532  0.00  0.00    +0.000 A 
ATOM     19  C   UNL     1       7.101   4.211  11.889  0.00  0.00    +0.000 A 
ATOM     20  S   UNL     1       6.013   3.425  12.948  0.00  0.00    +0.000 S 
ENDBRANCH  15  16
ENDBRANCH  13  15
ENDBRANCH   1  13
TORSDOF 6
ENDMDL
MODEL 7
REMARK VINA RESULT:      -6.1      3.124      6.233
REMARK  Name = 
REMARK  11 active torsions:
REMARK  status: ('A' for Active; 'I' for Inactive)
REMARK    1  A    between atoms: C_1  and  C_2
REMARK    2  A    between atoms: C_2  and  C_3
REMARK    3  A    between atoms: C_2  and  C_4
REMARK    4  A    between atoms: C_2  and  C_5
REMARK    5  A    between atoms: C_5  and  N_6
REMARK    6  A    between atoms: C_7  and  C_9
REMARK    7  A    between atoms: C_9  and  C_10
REMARK    8  A    between atoms: C_9  and  C_11
REMARK    9  A    between atoms: C_9  and  N_12
REMARK   10  A    between atoms: N_12  and  C_13
REMARK   11  A    between atoms: C_13  and  C_14
REMARK                            x       y       z     vdW  Elec       q    Type
REMARK                         _______ _______ _______ _____ _____    ______ ____
ROOT
ATOM      1  C   UNL     1       2.699   3.208  19.089  0.00  0.00    +0.000 C 
ATOM      2  C   UNL     1       1.815   1.952  19.181  0.00  0.00    +0.000 C 
ATOM      3  C   UNL     1       3.934   3.013  19.990  0.00  0.00    +0.000 C 
ENDROOT
BRANCH   1   5
ATOM      4  N   UNL     1       4.538   3.518  17.449  0.00  0.00    +0.000 N 
ATOM      5  C   UNL     1       3.170   3.398  17.618  0.00  0.00    +0.000 C 
ATOM      6  O   UNL     1       2.388   3.442  16.672  0.00  0.00    +0.000 OA
ATOM      7  H   UNL     1       5.137   3.512  18.263  0.00  0.00    +0.000 HD
BRANCH   4   8
ATOM      8  C   UNL     1       5.147   3.648  16.138  0.00  0.00    +0.000 C 
BRANCH   8  10
ATOM      9  C   UNL     1       7.210   4.656  17.202  0.00  0.00    +0.000 C 
ATOM     10  C   UNL     1       6.182   4.798  16.068  0.00  0.00    +0.000 C 
ATOM     11  C   UNL     1       5.486   6.164  16.181  0.00  0.00    +0.000 C 
ATOM     12  C   UNL     1       6.925   4.727  14.721  0.00  0.00    +0.000 C 
ENDBRANCH   8  10
ENDBRANCH   4   8
ENDBRANCH   1   5
BRANCH   1  13
ATOM     13  N   UNL     1       1.983   4.415  19.580  0.00  0.00    +0.000 NA
ATOM     14  H   UNL     1       1.364   4.172  20.349  0.00  0.00    +0.000 HD
BRANCH  13  15
ATOM     15  C   UNL     1       2.861   5.498  20.032  0.00  0.00    +0.000 C 
BRANCH  15  16
ATOM     16  C   UNL     1       2.413   6.793  19.421  0.00  0.00    +0.000 A 
ATOM     17  C   UNL     1       2.529   7.200  18.105  0.00  0.00    +0.000 A 
ATOM     18  C   UNL     1       2.000   8.503  17.893  0.00  0.00    +0.000 A 
ATOM     19  C   UNL     1       1.491   9.049  19.050  0.00  0.00    +0.000 A 
ATOM     20  S   UNL     1       1.651   7.991  20.383  0.00  0.00    +0.000 S 
ENDBRANCH  15  16
ENDBRANCH  13  15
ENDBRANCH   1  13
TORSDOF 6
ENDMDL
MODEL 8
REMARK VINA RESULT:      -6.0      1.503      2.024
REMARK  Name = 
REMARK  11 active torsions:
REMARK  status: ('A' for Active; 'I' for Inactive)
REMARK    1  A    between atoms: C_1  and  C_2
REMARK    2  A    between atoms: C_2  and  C_3
REMARK    3  A    between atoms: C_2  and  C_4
REMARK    4  A    between atoms: C_2  and  C_5
REMARK    5  A    between atoms: C_5  and  N_6
REMARK    6  A    between atoms: C_7  and  C_9
REMARK    7  A    between atoms: C_9  and  C_10
REMARK    8  A    between atoms: C_9  and  C_11
REMARK    9  A    between atoms: C_9  and  N_12
REMARK   10  A    between atoms: N_12  and  C_13
REMARK   11  A    between atoms: C_13  and  C_14
REMARK                            x       y       z     vdW  Elec       q    Type
REMARK                         _______ _______ _______ _____ _____    ______ ____
ROOT
ATOM      1  C   UNL     1       6.193   5.279  17.457  0.00  0.00    +0.000 C 
ATOM      2  C   UNL     1       5.076   6.079  16.766  0.00  0.00    +0.000 C 
ATOM      3  C   UNL     1       7.359   6.233  17.783  0.00  0.00    +0.000 C 
ENDROOT
BRANCH   1   5
ATOM      4  N   UNL     1       4.507   3.902  18.653  0.00  0.00    +0.000 N 
ATOM      5  C   UNL     1       5.648   4.673  18.783  0.00  0.00    +0.000 C 
ATOM      6  O   UNL     1       6.186   4.866  19.870  0.00  0.00    +0.000 OA
ATOM      7  H   UNL     1       4.082   3.803  17.741  0.00  0.00    +0.000 HD
BRANCH   4   8
ATOM      8  C   UNL     1       3.901   3.221  19.781  0.00  0.00    +0.000 C 
BRANCH   8  10
ATOM      9  C   UNL     1       2.008   3.893  21.320  0.00  0.00    +0.000 C 
ATOM     10  C   UNL     1       2.377   3.477  19.887  0.00  0.00    +0.000 C 
ATOM     11  C   UNL     1       1.585   2.216  19.504  0.00  0.00    +0.000 C 
ATOM     12  C   UNL     1       1.989   4.619  18.929  0.00  0.00    +0.000 C 
ENDBRANCH   8  10
ENDBRANCH   4   8
ENDBRANCH   1   5
BRANCH   1  13
ATOM     13  N   UNL     1       6.731   4.215  16.567  0.00  0.00    +0.000 NA
ATOM     14  H   UNL     1       6.923   3.371  17.101  0.00  0.00    +0.000 HD
BRANCH  13  15
ATOM     15  C   UNL     1       5.849   3.854  15.454  0.00  0.00    +0.000 C 
BRANCH  15  16
ATOM     16  C   UNL     1       6.505   4.224  14.156  0.00  0.00    +0.000 A 
ATOM     17  C   UNL     1       7.457   5.200  13.930  0.00  0.00    +0.000 A 
ATOM     18  C   UNL     1       7.843   5.273  12.562  0.00  0.00    +0.000 A 
ATOM     19  C   UNL     1       7.179   4.349  11.788  0.00  0.00    +0.000 A 
ATOM     20  S   UNL     1       6.098   3.397  12.709  0.00  0.00    +0.000 S 
ENDBRANCH  15  16
ENDBRANCH  13  15
ENDBRANCH   1  13
TORSDOF 6
ENDMDL
MODEL 9
REMARK VINA RESULT:      -6.0      1.226      1.659
REMARK  Name = 
REMARK  11 active torsions:
REMARK  status: ('A' for Active; 'I' for Inactive)
REMARK    1  A    between atoms: C_1  and  C_2
REMARK    2  A    between atoms: C_2  and  C_3
REMARK    3  A    between atoms: C_2  and  C_4
REMARK    4  A    between atoms: C_2  and  C_5
REMARK    5  A    between atoms: C_5  and  N_6
REMARK    6  A    between atoms: C_7  and  C_9
REMARK    7  A    between atoms: C_9  and  C_10
REMARK    8  A    between atoms: C_9  and  C_11
REMARK    9  A    between atoms: C_9  and  N_12
REMARK   10  A    between atoms: N_12  and  C_13
REMARK   11  A    between atoms: C_13  and  C_14
REMARK                            x       y       z     vdW  Elec       q    Type
REMARK                         _______ _______ _______ _____ _____    ______ ____
ROOT
ATOM      1  C   UNL     1       5.974   4.975  17.590  0.00  0.00    +0.000 C 
ATOM      2  C   UNL     1       5.124   6.176  17.140  0.00  0.00    +0.000 C 
ATOM      3  C   UNL     1       7.425   5.447  17.808  0.00  0.00    +0.000 C 
ENDROOT
BRANCH   1   5
ATOM      4  N   UNL     1       4.233   3.708  18.828  0.00  0.00    +0.000 N 
ATOM      5  C   UNL     1       5.413   4.423  18.932  0.00  0.00    +0.000 C 
ATOM      6  O   UNL     1       5.971   4.608  20.010  0.00  0.00    +0.000 OA
ATOM      7  H   UNL     1       3.793   3.615  17.922  0.00  0.00    +0.000 HD
BRANCH   4   8
ATOM      8  C   UNL     1       3.605   3.080  19.975  0.00  0.00    +0.000 C 
BRANCH   8  10
ATOM      9  C   UNL     1       1.504   2.772  21.352  0.00  0.00    +0.000 C 
ATOM     10  C   UNL     1       2.146   3.553  20.194  0.00  0.00    +0.000 C 
ATOM     11  C   UNL     1       1.311   3.352  18.920  0.00  0.00    +0.000 C 
ATOM     12  C   UNL     1       2.150   5.051  20.556  0.00  0.00    +0.000 C 
ENDBRANCH   8  10
ENDBRANCH   4   8
ENDBRANCH   1   5
BRANCH   1  13
ATOM     13  N   UNL     1       6.009   3.913  16.549  0.00  0.00    +0.000 NA
ATOM     14  H   UNL     1       5.783   3.010  16.958  0.00  0.00    +0.000 HD
BRANCH  13  15
ATOM     15  C   UNL     1       5.098   4.138  15.423  0.00  0.00    +0.000 C 
BRANCH  15  16
ATOM     16  C   UNL     1       5.877   4.128  14.141  0.00  0.00    +0.000 A 
ATOM     17  C   UNL     1       5.599   3.432  12.980  0.00  0.00    +0.000 A 
ATOM     18  C   UNL     1       6.571   3.658  11.966  0.00  0.00    +0.000 A 
ATOM     19  C   UNL     1       7.559   4.523  12.382  0.00  0.00    +0.000 A 
ATOM     20  S   UNL     1       7.309   5.059  13.986  0.00  0.00    +0.000 S 
ENDBRANCH  15  16
ENDBRANCH  13  15
ENDBRANCH   1  13
TORSDOF 6
ENDMDL
