MODEL 1
REMARK VINA RESULT:      -8.3      0.000      0.000
REMARK  Name = 
REMARK  7 active torsions:
REMARK  status: ('A' for Active; 'I' for Inactive)
REMARK    1  A    between atoms: C_1  and  C_2
REMARK    2  A    between atoms: C_2  and  O_3
REMARK    3  A    between atoms: C_2  and  C_4
REMARK    4  A    between atoms: C_8  and  C_9
REMARK    5  A    between atoms: C_9  and  O_11
REMARK    6  A    between atoms: C_12  and  C_13
REMARK    7  A    between atoms: C_15  and  C_16
REMARK                            x       y       z     vdW  Elec       q    Type
REMARK                         _______ _______ _______ _____ _____    ______ ____
ROOT
ATOM      1  C   UNL     1       0.969  10.181  19.004  0.00  0.00    +0.000 A 
ATOM      2  C   UNL     1      -0.350  10.165  18.530  0.00  0.00    +0.000 A 
ATOM      3  C   UNL     1      -1.044  11.355  18.241  0.00  0.00    +0.000 A 
ATOM      4  C   UNL     1      -0.356  12.549  18.477  0.00  0.00    +0.000 A 
ATOM      5  O   UNL     1      -0.825  13.811  18.242  0.00  0.00    +0.000 OA
ATOM      6  C   UNL     1       0.143  14.684  18.617  0.00  0.00    +0.000 A 
ATOM      7  C   UNL     1       0.040  16.072  18.543  0.00  0.00    +0.000 A 
ATOM      8  C   UNL     1       1.144  16.803  18.990  0.00  0.00    +0.000 A 
ATOM      9  C   UNL     1       2.285  16.158  19.472  0.00  0.00    +0.000 A 
ATOM     10  C   UNL     1       2.362  14.756  19.524  0.00  0.00    +0.000 A 
ATOM     11  C   UNL     1       1.258  14.001  19.087  0.00  0.00    +0.000 A 
ATOM     12  C   UNL     1       0.941  12.612  18.983  0.00  0.00    +0.000 A 
ATOM     13  C   UNL     1       1.620  11.403  19.247  0.00  0.00    +0.000 A 
ENDROOT
BRANCH   1  19
ATOM     14  C   UNL     1       2.347   5.760  18.046  0.00  0.00    +0.000 C 
ATOM     15  C   UNL     1       1.975   5.748  19.535  0.00  0.00    +0.000 C 
ATOM     16  O   UNL     1       1.310   5.077  20.293  0.00  0.00    +0.000 OA
ATOM     17  N   UNL     1       2.583   6.946  19.776  0.00  0.00    +0.000 N 
ATOM     18  C   UNL     1       1.818   8.047  20.125  0.00  0.00    +0.000 C 
ATOM     19  C   UNL     1       1.708   8.924  19.114  0.00  0.00    +0.000 C 
ATOM     20  C   UNL     1       2.438   8.440  17.887  0.00  0.00    +0.000 C 
ATOM     21  C   UNL     1       3.039   7.120  18.361  0.00  0.00    +0.000 C 
BRANCH  14  23
ATOM     22  C   UNL     1       2.372   3.344  17.369  0.00  0.00    +0.000 C 
ATOM     23  C   UNL     1       3.202   4.608  17.543  0.00  0.00    +0.000 C 
BRANCH  23  24
ATOM     24  O   UNL     1       4.292   4.363  18.428  0.00  0.00    +0.000 OA
ATOM     25  H   UNL     1       3.943   4.091  19.296  0.00  0.00    +0.000 HD
ENDBRANCH  23  24
ENDBRANCH  14  23
BRANCH  18  26
ATOM     26  C   UNL     1       1.202   8.178  21.480  0.00  0.00    +0.000 C 
ATOM     27  O   UNL     1       0.042   7.882  21.723  0.00  0.00    +0.000 OA
BRANCH  26  28
ATOM     28  O   UNL     1       2.019   8.706  22.415  0.00  0.00    +0.000 OA
ATOM     29  H   UNL     1       2.419   8.059  23.038  0.00  0.00    +0.000 HD
ENDBRANCH  26  28
ENDBRANCH  18  26
ENDBRANCH   1  19
BRANCH   3  30
ATOM     30  C   UNL     1      -2.422  11.329  17.658  0.00  0.00    +0.000 C 
ATOM     31  N   UNL     1      -3.421  11.357  18.478  0.00  0.00    +0.000 NA
ATOM     32  C   UNL     1      -4.780  11.301  17.926  0.00  0.00    +0.000 C 
ATOM     33  C   UNL     1      -4.871  11.822  16.501  0.00  0.00    +0.000 C 
ATOM     34  C   UNL     1      -3.841  11.100  15.659  0.00  0.00    +0.000 C 
ATOM     35  N   UNL     1      -2.563  11.272  16.292  0.00  0.00    +0.000 N 
ATOM     36  H   UNL     1      -1.734  11.122  15.723  0.00  0.00    +0.000 HD
ENDBRANCH   3  30
TORSDOF 6
ENDMDL
MODEL 2
REMARK VINA RESULT:      -8.2      0.672      1.105
REMARK  Name = 
REMARK  7 active torsions:
REMARK  status: ('A' for Active; 'I' for Inactive)
REMARK    1  A    between atoms: C_1  and  C_2
REMARK    2  A    between atoms: C_2  and  O_3
REMARK    3  A    between atoms: C_2  and  C_4
REMARK    4  A    between atoms: C_8  and  C_9
REMARK    5  A    between atoms: C_9  and  O_11
REMARK    6  A    between atoms: C_12  and  C_13
REMARK    7  A    between atoms: C_15  and  C_16
REMARK                            x       y       z     vdW  Elec       q    Type
REMARK                         _______ _______ _______ _____ _____    ______ ____
ROOT
ATOM      1  C   UNL     1       0.882  10.323  19.136  0.00  0.00    +0.000 A 
ATOM      2  C   UNL     1      -0.461  10.332  18.736  0.00  0.00    +0.000 A 
ATOM      3  C   UNL     1      -1.132  11.530  18.429  0.00  0.00    +0.000 A 
ATOM      4  C   UNL     1      -0.394  12.710  18.572  0.00  0.00    +0.000 A 
ATOM      5  O   UNL     1      -0.835  13.976  18.304  0.00  0.00    +0.000 OA
ATOM      6  C   UNL     1       0.180  14.831  18.586  0.00  0.00    +0.000 A 
ATOM      7  C   UNL     1       0.117  16.216  18.453  0.00  0.00    +0.000 A 
ATOM      8  C   UNL     1       1.266  16.928  18.805  0.00  0.00    +0.000 A 
ATOM      9  C   UNL     1       2.411  16.267  19.255  0.00  0.00    +0.000 A 
ATOM     10  C   UNL     1       2.447  14.867  19.368  0.00  0.00    +0.000 A 
ATOM     11  C   UNL     1       1.297  14.132  19.026  0.00  0.00    +0.000 A 
ATOM     12  C   UNL     1       0.931  12.750  19.004  0.00  0.00    +0.000 A 
ATOM     13  C   UNL     1       1.584  11.532  19.288  0.00  0.00    +0.000 A 
ENDROOT
BRANCH   1  19
ATOM     14  C   UNL     1       2.046   5.811  18.331  0.00  0.00    +0.000 C 
ATOM     15  C   UNL     1       1.777   5.890  19.840  0.00  0.00    +0.000 C 
ATOM     16  O   UNL     1       1.144   5.285  20.676  0.00  0.00    +0.000 OA
ATOM     17  N   UNL     1       2.440   7.077  19.974  0.00  0.00    +0.000 N 
ATOM     18  C   UNL     1       1.736   8.222  20.313  0.00  0.00    +0.000 C 
ATOM     19  C   UNL     1       1.586   9.048  19.265  0.00  0.00    +0.000 C 
ATOM     20  C   UNL     1       2.214   8.475  18.020  0.00  0.00    +0.000 C 
ATOM     21  C   UNL     1       2.803   7.161  18.524  0.00  0.00    +0.000 C 
BRANCH  14  23
ATOM     22  C   UNL     1       4.054   5.033  17.043  0.00  0.00    +0.000 C 
ATOM     23  C   UNL     1       2.827   4.605  17.835  0.00  0.00    +0.000 C 
BRANCH  23  24
ATOM     24  O   UNL     1       1.999   3.760  17.040  0.00  0.00    +0.000 OA
ATOM     25  H   UNL     1       2.482   3.507  16.232  0.00  0.00    +0.000 HD
ENDBRANCH  23  24
ENDBRANCH  14  23
BRANCH  18  26
ATOM     26  C   UNL     1       1.220   8.445  21.697  0.00  0.00    +0.000 C 
ATOM     27  O   UNL     1       0.073   8.196  22.036  0.00  0.00    +0.000 OA
BRANCH  26  28
ATOM     28  O   UNL     1       2.113   9.002  22.542  0.00  0.00    +0.000 OA
ATOM     29  H   UNL     1       2.959   8.512  22.642  0.00  0.00    +0.000 HD
ENDBRANCH  26  28
ENDBRANCH  18  26
ENDBRANCH   1  19
BRANCH   3  30
ATOM     30  C   UNL     1      -2.540  11.526  17.923  0.00  0.00    +0.000 C 
ATOM     31  N   UNL     1      -2.754  11.028  16.749  0.00  0.00    +0.000 NA
ATOM     32  C   UNL     1      -4.124  11.044  16.223  0.00  0.00    +0.000 C 
ATOM     33  C   UNL     1      -5.185  11.071  17.310  0.00  0.00    +0.000 C 
ATOM     34  C   UNL     1      -4.879  12.217  18.251  0.00  0.00    +0.000 C 
ATOM     35  N   UNL     1      -3.531  12.052  18.717  0.00  0.00    +0.000 N 
ATOM     36  H   UNL     1      -3.266  12.541  19.568  0.00  0.00    +0.000 HD
ENDBRANCH   3  30
TORSDOF 6
ENDMDL
MODEL 3
REMARK VINA RESULT:      -8.0      2.431      4.512
REMARK  Name = 
REMARK  7 active torsions:
REMARK  status: ('A' for Active; 'I' for Inactive)
REMARK    1  A    between atoms: C_1  and  C_2
REMARK    2  A    between atoms: C_2  and  O_3
REMARK    3  A    between atoms: C_2  and  C_4
REMARK    4  A    between atoms: C_8  and  C_9
REMARK    5  A    between atoms: C_9  and  O_11
REMARK    6  A    between atoms: C_12  and  C_13
REMARK    7  A    between atoms: C_15  and  C_16
REMARK                            x       y       z     vdW  Elec       q    Type
REMARK                         _______ _______ _______ _____ _____    ______ ____
ROOT
ATOM      1  C   UNL     1       1.208   9.028  18.555  0.00  0.00    +0.000 A 
ATOM      2  C   UNL     1       1.055   9.915  19.629  0.00  0.00    +0.000 A 
ATOM      3  C   UNL     1      -0.062  10.765  19.731  0.00  0.00    +0.000 A 
ATOM      4  C   UNL     1      -0.994  10.693  18.691  0.00  0.00    +0.000 A 
ATOM      5  O   UNL     1      -2.158  11.403  18.600  0.00  0.00    +0.000 OA
ATOM      6  C   UNL     1      -2.762  11.051  17.437  0.00  0.00    +0.000 A 
ATOM      7  C   UNL     1      -3.971  11.568  16.976  0.00  0.00    +0.000 A 
ATOM      8  C   UNL     1      -4.426  11.088  15.746  0.00  0.00    +0.000 A 
ATOM      9  C   UNL     1      -3.697  10.132  15.035  0.00  0.00    +0.000 A 
ATOM     10  C   UNL     1      -2.485   9.622  15.531  0.00  0.00    +0.000 A 
ATOM     11  C   UNL     1      -2.006  10.100  16.765  0.00  0.00    +0.000 A 
ATOM     12  C   UNL     1      -0.862   9.854  17.586  0.00  0.00    +0.000 A 
ATOM     13  C   UNL     1       0.260   9.000  17.519  0.00  0.00    +0.000 A 
ENDROOT
BRANCH   1  19
ATOM     14  C   UNL     1       4.062   5.544  17.111  0.00  0.00    +0.000 C 
ATOM     15  C   UNL     1       3.493   5.063  18.453  0.00  0.00    +0.000 C 
ATOM     16  O   UNL     1       2.972   4.068  18.907  0.00  0.00    +0.000 OA
ATOM     17  N   UNL     1       3.640   6.286  19.041  0.00  0.00    +0.000 N 
ATOM     18  C   UNL     1       2.518   7.008  19.414  0.00  0.00    +0.000 C 
ATOM     19  C   UNL     1       2.286   8.040  18.587  0.00  0.00    +0.000 C 
ATOM     20  C   UNL     1       3.310   8.097  17.481  0.00  0.00    +0.000 C 
ATOM     21  C   UNL     1       4.224   6.923  17.820  0.00  0.00    +0.000 C 
BRANCH  14  23
ATOM     22  C   UNL     1       5.540   5.134  15.126  0.00  0.00    +0.000 C 
ATOM     23  C   UNL     1       5.307   4.837  16.601  0.00  0.00    +0.000 C 
BRANCH  23  24
ATOM     24  O   UNL     1       5.212   3.431  16.810  0.00  0.00    +0.000 OA
ATOM     25  H   UNL     1       5.590   2.966  16.042  0.00  0.00    +0.000 HD
ENDBRANCH  23  24
ENDBRANCH  14  23
BRANCH  18  26
ATOM     26  C   UNL     1       1.696   6.625  20.601  0.00  0.00    +0.000 C 
ATOM     27  O   UNL     1       0.998   5.623  20.642  0.00  0.00    +0.000 OA
BRANCH  26  28
ATOM     28  O   UNL     1       1.739   7.511  21.619  0.00  0.00    +0.000 OA
ATOM     29  H   UNL     1       1.292   7.223  22.446  0.00  0.00    +0.000 HD
ENDBRANCH  26  28
ENDBRANCH  18  26
ENDBRANCH   1  19
BRANCH   3  30
ATOM     30  C   UNL     1      -0.260  11.650  20.921  0.00  0.00    +0.000 C 
ATOM     31  N   UNL     1       0.338  12.796  20.923  0.00  0.00    +0.000 NA
ATOM     32  C   UNL     1       0.180  13.665  22.095  0.00  0.00    +0.000 C 
ATOM     33  C   UNL     1      -1.104  13.407  22.865  0.00  0.00    +0.000 C 
ATOM     34  C   UNL     1      -1.183  11.929  23.186  0.00  0.00    +0.000 C 
ATOM     35  N   UNL     1      -1.057  11.208  21.951  0.00  0.00    +0.000 N 
ATOM     36  H   UNL     1      -1.385  10.246  21.933  0.00  0.00    +0.000 HD
ENDBRANCH   3  30
TORSDOF 6
ENDMDL
MODEL 4
REMARK VINA RESULT:      -7.8      2.086      4.589
REMARK  Name = 
REMARK  7 active torsions:
REMARK  status: ('A' for Active; 'I' for Inactive)
REMARK    1  A    between atoms: C_1  and  C_2
REMARK    2  A    between atoms: C_2  and  O_3
REMARK    3  A    between atoms: C_2  and  C_4
REMARK    4  A    between atoms: C_8  and  C_9
REMARK    5  A    between atoms: C_9  and  O_11
REMARK    6  A    between atoms: C_12  and  C_13
REMARK    7  A    between atoms: C_15  and  C_16
REMARK                            x       y       z     vdW  Elec       q    Type
REMARK                         _______ _______ _______ _____ _____    ______ ____
ROOT
ATOM      1  C   UNL     1       1.469   9.049  18.442  0.00  0.00    +0.000 A 
ATOM      2  C   UNL     1       1.608  10.156  19.290  0.00  0.00    +0.000 A 
ATOM      3  C   UNL     1       0.606  11.139  19.391  0.00  0.00    +0.000 A 
ATOM      4  C   UNL     1      -0.520  10.964  18.580  0.00  0.00    +0.000 A 
ATOM      5  O   UNL     1      -1.618  11.776  18.538  0.00  0.00    +0.000 OA
ATOM      6  C   UNL     1      -2.472  11.263  17.616  0.00  0.00    +0.000 A 
ATOM      7  C   UNL     1      -3.704  11.816  17.273  0.00  0.00    +0.000 A 
ATOM      8  C   UNL     1      -4.435  11.145  16.290  0.00  0.00    +0.000 A 
ATOM      9  C   UNL     1      -3.944   9.978  15.701  0.00  0.00    +0.000 A 
ATOM     10  C   UNL     1      -2.702   9.439  16.077  0.00  0.00    +0.000 A 
ATOM     11  C   UNL     1      -1.946  10.104  17.059  0.00  0.00    +0.000 A 
ATOM     12  C   UNL     1      -0.682   9.899  17.695  0.00  0.00    +0.000 A 
ATOM     13  C   UNL     1       0.330   8.919  17.628  0.00  0.00    +0.000 A 
ENDROOT
BRANCH   1  19
ATOM     14  C   UNL     1       4.029   5.310  17.089  0.00  0.00    +0.000 C 
ATOM     15  C   UNL     1       3.376   4.888  18.412  0.00  0.00    +0.000 C 
ATOM     16  O   UNL     1       2.750   3.948  18.849  0.00  0.00    +0.000 OA
ATOM     17  N   UNL     1       3.618   6.094  19.005  0.00  0.00    +0.000 N 
ATOM     18  C   UNL     1       2.557   6.918  19.342  0.00  0.00    +0.000 C 
ATOM     19  C   UNL     1       2.448   7.965  18.508  0.00  0.00    +0.000 C 
ATOM     20  C   UNL     1       3.507   7.923  17.435  0.00  0.00    +0.000 C 
ATOM     21  C   UNL     1       4.297   6.670  17.802  0.00  0.00    +0.000 C 
BRANCH  14  23
ATOM     22  C   UNL     1       5.419   4.626  15.115  0.00  0.00    +0.000 C 
ATOM     23  C   UNL     1       5.219   4.489  16.618  0.00  0.00    +0.000 C 
BRANCH  23  24
ATOM     24  O   UNL     1       5.058   3.118  16.970  0.00  0.00    +0.000 OA
ATOM     25  H   UNL     1       5.862   2.807  17.424  0.00  0.00    +0.000 HD
ENDBRANCH  23  24
ENDBRANCH  14  23
BRANCH  18  26
ATOM     26  C   UNL     1       1.665   6.617  20.502  0.00  0.00    +0.000 C 
ATOM     27  O   UNL     1       1.256   7.469  21.276  0.00  0.00    +0.000 OA
BRANCH  26  28
ATOM     28  O   UNL     1       1.386   5.306  20.665  0.00  0.00    +0.000 OA
ATOM     29  H   UNL     1       2.025   4.806  21.220  0.00  0.00    +0.000 HD
ENDBRANCH  26  28
ENDBRANCH  18  26
ENDBRANCH   1  19
BRANCH   3  30
ATOM     30  C   UNL     1       0.724  12.274  20.359  0.00  0.00    +0.000 C 
ATOM     31  N   UNL     1       1.826  12.949  20.359  0.00  0.00    +0.000 NA
ATOM     32  C   UNL     1       1.973  14.047  21.323  0.00  0.00    +0.000 C 
ATOM     33  C   UNL     1       0.645  14.639  21.765  0.00  0.00    +0.000 C 
ATOM     34  C   UNL     1      -0.245  13.515  22.251  0.00  0.00    +0.000 C 
ATOM     35  N   UNL     1      -0.330  12.541  21.199  0.00  0.00    +0.000 N 
ATOM     36  H   UNL     1      -1.107  11.886  21.228  0.00  0.00    +0.000 HD
ENDBRANCH   3  30
TORSDOF 6
ENDMDL
MODEL 5
REMARK VINA RESULT:      -7.8      2.684      8.476
REMARK  Name = 
REMARK  7 active torsions:
REMARK  status: ('A' for Active; 'I' for Inactive)
REMARK    1  A    between atoms: C_1  and  C_2
REMARK    2  A    between atoms: C_2  and  O_3
REMARK    3  A    between atoms: C_2  and  C_4
REMARK    4  A    between atoms: C_8  and  C_9
REMARK    5  A    between atoms: C_9  and  O_11
REMARK    6  A    between atoms: C_12  and  C_13
REMARK    7  A    between atoms: C_15  and  C_16
REMARK                            x       y       z     vdW  Elec       q    Type
REMARK                         _______ _______ _______ _____ _____    ______ ____
ROOT
ATOM      1  C   UNL     1       2.188   7.822  18.451  0.00  0.00    +0.000 A 
ATOM      2  C   UNL     1       1.861   6.709  19.236  0.00  0.00    +0.000 A 
ATOM      3  C   UNL     1       2.534   5.481  19.094  0.00  0.00    +0.000 A 
ATOM      4  C   UNL     1       3.526   5.427  18.110  0.00  0.00    +0.000 A 
ATOM      5  O   UNL     1       4.319   4.352  17.820  0.00  0.00    +0.000 OA
ATOM      6  C   UNL     1       5.136   4.709  16.797  0.00  0.00    +0.000 A 
ATOM      7  C   UNL     1       6.086   3.879  16.206  0.00  0.00    +0.000 A 
ATOM      8  C   UNL     1       6.824   4.427  15.155  0.00  0.00    +0.000 A 
ATOM      9  C   UNL     1       6.613   5.744  14.740  0.00  0.00    +0.000 A 
ATOM     10  C   UNL     1       5.655   6.560  15.363  0.00  0.00    +0.000 A 
ATOM     11  C   UNL     1       4.894   6.024  16.419  0.00  0.00    +0.000 A 
ATOM     12  C   UNL     1       3.858   6.498  17.281  0.00  0.00    +0.000 A 
ATOM     13  C   UNL     1       3.178   7.722  17.458  0.00  0.00    +0.000 A 
ENDROOT
BRANCH   1  19
ATOM     14  C   UNL     1       1.850  12.493  19.111  0.00  0.00    +0.000 C 
ATOM     15  C   UNL     1       1.322  11.867  20.409  0.00  0.00    +0.000 C 
ATOM     16  O   UNL     1       1.486  11.994  21.602  0.00  0.00    +0.000 OA
ATOM     17  N   UNL     1       0.614  10.905  19.748  0.00  0.00    +0.000 N 
ATOM     18  C   UNL     1       0.985   9.576  19.868  0.00  0.00    +0.000 C 
ATOM     19  C   UNL     1       1.591   9.121  18.760  0.00  0.00    +0.000 C 
ATOM     20  C   UNL     1       1.705  10.201  17.715  0.00  0.00    +0.000 C 
ATOM     21  C   UNL     1       1.021  11.386  18.391  0.00  0.00    +0.000 C 
BRANCH  14  23
ATOM     22  C   UNL     1       2.677  14.707  18.270  0.00  0.00    +0.000 C 
ATOM     23  C   UNL     1       1.494  13.949  18.856  0.00  0.00    +0.000 C 
BRANCH  23  24
ATOM     24  O   UNL     1       1.052  14.578  20.055  0.00  0.00    +0.000 OA
ATOM     25  H   UNL     1       0.128  14.322  20.229  0.00  0.00    +0.000 HD
ENDBRANCH  23  24
ENDBRANCH  14  23
BRANCH  18  26
ATOM     26  C   UNL     1       0.725   8.797  21.117  0.00  0.00    +0.000 C 
ATOM     27  O   UNL     1      -0.350   8.278  21.375  0.00  0.00    +0.000 OA
BRANCH  26  28
ATOM     28  O   UNL     1       1.767   8.756  21.975  0.00  0.00    +0.000 OA
ATOM     29  H   UNL     1       2.112   7.858  22.174  0.00  0.00    +0.000 HD
ENDBRANCH  26  28
ENDBRANCH  18  26
ENDBRANCH   1  19
BRANCH   3  30
ATOM     30  C   UNL     1       2.236   4.322  19.991  0.00  0.00    +0.000 C 
ATOM     31  N   UNL     1       2.473   4.464  21.254  0.00  0.00    +0.000 NA
ATOM     32  C   UNL     1       2.217   3.326  22.145  0.00  0.00    +0.000 C 
ATOM     33  C   UNL     1       1.167   2.368  21.609  0.00  0.00    +0.000 C 
ATOM     34  C   UNL     1       1.558   1.965  20.203  0.00  0.00    +0.000 C 
ATOM     35  N   UNL     1       1.735   3.167  19.438  0.00  0.00    +0.000 N 
ATOM     36  H   UNL     1       1.699   3.089  18.425  0.00  0.00    +0.000 HD
ENDBRANCH   3  30
TORSDOF 6
ENDMDL
MODEL 6
REMARK VINA RESULT:      -7.5      1.973      4.597
REMARK  Name = 
REMARK  7 active torsions:
REMARK  status: ('A' for Active; 'I' for Inactive)
REMARK    1  A    between atoms: C_1  and  C_2
REMARK    2  A    between atoms: C_2  and  O_3
REMARK    3  A    between atoms: C_2  and  C_4
REMARK    4  A    between atoms: C_8  and  C_9
REMARK    5  A    between atoms: C_9  and  O_11
REMARK    6  A    between atoms: C_12  and  C_13
REMARK    7  A    between atoms: C_15  and  C_16
REMARK                            x       y       z     vdW  Elec       q    Type
REMARK                         _______ _______ _______ _____ _____    ______ ____
ROOT
ATOM      1  C   UNL     1       1.716   9.127  18.293  0.00  0.00    +0.000 A 
ATOM      2  C   UNL     1       2.213  10.418  18.519  0.00  0.00    +0.000 A 
ATOM      3  C   UNL     1       1.359  11.534  18.599  0.00  0.00    +0.000 A 
ATOM      4  C   UNL     1      -0.005  11.287  18.413  0.00  0.00    +0.000 A 
ATOM      5  O   UNL     1      -1.009  12.213  18.476  0.00  0.00    +0.000 OA
ATOM      6  C   UNL     1      -2.176  11.568  18.226  0.00  0.00    +0.000 A 
ATOM      7  C   UNL     1      -3.431  12.174  18.188  0.00  0.00    +0.000 A 
ATOM      8  C   UNL     1      -4.515  11.341  17.902  0.00  0.00    +0.000 A 
ATOM      9  C   UNL     1      -4.332   9.975  17.678  0.00  0.00    +0.000 A 
ATOM     10  C   UNL     1      -3.055   9.392  17.734  0.00  0.00    +0.000 A 
ATOM     11  C   UNL     1      -1.948  10.215  18.012  0.00  0.00    +0.000 A 
ATOM     12  C   UNL     1      -0.538  10.027  18.148  0.00  0.00    +0.000 A 
ATOM     13  C   UNL     1       0.340   8.923  18.091  0.00  0.00    +0.000 A 
ENDROOT
BRANCH   1  19
ATOM     14  C   UNL     1       3.968   5.141  17.107  0.00  0.00    +0.000 C 
ATOM     15  C   UNL     1       3.320   4.844  18.466  0.00  0.00    +0.000 C 
ATOM     16  O   UNL     1       2.641   3.978  18.972  0.00  0.00    +0.000 OA
ATOM     17  N   UNL     1       3.663   6.061  18.982  0.00  0.00    +0.000 N 
ATOM     18  C   UNL     1       2.672   6.979  19.293  0.00  0.00    +0.000 C 
ATOM     19  C   UNL     1       2.617   7.981  18.401  0.00  0.00    +0.000 C 
ATOM     20  C   UNL     1       3.642   7.801  17.310  0.00  0.00    +0.000 C 
ATOM     21  C   UNL     1       4.350   6.517  17.733  0.00  0.00    +0.000 C 
BRANCH  14  23
ATOM     22  C   UNL     1       5.298   4.296  15.155  0.00  0.00    +0.000 C 
ATOM     23  C   UNL     1       5.083   4.211  16.659  0.00  0.00    +0.000 C 
BRANCH  23  24
ATOM     24  O   UNL     1       4.804   2.867  17.041  0.00  0.00    +0.000 OA
ATOM     25  H   UNL     1       3.844   2.764  17.171  0.00  0.00    +0.000 HD
ENDBRANCH  23  24
ENDBRANCH  14  23
BRANCH  18  26
ATOM     26  C   UNL     1       1.792   6.809  20.488  0.00  0.00    +0.000 C 
ATOM     27  O   UNL     1       1.060   5.845  20.654  0.00  0.00    +0.000 OA
BRANCH  26  28
ATOM     28  O   UNL     1       1.825   7.842  21.356  0.00  0.00    +0.000 OA
ATOM     29  H   UNL     1       2.484   7.761  22.081  0.00  0.00    +0.000 HD
ENDBRANCH  26  28
ENDBRANCH  18  26
ENDBRANCH   1  19
BRANCH   3  30
ATOM     30  C   UNL     1       1.887  12.896  18.922  0.00  0.00    +0.000 C 
ATOM     31  N   UNL     1       2.915  13.314  18.259  0.00  0.00    +0.000 NA
ATOM     32  C   UNL     1       3.466  14.635  18.585  0.00  0.00    +0.000 C 
ATOM     33  C   UNL     1       2.444  15.578  19.197  0.00  0.00    +0.000 C 
ATOM     34  C   UNL     1       1.793  14.882  20.374  0.00  0.00    +0.000 C 
ATOM     35  N   UNL     1       1.266  13.632  19.903  0.00  0.00    +0.000 N 
ATOM     36  H   UNL     1       0.548  13.184  20.467  0.00  0.00    +0.000 HD
ENDBRANCH   3  30
TORSDOF 6
ENDMDL
MODEL 7
REMARK VINA RESULT:      -7.5      2.440      4.443
REMARK  Name = 
REMARK  7 active torsions:
REMARK  status: ('A' for Active; 'I' for Inactive)
REMARK    1  A    between atoms: C_1  and  C_2
REMARK    2  A    between atoms: C_2  and  O_3
REMARK    3  A    between atoms: C_2  and  C_4
REMARK    4  A    between atoms: C_8  and  C_9
REMARK    5  A    between atoms: C_9  and  O_11
REMARK    6  A    between atoms: C_12  and  C_13
REMARK    7  A    between atoms: C_15  and  C_16
REMARK                            x       y       z     vdW  Elec       q    Type
REMARK                         _______ _______ _______ _____ _____    ______ ____
ROOT
ATOM      1  C   UNL     1       0.975   9.174  18.565  0.00  0.00    +0.000 A 
ATOM      2  C   UNL     1       0.721  10.040  19.638  0.00  0.00    +0.000 A 
ATOM      3  C   UNL     1      -0.431  10.848  19.678  0.00  0.00    +0.000 A 
ATOM      4  C   UNL     1      -1.291  10.758  18.579  0.00  0.00    +0.000 A 
ATOM      5  O   UNL     1      -2.473  11.427  18.422  0.00  0.00    +0.000 OA
ATOM      6  C   UNL     1      -2.988  11.070  17.218  0.00  0.00    +0.000 A 
ATOM      7  C   UNL     1      -4.183  11.550  16.687  0.00  0.00    +0.000 A 
ATOM      8  C   UNL     1      -4.540  11.071  15.424  0.00  0.00    +0.000 A 
ATOM      9  C   UNL     1      -3.733  10.152  14.750  0.00  0.00    +0.000 A 
ATOM     10  C   UNL     1      -2.538   9.679  15.317  0.00  0.00    +0.000 A 
ATOM     11  C   UNL     1      -2.156  10.156  16.585  0.00  0.00    +0.000 A 
ATOM     12  C   UNL     1      -1.058   9.939  17.475  0.00  0.00    +0.000 A 
ATOM     13  C   UNL     1       0.096   9.127  17.470  0.00  0.00    +0.000 A 
ENDROOT
BRANCH   1  19
ATOM     14  C   UNL     1       3.949   5.715  17.321  0.00  0.00    +0.000 C 
ATOM     15  C   UNL     1       3.387   5.286  18.683  0.00  0.00    +0.000 C 
ATOM     16  O   UNL     1       2.895   4.300  19.186  0.00  0.00    +0.000 OA
ATOM     17  N   UNL     1       3.490   6.542  19.207  0.00  0.00    +0.000 N 
ATOM     18  C   UNL     1       2.343   7.246  19.536  0.00  0.00    +0.000 C 
ATOM     19  C   UNL     1       2.084   8.225  18.655  0.00  0.00    +0.000 C 
ATOM     20  C   UNL     1       3.113   8.257  17.553  0.00  0.00    +0.000 C 
ATOM     21  C   UNL     1       4.062   7.133  17.957  0.00  0.00    +0.000 C 
BRANCH  14  23
ATOM     22  C   UNL     1       5.447   5.239  15.365  0.00  0.00    +0.000 C 
ATOM     23  C   UNL     1       5.220   5.023  16.855  0.00  0.00    +0.000 C 
BRANCH  23  24
ATOM     24  O   UNL     1       5.175   3.630  17.149  0.00  0.00    +0.000 OA
ATOM     25  H   UNL     1       5.057   3.131  16.320  0.00  0.00    +0.000 HD
ENDBRANCH  23  24
ENDBRANCH  14  23
BRANCH  18  26
ATOM     26  C   UNL     1       1.525   6.898  20.737  0.00  0.00    +0.000 C 
ATOM     27  O   UNL     1       1.257   7.695  21.623  0.00  0.00    +0.000 OA
BRANCH  26  28
ATOM     28  O   UNL     1       1.144   5.604  20.797  0.00  0.00    +0.000 OA
ATOM     29  H   UNL     1       1.842   4.974  21.081  0.00  0.00    +0.000 HD
ENDBRANCH  26  28
ENDBRANCH  18  26
ENDBRANCH   1  19
BRANCH   3  30
ATOM     30  C   UNL     1      -0.737  11.708  20.863  0.00  0.00    +0.000 C 
ATOM     31  N   UNL     1      -0.965  11.118  21.990  0.00  0.00    +0.000 NA
ATOM     32  C   UNL     1      -1.298  11.944  23.156  0.00  0.00    +0.000 C 
ATOM     33  C   UNL     1      -0.753  13.359  23.066  0.00  0.00    +0.000 C 
ATOM     34  C   UNL     1      -1.192  13.960  21.747  0.00  0.00    +0.000 C 
ATOM     35  N   UNL     1      -0.767  13.073  20.701  0.00  0.00    +0.000 N 
ATOM     36  H   UNL     1      -0.706  13.453  19.760  0.00  0.00    +0.000 HD
ENDBRANCH   3  30
TORSDOF 6
ENDMDL
MODEL 8
REMARK VINA RESULT:      -7.4      2.539      8.951
REMARK  Name = 
REMARK  7 active torsions:
REMARK  status: ('A' for Active; 'I' for Inactive)
REMARK    1  A    between atoms: C_1  and  C_2
REMARK    2  A    between atoms: C_2  and  O_3
REMARK    3  A    between atoms: C_2  and  C_4
REMARK    4  A    between atoms: C_8  and  C_9
REMARK    5  A    between atoms: C_9  and  O_11
REMARK    6  A    between atoms: C_12  and  C_13
REMARK    7  A    between atoms: C_15  and  C_16
REMARK                            x       y       z     vdW  Elec       q    Type
REMARK                         _______ _______ _______ _____ _____    ______ ____
ROOT
ATOM      1  C   UNL     1       2.196   7.852  19.295  0.00  0.00    +0.000 A 
ATOM      2  C   UNL     1       3.262   7.687  18.400  0.00  0.00    +0.000 A 
ATOM      3  C   UNL     1       3.907   6.447  18.240  0.00  0.00    +0.000 A 
ATOM      4  C   UNL     1       3.443   5.398  19.042  0.00  0.00    +0.000 A 
ATOM      5  O   UNL     1       3.902   4.111  19.032  0.00  0.00    +0.000 OA
ATOM      6  C   UNL     1       3.199   3.418  19.964  0.00  0.00    +0.000 A 
ATOM      7  C   UNL     1       3.382   2.070  20.264  0.00  0.00    +0.000 A 
ATOM      8  C   UNL     1       2.567   1.539  21.265  0.00  0.00    +0.000 A 
ATOM      9  C   UNL     1       1.616   2.331  21.913  0.00  0.00    +0.000 A 
ATOM     10  C   UNL     1       1.448   3.685  21.580  0.00  0.00    +0.000 A 
ATOM     11  C   UNL     1       2.266   4.242  20.580  0.00  0.00    +0.000 A 
ATOM     12  C   UNL     1       2.412   5.528  19.972  0.00  0.00    +0.000 A 
ATOM     13  C   UNL     1       1.772   6.779  20.097  0.00  0.00    +0.000 A 
ENDROOT
BRANCH   1  19
ATOM     14  C   UNL     1       1.310  12.482  18.918  0.00  0.00    +0.000 C 
ATOM     15  C   UNL     1       0.768  12.084  20.297  0.00  0.00    +0.000 C 
ATOM     16  O   UNL     1       0.837  12.476  21.441  0.00  0.00    +0.000 OA
ATOM     17  N   UNL     1       0.214  10.927  19.830  0.00  0.00    +0.000 N 
ATOM     18  C   UNL     1       0.718   9.706  20.249  0.00  0.00    +0.000 C 
ATOM     19  C   UNL     1       1.442   9.105  19.291  0.00  0.00    +0.000 C 
ATOM     20  C   UNL     1       1.508   9.949  18.044  0.00  0.00    +0.000 C 
ATOM     21  C   UNL     1       0.656  11.158  18.419  0.00  0.00    +0.000 C 
BRANCH  14  23
ATOM     22  C   UNL     1       1.397  14.983  19.101  0.00  0.00    +0.000 C 
ATOM     23  C   UNL     1       0.817  13.799  18.340  0.00  0.00    +0.000 C 
BRANCH  23  24
ATOM     24  O   UNL     1      -0.607  13.856  18.354  0.00  0.00    +0.000 OA
ATOM     25  H   UNL     1      -0.950  13.149  18.931  0.00  0.00    +0.000 HD
ENDBRANCH  23  24
ENDBRANCH  14  23
BRANCH  18  26
ATOM     26  C   UNL     1       0.461   9.180  21.624  0.00  0.00    +0.000 C 
ATOM     27  O   UNL     1      -0.534   8.540  21.926  0.00  0.00    +0.000 OA
BRANCH  26  28
ATOM     28  O   UNL     1       1.399   9.518  22.534  0.00  0.00    +0.000 OA
ATOM     29  H   UNL     1       1.698   8.789  23.121  0.00  0.00    +0.000 HD
ENDBRANCH  26  28
ENDBRANCH  18  26
ENDBRANCH   1  19
BRANCH   3  30
ATOM     30  C   UNL     1       4.988   6.257  17.225  0.00  0.00    +0.000 C 
ATOM     31  N   UNL     1       6.113   6.862  17.426  0.00  0.00    +0.000 NA
ATOM     32  C   UNL     1       7.175   6.712  16.424  0.00  0.00    +0.000 C 
ATOM     33  C   UNL     1       7.065   5.429  15.618  0.00  0.00    +0.000 C 
ATOM     34  C   UNL     1       5.668   5.342  15.043  0.00  0.00    +0.000 C 
ATOM     35  N   UNL     1       4.740   5.460  16.132  0.00  0.00    +0.000 N 
ATOM     36  H   UNL     1       3.792   5.127  15.979  0.00  0.00    +0.000 HD
ENDBRANCH   3  30
TORSDOF 6
ENDMDL
MODEL 9
REMARK VINA RESULT:      -7.4      1.976      4.545
REMARK  Name = 
REMARK  7 active torsions:
REMARK  status: ('A' for Active; 'I' for Inactive)
REMARK    1  A    between atoms: C_1  and  C_2
REMARK    2  A    between atoms: C_2  and  O_3
REMARK    3  A    between atoms: C_2  and  C_4
REMARK    4  A    between atoms: C_8  and  C_9
REMARK    5  A    between atoms: C_9  and  O_11
REMARK    6  A    between atoms: C_12  and  C_13
REMARK    7  A    between atoms: C_15  and  C_16
REMARK                            x       y       z     vdW  Elec       q    Type
REMARK                         _______ _______ _______ _____ _____    ______ ____
ROOT
ATOM      1  C   UNL     1       1.580   9.081  18.349  0.00  0.00    +0.000 A 
ATOM      2  C   UNL     1       1.829  10.275  19.041  0.00  0.00    +0.000 A 
ATOM      3  C   UNL     1       0.868  11.301  19.112  0.00  0.00    +0.000 A 
ATOM      4  C   UNL     1      -0.333  11.075  18.432  0.00  0.00    +0.000 A 
ATOM      5  O   UNL     1      -1.408  11.919  18.390  0.00  0.00    +0.000 OA
ATOM      6  C   UNL     1      -2.357  11.334  17.617  0.00  0.00    +0.000 A 
ATOM      7  C   UNL     1      -3.600  11.890  17.321  0.00  0.00    +0.000 A 
ATOM      8  C   UNL     1      -4.438  11.137  16.495  0.00  0.00    +0.000 A 
ATOM      9  C   UNL     1      -4.037   9.890  16.010  0.00  0.00    +0.000 A 
ATOM     10  C   UNL     1      -2.781   9.352  16.336  0.00  0.00    +0.000 A 
ATOM     11  C   UNL     1      -1.918  10.099  17.159  0.00  0.00    +0.000 A 
ATOM     12  C   UNL     1      -0.607   9.921  17.700  0.00  0.00    +0.000 A 
ATOM     13  C   UNL     1       0.367   8.901  17.662  0.00  0.00    +0.000 A 
ENDROOT
BRANCH   1  19
ATOM     14  C   UNL     1       3.982   5.179  17.180  0.00  0.00    +0.000 C 
ATOM     15  C   UNL     1       3.368   4.873  18.553  0.00  0.00    +0.000 C 
ATOM     16  O   UNL     1       2.734   3.986  19.080  0.00  0.00    +0.000 OA
ATOM     17  N   UNL     1       3.666   6.110  19.047  0.00  0.00    +0.000 N 
ATOM     18  C   UNL     1       2.642   6.989  19.362  0.00  0.00    +0.000 C 
ATOM     19  C   UNL     1       2.531   7.976  18.458  0.00  0.00    +0.000 C 
ATOM     20  C   UNL     1       3.546   7.825  17.354  0.00  0.00    +0.000 C 
ATOM     21  C   UNL     1       4.314   6.578  17.782  0.00  0.00    +0.000 C 
BRANCH  14  23
ATOM     22  C   UNL     1       5.346   4.398  15.224  0.00  0.00    +0.000 C 
ATOM     23  C   UNL     1       5.129   4.291  16.727  0.00  0.00    +0.000 C 
BRANCH  23  24
ATOM     24  O   UNL     1       4.893   2.934  17.094  0.00  0.00    +0.000 OA
ATOM     25  H   UNL     1       4.959   2.372  16.300  0.00  0.00    +0.000 HD
ENDBRANCH  23  24
ENDBRANCH  14  23
BRANCH  18  26
ATOM     26  C   UNL     1       1.788   6.799  20.573  0.00  0.00    +0.000 C 
ATOM     27  O   UNL     1       1.042   5.843  20.728  0.00  0.00    +0.000 OA
BRANCH  26  28
ATOM     28  O   UNL     1       1.861   7.804  21.471  0.00  0.00    +0.000 OA
ATOM     29  H   UNL     1       2.364   7.600  22.290  0.00  0.00    +0.000 HD
ENDBRANCH  26  28
ENDBRANCH  18  26
ENDBRANCH   1  19
BRANCH   3  30
ATOM     30  C   UNL     1       1.108  12.536  19.921  0.00  0.00    +0.000 C 
ATOM     31  N   UNL     1       0.404  12.697  20.993  0.00  0.00    +0.000 NA
ATOM     32  C   UNL     1       0.603  13.919  21.783  0.00  0.00    +0.000 C 
ATOM     33  C   UNL     1       1.982  14.531  21.605  0.00  0.00    +0.000 C 
ATOM     34  C   UNL     1       2.239  14.713  20.124  0.00  0.00    +0.000 C 
ATOM     35  N   UNL     1       2.050  13.439  19.489  0.00  0.00    +0.000 N 
ATOM     36  H   UNL     1       2.467  13.306  18.571  0.00  0.00    +0.000 HD
ENDBRANCH   3  30
TORSDOF 6
ENDMDL
