MODEL 1
REMARK VINA RESULT:      -7.4      0.000      0.000
REMARK  Name = 
REMARK  4 active torsions:
REMARK  status: ('A' for Active; 'I' for Inactive)
REMARK    1  A    between atoms: C_1  and  N_2
REMARK    2  A    between atoms: N_2  and  C_3
REMARK    3  A    between atoms: N_2  and  C_4
REMARK    4  A    between atoms: C_15  and  C_16
REMARK                            x       y       z     vdW  Elec       q    Type
REMARK                         _______ _______ _______ _____ _____    ______ ____
ROOT
ATOM      1  C   UNL     1      -1.100  11.927  20.586  0.00  0.00    +0.000 A 
ATOM      2  N   UNL     1      -1.353  12.708  21.656  0.00  0.00    +0.000 NA
ATOM      3  C   UNL     1      -1.085  12.210  22.866  0.00  0.00    +0.000 A 
ATOM      4  N   UNL     1      -0.603  10.993  23.126  0.00  0.00    +0.000 NA
ATOM      5  C   UNL     1      -0.367  10.212  22.053  0.00  0.00    +0.000 A 
ATOM      6  C   UNL     1      -0.586  10.636  20.740  0.00  0.00    +0.000 A 
ATOM      7  C   UNL     1      -0.271   9.727  19.578  0.00  0.00    +0.000 C 
ATOM      8  C   UNL     1       1.239   9.448  19.471  0.00  0.00    +0.000 C 
ATOM      9  N   UNL     1       1.620   8.398  20.415  0.00  0.00    +0.000 N 
ATOM     10  C   UNL     1       2.031   7.173  19.929  0.00  0.00    +0.000 A 
ATOM     11  C   UNL     1       1.754   6.005  20.615  0.00  0.00    +0.000 A 
ATOM     12  C   UNL     1       2.177   4.803  20.069  0.00  0.00    +0.000 A 
ATOM     13  N   UNL     1       2.874   4.758  18.908  0.00  0.00    +0.000 NA
ATOM     14  C   UNL     1       3.096   5.936  18.314  0.00  0.00    +0.000 A 
ATOM     15  N   UNL     1       2.690   7.131  18.760  0.00  0.00    +0.000 NA
ATOM     16  C   UNL     1       1.616   8.699  21.847  0.00  0.00    +0.000 C 
ATOM     17  C   UNL     1       0.188   8.846  22.368  0.00  0.00    +0.000 C 
ENDROOT
BRANCH  12  18
ATOM     18  C   UNL     1       1.832   3.506  20.781  0.00  0.00    +0.000 C 
ATOM     19  F   UNL     1       2.601   2.450  20.374  0.00  0.00    +0.000 F 
ATOM     20  F   UNL     1       2.005   3.575  22.132  0.00  0.00    +0.000 F 
ATOM     21  F   UNL     1       0.544   3.110  20.581  0.00  0.00    +0.000 F 
ENDBRANCH  12  18
BRANCH   1  23
ATOM     22  C   UNL     1      -2.812  12.281  18.956  0.00  0.00    +0.000 C 
ATOM     23  N   UNL     1      -1.391  12.438  19.297  0.00  0.00    +0.000 N 
ATOM     24  C   UNL     1      -0.911  13.813  19.134  0.00  0.00    +0.000 C 
ENDBRANCH   1  23
TORSDOF 2
ENDMDL
MODEL 2
REMARK VINA RESULT:      -7.3      4.812      7.504
REMARK  Name = 
REMARK  4 active torsions:
REMARK  status: ('A' for Active; 'I' for Inactive)
REMARK    1  A    between atoms: C_1  and  N_2
REMARK    2  A    between atoms: N_2  and  C_3
REMARK    3  A    between atoms: N_2  and  C_4
REMARK    4  A    between atoms: C_15  and  C_16
REMARK                            x       y       z     vdW  Elec       q    Type
REMARK                         _______ _______ _______ _____ _____    ______ ____
ROOT
ATOM      1  C   UNL     1       1.992   6.183  19.776  0.00  0.00    +0.000 A 
ATOM      2  N   UNL     1       1.207   5.441  20.583  0.00  0.00    +0.000 NA
ATOM      3  C   UNL     1       1.051   4.149  20.282  0.00  0.00    +0.000 A 
ATOM      4  N   UNL     1       1.587   3.516  19.237  0.00  0.00    +0.000 NA
ATOM      5  C   UNL     1       2.358   4.266  18.426  0.00  0.00    +0.000 A 
ATOM      6  C   UNL     1       2.612   5.620  18.656  0.00  0.00    +0.000 A 
ATOM      7  C   UNL     1       3.512   6.401  17.730  0.00  0.00    +0.000 C 
ATOM      8  C   UNL     1       4.963   5.891  17.789  0.00  0.00    +0.000 C 
ATOM      9  N   UNL     1       5.108   4.701  16.952  0.00  0.00    +0.000 N 
ATOM     10  C   UNL     1       5.879   4.773  15.809  0.00  0.00    +0.000 A 
ATOM     11  C   UNL     1       5.554   4.038  14.683  0.00  0.00    +0.000 A 
ATOM     12  C   UNL     1       6.355   4.165  13.560  0.00  0.00    +0.000 A 
ATOM     13  N   UNL     1       7.453   4.958  13.556  0.00  0.00    +0.000 NA
ATOM     14  C   UNL     1       7.691   5.630  14.689  0.00  0.00    +0.000 A 
ATOM     15  N   UNL     1       6.945   5.588  15.800  0.00  0.00    +0.000 NA
ATOM     16  C   UNL     1       4.484   3.451  17.386  0.00  0.00    +0.000 C 
ATOM     17  C   UNL     1       2.964   3.529  17.259  0.00  0.00    +0.000 C 
ENDROOT
BRANCH  12  18
ATOM     18  C   UNL     1       5.979   3.410  12.295  0.00  0.00    +0.000 C 
ATOM     19  F   UNL     1       5.997   2.051  12.458  0.00  0.00    +0.000 F 
ATOM     20  F   UNL     1       4.723   3.701  11.852  0.00  0.00    +0.000 F 
ATOM     21  F   UNL     1       6.819   3.658  11.252  0.00  0.00    +0.000 F 
ENDBRANCH  12  18
BRANCH   1  23
ATOM     22  C   UNL     1       1.828   8.410  18.926  0.00  0.00    +0.000 C 
ATOM     23  N   UNL     1       2.156   7.557  20.077  0.00  0.00    +0.000 N 
ATOM     24  C   UNL     1       1.439   7.938  21.296  0.00  0.00    +0.000 C 
ENDBRANCH   1  23
TORSDOF 2
ENDMDL
MODEL 3
REMARK VINA RESULT:      -7.3      0.740      1.100
REMARK  Name = 
REMARK  4 active torsions:
REMARK  status: ('A' for Active; 'I' for Inactive)
REMARK    1  A    between atoms: C_1  and  N_2
REMARK    2  A    between atoms: N_2  and  C_3
REMARK    3  A    between atoms: N_2  and  C_4
REMARK    4  A    between atoms: C_15  and  C_16
REMARK                            x       y       z     vdW  Elec       q    Type
REMARK                         _______ _______ _______ _____ _____    ______ ____
ROOT
ATOM      1  C   UNL     1      -0.683  11.757  19.857  0.00  0.00    +0.000 A 
ATOM      2  N   UNL     1      -1.078  12.541  20.881  0.00  0.00    +0.000 NA
ATOM      3  C   UNL     1      -1.077  12.010  22.106  0.00  0.00    +0.000 A 
ATOM      4  N   UNL     1      -0.738  10.758  22.419  0.00  0.00    +0.000 NA
ATOM      5  C   UNL     1      -0.359   9.975  21.390  0.00  0.00    +0.000 A 
ATOM      6  C   UNL     1      -0.298  10.430  20.071  0.00  0.00    +0.000 A 
ATOM      7  C   UNL     1       0.166   9.515  18.964  0.00  0.00    +0.000 C 
ATOM      8  C   UNL     1       1.646   9.128  19.133  0.00  0.00    +0.000 C 
ATOM      9  N   UNL     1       1.770   8.042  20.104  0.00  0.00    +0.000 N 
ATOM     10  C   UNL     1       2.179   6.796  19.671  0.00  0.00    +0.000 A 
ATOM     11  C   UNL     1       1.698   5.643  20.264  0.00  0.00    +0.000 A 
ATOM     12  C   UNL     1       2.132   4.421  19.775  0.00  0.00    +0.000 A 
ATOM     13  N   UNL     1       3.029   4.339  18.763  0.00  0.00    +0.000 NA
ATOM     14  C   UNL     1       3.440   5.505  18.252  0.00  0.00    +0.000 A 
ATOM     15  N   UNL     1       3.041   6.721  18.645  0.00  0.00    +0.000 NA
ATOM     16  C   UNL     1       1.518   8.324  21.518  0.00  0.00    +0.000 C 
ATOM     17  C   UNL     1       0.031   8.569  21.767  0.00  0.00    +0.000 C 
ENDROOT
BRANCH  12  18
ATOM     18  C   UNL     1       1.570   3.143  20.376  0.00  0.00    +0.000 C 
ATOM     19  F   UNL     1       1.260   3.266  21.704  0.00  0.00    +0.000 F 
ATOM     20  F   UNL     1       0.417   2.732  19.776  0.00  0.00    +0.000 F 
ATOM     21  F   UNL     1       2.434   2.092  20.305  0.00  0.00    +0.000 F 
ENDBRANCH  12  18
BRANCH   1  23
ATOM     22  C   UNL     1      -1.949  12.016  17.846  0.00  0.00    +0.000 C 
ATOM     23  N   UNL     1      -0.691  12.304  18.550  0.00  0.00    +0.000 N 
ATOM     24  C   UNL     1      -0.349  13.729  18.553  0.00  0.00    +0.000 C 
ENDBRANCH   1  23
TORSDOF 2
ENDMDL
MODEL 4
REMARK VINA RESULT:      -7.2      1.365      1.629
REMARK  Name = 
REMARK  4 active torsions:
REMARK  status: ('A' for Active; 'I' for Inactive)
REMARK    1  A    between atoms: C_1  and  N_2
REMARK    2  A    between atoms: N_2  and  C_3
REMARK    3  A    between atoms: N_2  and  C_4
REMARK    4  A    between atoms: C_15  and  C_16
REMARK                            x       y       z     vdW  Elec       q    Type
REMARK                         _______ _______ _______ _____ _____    ______ ____
ROOT
ATOM      1  C   UNL     1       0.057  11.526  19.780  0.00  0.00    +0.000 A 
ATOM      2  N   UNL     1      -0.281  12.237  20.875  0.00  0.00    +0.000 NA
ATOM      3  C   UNL     1      -0.375  11.583  22.036  0.00  0.00    +0.000 A 
ATOM      4  N   UNL     1      -0.185  10.275  22.219  0.00  0.00    +0.000 NA
ATOM      5  C   UNL     1       0.137   9.568  21.118  0.00  0.00    +0.000 A 
ATOM      6  C   UNL     1       0.288  10.149  19.857  0.00  0.00    +0.000 A 
ATOM      7  C   UNL     1       0.683   9.310  18.666  0.00  0.00    +0.000 C 
ATOM      8  C   UNL     1       2.106   8.745  18.820  0.00  0.00    +0.000 C 
ATOM      9  N   UNL     1       2.081   7.555  19.671  0.00  0.00    +0.000 N 
ATOM     10  C   UNL     1       2.365   6.324  19.113  0.00  0.00    +0.000 A 
ATOM     11  C   UNL     1       1.743   5.175  19.569  0.00  0.00    +0.000 A 
ATOM     12  C   UNL     1       2.056   3.971  18.959  0.00  0.00    +0.000 A 
ATOM     13  N   UNL     1       2.969   3.896  17.962  0.00  0.00    +0.000 NA
ATOM     14  C   UNL     1       3.520   5.056  17.587  0.00  0.00    +0.000 A 
ATOM     15  N   UNL     1       3.244   6.262  18.101  0.00  0.00    +0.000 NA
ATOM     16  C   UNL     1       1.819   7.714  21.101  0.00  0.00    +0.000 C 
ATOM     17  C   UNL     1       0.360   8.095  21.348  0.00  0.00    +0.000 C 
ENDROOT
BRANCH  12  18
ATOM     18  C   UNL     1       1.340   2.708  19.408  0.00  0.00    +0.000 C 
ATOM     19  F   UNL     1       0.216   2.439  18.676  0.00  0.00    +0.000 F 
ATOM     20  F   UNL     1       2.113   1.589  19.302  0.00  0.00    +0.000 F 
ATOM     21  F   UNL     1       0.921   2.760  20.704  0.00  0.00    +0.000 F 
ENDBRANCH  12  18
BRANCH   1  23
ATOM     22  C   UNL     1      -1.168  12.658  18.068  0.00  0.00    +0.000 C 
ATOM     23  N   UNL     1       0.148  12.205  18.540  0.00  0.00    +0.000 N 
ATOM     24  C   UNL     1       1.144  13.279  18.578  0.00  0.00    +0.000 C 
ENDBRANCH   1  23
TORSDOF 2
ENDMDL
MODEL 5
REMARK VINA RESULT:      -7.1      0.412      1.139
REMARK  Name = 
REMARK  4 active torsions:
REMARK  status: ('A' for Active; 'I' for Inactive)
REMARK    1  A    between atoms: C_1  and  N_2
REMARK    2  A    between atoms: N_2  and  C_3
REMARK    3  A    between atoms: N_2  and  C_4
REMARK    4  A    between atoms: C_15  and  C_16
REMARK                            x       y       z     vdW  Elec       q    Type
REMARK                         _______ _______ _______ _____ _____    ______ ____
ROOT
ATOM      1  C   UNL     1      -1.324  12.134  20.619  0.00  0.00    +0.000 A 
ATOM      2  N   UNL     1      -1.574  12.917  21.688  0.00  0.00    +0.000 NA
ATOM      3  C   UNL     1      -1.255  12.443  22.895  0.00  0.00    +0.000 A 
ATOM      4  N   UNL     1      -0.722  11.247  23.153  0.00  0.00    +0.000 NA
ATOM      5  C   UNL     1      -0.489  10.463  22.082  0.00  0.00    +0.000 A 
ATOM      6  C   UNL     1      -0.760  10.863  20.772  0.00  0.00    +0.000 A 
ATOM      7  C   UNL     1      -0.445   9.953  19.610  0.00  0.00    +0.000 C 
ATOM      8  C   UNL     1       1.070   9.728  19.463  0.00  0.00    +0.000 C 
ATOM      9  N   UNL     1       1.516   8.703  20.406  0.00  0.00    +0.000 N 
ATOM     10  C   UNL     1       1.957   7.488  19.920  0.00  0.00    +0.000 A 
ATOM     11  C   UNL     1       1.742   6.318  20.626  0.00  0.00    +0.000 A 
ATOM     12  C   UNL     1       2.192   5.127  20.080  0.00  0.00    +0.000 A 
ATOM     13  N   UNL     1       2.857   5.093  18.900  0.00  0.00    +0.000 NA
ATOM     14  C   UNL     1       3.020   6.272  18.288  0.00  0.00    +0.000 A 
ATOM     15  N   UNL     1       2.583   7.457  18.733  0.00  0.00    +0.000 NA
ATOM     16  C   UNL     1       1.542   9.019  21.834  0.00  0.00    +0.000 C 
ATOM     17  C   UNL     1       0.124   9.121  22.394  0.00  0.00    +0.000 C 
ENDROOT
BRANCH  12  18
ATOM     18  C   UNL     1       1.915   3.826  20.815  0.00  0.00    +0.000 C 
ATOM     19  F   UNL     1       0.590   3.483  20.816  0.00  0.00    +0.000 F 
ATOM     20  F   UNL     1       2.561   2.756  20.270  0.00  0.00    +0.000 F 
ATOM     21  F   UNL     1       2.277   3.862  22.128  0.00  0.00    +0.000 F 
ENDBRANCH  12  18
BRANCH   1  23
ATOM     22  C   UNL     1      -0.480  12.963  18.543  0.00  0.00    +0.000 C 
ATOM     23  N   UNL     1      -1.670  12.620  19.334  0.00  0.00    +0.000 N 
ATOM     24  C   UNL     1      -2.581  11.711  18.634  0.00  0.00    +0.000 C 
ENDBRANCH   1  23
TORSDOF 2
ENDMDL
MODEL 6
REMARK VINA RESULT:      -6.7      3.117      4.578
REMARK  Name = 
REMARK  4 active torsions:
REMARK  status: ('A' for Active; 'I' for Inactive)
REMARK    1  A    between atoms: C_1  and  N_2
REMARK    2  A    between atoms: N_2  and  C_3
REMARK    3  A    between atoms: N_2  and  C_4
REMARK    4  A    between atoms: C_15  and  C_16
REMARK                            x       y       z     vdW  Elec       q    Type
REMARK                         _______ _______ _______ _____ _____    ______ ____
ROOT
ATOM      1  C   UNL     1       0.088   9.936  20.693  0.00  0.00    +0.000 A 
ATOM      2  N   UNL     1      -0.741  10.771  20.034  0.00  0.00    +0.000 NA
ATOM      3  C   UNL     1      -0.569  10.905  18.717  0.00  0.00    +0.000 A 
ATOM      4  N   UNL     1       0.365  10.300  17.981  0.00  0.00    +0.000 NA
ATOM      5  C   UNL     1       1.200   9.479  18.647  0.00  0.00    +0.000 A 
ATOM      6  C   UNL     1       1.100   9.244  20.020  0.00  0.00    +0.000 A 
ATOM      7  C   UNL     1       2.043   8.286  20.706  0.00  0.00    +0.000 C 
ATOM      8  C   UNL     1       1.836   6.841  20.218  0.00  0.00    +0.000 C 
ATOM      9  N   UNL     1       2.530   6.639  18.947  0.00  0.00    +0.000 N 
ATOM     10  C   UNL     1       3.622   5.796  18.904  0.00  0.00    +0.000 A 
ATOM     11  C   UNL     1       4.682   6.045  18.050  0.00  0.00    +0.000 A 
ATOM     12  C   UNL     1       5.758   5.172  18.064  0.00  0.00    +0.000 A 
ATOM     13  N   UNL     1       5.775   4.078  18.862  0.00  0.00    +0.000 NA
ATOM     14  C   UNL     1       4.708   3.916  19.652  0.00  0.00    +0.000 A 
ATOM     15  N   UNL     1       3.648   4.732  19.723  0.00  0.00    +0.000 NA
ATOM     16  C   UNL     1       2.006   7.288  17.744  0.00  0.00    +0.000 C 
ATOM     17  C   UNL     1       2.240   8.797  17.795  0.00  0.00    +0.000 C 
ENDROOT
BRANCH  12  18
ATOM     18  C   UNL     1       6.956   5.463  17.175  0.00  0.00    +0.000 C 
ATOM     19  F   UNL     1       7.709   6.517  17.618  0.00  0.00    +0.000 F 
ATOM     20  F   UNL     1       7.823   4.415  17.087  0.00  0.00    +0.000 F 
ATOM     21  F   UNL     1       6.611   5.782  15.896  0.00  0.00    +0.000 F 
ENDBRANCH  12  18
BRANCH   1  23
ATOM     22  C   UNL     1      -0.747  10.960  22.685  0.00  0.00    +0.000 C 
ATOM     23  N   UNL     1      -0.074   9.794  22.093  0.00  0.00    +0.000 N 
ATOM     24  C   UNL     1      -0.715   8.524  22.443  0.00  0.00    +0.000 C 
ENDBRANCH   1  23
TORSDOF 2
ENDMDL
MODEL 7
REMARK VINA RESULT:      -6.3      3.597      7.957
REMARK  Name = 
REMARK  4 active torsions:
REMARK  status: ('A' for Active; 'I' for Inactive)
REMARK    1  A    between atoms: C_1  and  N_2
REMARK    2  A    between atoms: N_2  and  C_3
REMARK    3  A    between atoms: N_2  and  C_4
REMARK    4  A    between atoms: C_15  and  C_16
REMARK                            x       y       z     vdW  Elec       q    Type
REMARK                         _______ _______ _______ _____ _____    ______ ____
ROOT
ATOM      1  C   UNL     1       3.047   3.924  19.559  0.00  0.00    +0.000 A 
ATOM      2  N   UNL     1       3.935   3.377  18.704  0.00  0.00    +0.000 NA
ATOM      3  C   UNL     1       4.207   4.045  17.580  0.00  0.00    +0.000 A 
ATOM      4  N   UNL     1       3.666   5.205  17.205  0.00  0.00    +0.000 NA
ATOM      5  C   UNL     1       2.768   5.739  18.056  0.00  0.00    +0.000 A 
ATOM      6  C   UNL     1       2.424   5.142  19.271  0.00  0.00    +0.000 A 
ATOM      7  C   UNL     1       1.436   5.806  20.200  0.00  0.00    +0.000 C 
ATOM      8  C   UNL     1       1.983   7.133  20.753  0.00  0.00    +0.000 C 
ATOM      9  N   UNL     1       1.796   8.199  19.768  0.00  0.00    +0.000 N 
ATOM     10  C   UNL     1       0.904   9.216  20.040  0.00  0.00    +0.000 A 
ATOM     11  C   UNL     1       0.175   9.814  19.027  0.00  0.00    +0.000 A 
ATOM     12  C   UNL     1      -0.719  10.818  19.363  0.00  0.00    +0.000 A 
ATOM     13  N   UNL     1      -0.864  11.241  20.642  0.00  0.00    +0.000 NA
ATOM     14  C   UNL     1      -0.118  10.607  21.554  0.00  0.00    +0.000 A 
ATOM     15  N   UNL     1       0.738   9.606  21.314  0.00  0.00    +0.000 NA
ATOM     16  C   UNL     1       2.609   8.188  18.551  0.00  0.00    +0.000 C 
ATOM     17  C   UNL     1       2.178   7.056  17.620  0.00  0.00    +0.000 C 
ENDROOT
BRANCH  12  18
ATOM     18  C   UNL     1      -1.569  11.446  18.271  0.00  0.00    +0.000 C 
ATOM     19  F   UNL     1      -1.064  12.633  17.813  0.00  0.00    +0.000 F 
ATOM     20  F   UNL     1      -1.687  10.656  17.166  0.00  0.00    +0.000 F 
ATOM     21  F   UNL     1      -2.839  11.729  18.676  0.00  0.00    +0.000 F 
ENDBRANCH  12  18
BRANCH   1  23
ATOM     22  C   UNL     1       1.396   2.627  20.701  0.00  0.00    +0.000 C 
ATOM     23  N   UNL     1       2.740   3.220  20.749  0.00  0.00    +0.000 N 
ATOM     24  C   UNL     1       3.782   2.250  21.094  0.00  0.00    +0.000 C 
ENDBRANCH   1  23
TORSDOF 2
ENDMDL
MODEL 8
REMARK VINA RESULT:      -6.2      3.664      8.095
REMARK  Name = 
REMARK  4 active torsions:
REMARK  status: ('A' for Active; 'I' for Inactive)
REMARK    1  A    between atoms: C_1  and  N_2
REMARK    2  A    between atoms: N_2  and  C_3
REMARK    3  A    between atoms: N_2  and  C_4
REMARK    4  A    between atoms: C_15  and  C_16
REMARK                            x       y       z     vdW  Elec       q    Type
REMARK                         _______ _______ _______ _____ _____    ______ ____
ROOT
ATOM      1  C   UNL     1       3.621   3.811  18.586  0.00  0.00    +0.000 A 
ATOM      2  N   UNL     1       4.641   3.509  17.758  0.00  0.00    +0.000 NA
ATOM      3  C   UNL     1       5.021   4.437  16.875  0.00  0.00    +0.000 A 
ATOM      4  N   UNL     1       4.470   5.642  16.718  0.00  0.00    +0.000 NA
ATOM      5  C   UNL     1       3.441   5.932  17.538  0.00  0.00    +0.000 A 
ATOM      6  C   UNL     1       2.975   5.049  18.515  0.00  0.00    +0.000 A 
ATOM      7  C   UNL     1       1.840   5.444  19.427  0.00  0.00    +0.000 C 
ATOM      8  C   UNL     1       2.236   6.607  20.353  0.00  0.00    +0.000 C 
ATOM      9  N   UNL     1       2.121   7.877  19.635  0.00  0.00    +0.000 N 
ATOM     10  C   UNL     1       1.146   8.777  20.015  0.00  0.00    +0.000 A 
ATOM     11  C   UNL     1       0.524   9.589  19.084  0.00  0.00    +0.000 A 
ATOM     12  C   UNL     1      -0.459  10.461  19.522  0.00  0.00    +0.000 A 
ATOM     13  N   UNL     1      -0.793  10.555  20.831  0.00  0.00    +0.000 NA
ATOM     14  C   UNL     1      -0.139   9.734  21.661  0.00  0.00    +0.000 A 
ATOM     15  N   UNL     1       0.795   8.840  21.309  0.00  0.00    +0.000 NA
ATOM     16  C   UNL     1       3.085   8.181  18.577  0.00  0.00    +0.000 C 
ATOM     17  C   UNL     1       2.842   7.303  17.352  0.00  0.00    +0.000 C 
ENDROOT
BRANCH  12  18
ATOM     18  C   UNL     1      -1.193  11.318  18.504  0.00  0.00    +0.000 C 
ATOM     19  F   UNL     1      -2.403  11.772  18.958  0.00  0.00    +0.000 F 
ATOM     20  F   UNL     1      -0.501  12.438  18.150  0.00  0.00    +0.000 F 
ATOM     21  F   UNL     1      -1.470  10.658  17.345  0.00  0.00    +0.000 F 
ENDBRANCH  12  18
BRANCH   1  23
ATOM     22  C   UNL     1       2.284   1.856  18.910  0.00  0.00    +0.000 C 
ATOM     23  N   UNL     1       3.200   2.831  19.519  0.00  0.00    +0.000 N 
ATOM     24  C   UNL     1       4.335   2.203  20.200  0.00  0.00    +0.000 C 
ENDBRANCH   1  23
TORSDOF 2
ENDMDL
MODEL 9
REMARK VINA RESULT:      -6.2      1.874      2.494
REMARK  Name = 
REMARK  4 active torsions:
REMARK  status: ('A' for Active; 'I' for Inactive)
REMARK    1  A    between atoms: C_1  and  N_2
REMARK    2  A    between atoms: N_2  and  C_3
REMARK    3  A    between atoms: N_2  and  C_4
REMARK    4  A    between atoms: C_15  and  C_16
REMARK                            x       y       z     vdW  Elec       q    Type
REMARK                         _______ _______ _______ _____ _____    ______ ____
ROOT
ATOM      1  C   UNL     1       0.179  10.766  19.658  0.00  0.00    +0.000 A 
ATOM      2  N   UNL     1      -0.226  11.275  20.840  0.00  0.00    +0.000 NA
ATOM      3  C   UNL     1      -0.167  10.480  21.911  0.00  0.00    +0.000 A 
ATOM      4  N   UNL     1       0.240   9.209  21.925  0.00  0.00    +0.000 NA
ATOM      5  C   UNL     1       0.627   8.702  20.739  0.00  0.00    +0.000 A 
ATOM      6  C   UNL     1       0.632   9.447  19.557  0.00  0.00    +0.000 A 
ATOM      7  C   UNL     1       1.110   8.833  18.264  0.00  0.00    +0.000 C 
ATOM      8  C   UNL     1       2.610   8.496  18.319  0.00  0.00    +0.000 C 
ATOM      9  N   UNL     1       2.811   7.226  19.014  0.00  0.00    +0.000 N 
ATOM     10  C   UNL     1       3.268   6.134  18.302  0.00  0.00    +0.000 A 
ATOM     11  C   UNL     1       2.859   4.852  18.623  0.00  0.00    +0.000 A 
ATOM     12  C   UNL     1       3.337   3.798  17.861  0.00  0.00    +0.000 A 
ATOM     13  N   UNL     1       4.210   3.996  16.845  0.00  0.00    +0.000 NA
ATOM     14  C   UNL     1       4.551   5.267  16.607  0.00  0.00    +0.000 A 
ATOM     15  N   UNL     1       4.105   6.340  17.273  0.00  0.00    +0.000 NA
ATOM     16  C   UNL     1       2.584   7.166  20.458  0.00  0.00    +0.000 C 
ATOM     17  C   UNL     1       1.095   7.269  20.779  0.00  0.00    +0.000 C 
ENDROOT
BRANCH  12  18
ATOM     18  C   UNL     1       2.853   2.390  18.163  0.00  0.00    +0.000 C 
ATOM     19  F   UNL     1       1.780   2.016  17.400  0.00  0.00    +0.000 F 
ATOM     20  F   UNL     1       3.803   1.438  17.936  0.00  0.00    +0.000 F 
ATOM     21  F   UNL     1       2.450   2.226  19.454  0.00  0.00    +0.000 F 
ENDBRANCH  12  18
BRANCH   1  23
ATOM     22  C   UNL     1      -1.270  12.006  18.218  0.00  0.00    +0.000 C 
ATOM     23  N   UNL     1       0.110  11.594  18.511  0.00  0.00    +0.000 N 
ATOM     24  C   UNL     1       1.039  12.724  18.597  0.00  0.00    +0.000 C 
ENDBRANCH   1  23
TORSDOF 2
ENDMDL
