MODEL 1
REMARK VINA RESULT:      -8.1      0.000      0.000
REMARK  Name = 
REMARK  7 active torsions:
REMARK  status: ('A' for Active; 'I' for Inactive)
REMARK    1  A    between atoms: C_1  and  C_2
REMARK    2  A    between atoms: C_6  and  C_7
REMARK    3  A    between atoms: C_8  and  N_9
REMARK    4  A    between atoms: C_10  and  C_12
REMARK    5  A    between atoms: C_12  and  C_13
REMARK    6  A    between atoms: C_12  and  N_22
REMARK    7  A    between atoms: C_25  and  C_26
REMARK                            x       y       z     vdW  Elec       q    Type
REMARK                         _______ _______ _______ _____ _____    ______ ____
ROOT
ATOM      1  C   UNL     1      -0.997  12.477  19.456  0.00  0.00    +0.000 C 
ENDROOT
BRANCH   1   2
ATOM      2  C   UNL     1      -2.116  12.601  20.458  0.00  0.00    +0.000 A 
ATOM      3  C   UNL     1      -3.395  13.127  20.390  0.00  0.00    +0.000 A 
ATOM      4  C   UNL     1      -3.950  13.045  21.687  0.00  0.00    +0.000 A 
ATOM      5  C   UNL     1      -5.158  13.447  22.282  0.00  0.00    +0.000 A 
ATOM      6  C   UNL     1      -5.348  13.202  23.648  0.00  0.00    +0.000 A 
ATOM      7  C   UNL     1      -4.369  12.549  24.402  0.00  0.00    +0.000 A 
ATOM      8  C   UNL     1      -3.163  12.132  23.824  0.00  0.00    +0.000 A 
ATOM      9  C   UNL     1      -2.991  12.416  22.470  0.00  0.00    +0.000 A 
ATOM     10  O   UNL     1      -1.875  12.147  21.729  0.00  0.00    +0.000 OA
ENDBRANCH   1   2
BRANCH   1  11
ATOM     11  N   UNL     1       0.178  13.358  19.764  0.00  0.00    +0.000 NA
ATOM     12  C   UNL     1       1.051  13.579  18.604  0.00  0.00    +0.000 C 
ATOM     13  C   UNL     1       2.185  14.582  18.846  0.00  0.00    +0.000 C 
ATOM     14  C   UNL     1       1.693  15.914  19.430  0.00  0.00    +0.000 C 
ATOM     15  C   UNL     1       0.894  15.569  20.700  0.00  0.00    +0.000 C 
ATOM     16  C   UNL     1      -0.258  14.604  20.410  0.00  0.00    +0.000 C 
BRANCH  14  17
ATOM     17  C   UNL     1       0.955  16.860  18.479  0.00  0.00    +0.000 A 
ATOM     18  C   UNL     1       1.591  17.579  17.455  0.00  0.00    +0.000 A 
ATOM     19  C   UNL     1       0.879  18.442  16.616  0.00  0.00    +0.000 A 
ATOM     20  C   UNL     1      -0.485  18.630  16.803  0.00  0.00    +0.000 A 
ATOM     21  C   UNL     1      -1.134  17.955  17.830  0.00  0.00    +0.000 A 
ATOM     22  C   UNL     1      -0.422  17.082  18.660  0.00  0.00    +0.000 A 
ENDBRANCH  14  17
ENDBRANCH   1  11
BRANCH   1  24
ATOM     23  N   UNL     1       0.487  10.573  20.086  0.00  0.00    +0.000 N 
ATOM     24  C   UNL     1      -0.627  10.952  19.336  0.00  0.00    +0.000 C 
ATOM     25  O   UNL     1      -1.224  10.180  18.583  0.00  0.00    +0.000 OA
ATOM     26  H   UNL     1       1.151  11.320  20.242  0.00  0.00    +0.000 HD
BRANCH  23  34
ATOM     27  C   UNL     1       2.125   9.680  17.716  0.00  0.00    +0.000 C 
ATOM     28  C   UNL     1       1.820   8.825  18.919  0.00  0.00    +0.000 A 
ATOM     29  C   UNL     1       2.343   7.522  18.924  0.00  0.00    +0.000 A 
ATOM     30  C   UNL     1       2.072   6.643  19.963  0.00  0.00    +0.000 A 
ATOM     31  C   UNL     1       1.272   7.056  21.026  0.00  0.00    +0.000 A 
ATOM     32  C   UNL     1       0.748   8.358  21.065  0.00  0.00    +0.000 A 
ATOM     33  C   UNL     1      -0.035   8.766  22.284  0.00  0.00    +0.000 C 
ATOM     34  C   UNL     1       1.037   9.263  20.014  0.00  0.00    +0.000 A 
ENDBRANCH  23  34
ENDBRANCH   1  24
TORSDOF 5
ENDMDL
MODEL 2
REMARK VINA RESULT:      -8.0      1.875      5.660
REMARK  Name = 
REMARK  7 active torsions:
REMARK  status: ('A' for Active; 'I' for Inactive)
REMARK    1  A    between atoms: C_1  and  C_2
REMARK    2  A    between atoms: C_6  and  C_7
REMARK    3  A    between atoms: C_8  and  N_9
REMARK    4  A    between atoms: C_10  and  C_12
REMARK    5  A    between atoms: C_12  and  C_13
REMARK    6  A    between atoms: C_12  and  N_22
REMARK    7  A    between atoms: C_25  and  C_26
REMARK                            x       y       z     vdW  Elec       q    Type
REMARK                         _______ _______ _______ _____ _____    ______ ____
ROOT
ATOM      1  C   UNL     1       0.692  12.049  19.945  0.00  0.00    +0.000 C 
ENDROOT
BRANCH   1   2
ATOM      2  C   UNL     1       1.187  10.686  19.534  0.00  0.00    +0.000 A 
ATOM      3  C   UNL     1       1.617  10.158  18.329  0.00  0.00    +0.000 A 
ATOM      4  C   UNL     1       1.868   8.784  18.541  0.00  0.00    +0.000 A 
ATOM      5  C   UNL     1       2.262   7.704  17.731  0.00  0.00    +0.000 A 
ATOM      6  C   UNL     1       2.394   6.438  18.315  0.00  0.00    +0.000 A 
ATOM      7  C   UNL     1       2.164   6.252  19.681  0.00  0.00    +0.000 A 
ATOM      8  C   UNL     1       1.781   7.318  20.506  0.00  0.00    +0.000 A 
ATOM      9  C   UNL     1       1.629   8.558  19.891  0.00  0.00    +0.000 A 
ATOM     10  O   UNL     1       1.213   9.710  20.497  0.00  0.00    +0.000 OA
ENDBRANCH   1   2
BRANCH   1  11
ATOM     11  N   UNL     1       1.733  13.122  19.820  0.00  0.00    +0.000 NA
ATOM     12  C   UNL     1       2.035  13.472  18.426  0.00  0.00    +0.000 C 
ATOM     13  C   UNL     1       2.994  14.656  18.263  0.00  0.00    +0.000 C 
ATOM     14  C   UNL     1       2.562  15.893  19.064  0.00  0.00    +0.000 C 
ATOM     15  C   UNL     1       2.391  15.436  20.523  0.00  0.00    +0.000 C 
ATOM     16  C   UNL     1       1.390  14.284  20.651  0.00  0.00    +0.000 C 
BRANCH  14  17
ATOM     17  C   UNL     1       1.368  16.687  18.526  0.00  0.00    +0.000 A 
ATOM     18  C   UNL     1       0.057  16.530  19.001  0.00  0.00    +0.000 A 
ATOM     19  C   UNL     1      -1.007  17.268  18.471  0.00  0.00    +0.000 A 
ATOM     20  C   UNL     1      -0.787  18.161  17.430  0.00  0.00    +0.000 A 
ATOM     21  C   UNL     1       0.497  18.313  16.919  0.00  0.00    +0.000 A 
ATOM     22  C   UNL     1       1.562  17.583  17.459  0.00  0.00    +0.000 A 
ENDBRANCH  14  17
ENDBRANCH   1  11
BRANCH   1  24
ATOM     23  N   UNL     1      -1.687  11.498  19.439  0.00  0.00    +0.000 N 
ATOM     24  C   UNL     1      -0.623  12.348  19.135  0.00  0.00    +0.000 C 
ATOM     25  O   UNL     1      -0.681  13.207  18.253  0.00  0.00    +0.000 OA
ATOM     26  H   UNL     1      -1.403  10.585  19.767  0.00  0.00    +0.000 HD
BRANCH  23  34
ATOM     27  C   UNL     1      -4.043  13.073  20.470  0.00  0.00    +0.000 C 
ATOM     28  C   UNL     1      -4.034  12.287  19.185  0.00  0.00    +0.000 A 
ATOM     29  C   UNL     1      -5.213  12.297  18.422  0.00  0.00    +0.000 A 
ATOM     30  C   UNL     1      -5.318  11.559  17.251  0.00  0.00    +0.000 A 
ATOM     31  C   UNL     1      -4.237  10.797  16.816  0.00  0.00    +0.000 A 
ATOM     32  C   UNL     1      -3.035  10.778  17.542  0.00  0.00    +0.000 A 
ATOM     33  C   UNL     1      -1.878  10.004  16.969  0.00  0.00    +0.000 C 
ATOM     34  C   UNL     1      -2.919  11.544  18.728  0.00  0.00    +0.000 A 
ENDBRANCH  23  34
ENDBRANCH   1  24
TORSDOF 5
ENDMDL
MODEL 3
REMARK VINA RESULT:      -8.0      1.877      5.538
REMARK  Name = 
REMARK  7 active torsions:
REMARK  status: ('A' for Active; 'I' for Inactive)
REMARK    1  A    between atoms: C_1  and  C_2
REMARK    2  A    between atoms: C_6  and  C_7
REMARK    3  A    between atoms: C_8  and  N_9
REMARK    4  A    between atoms: C_10  and  C_12
REMARK    5  A    between atoms: C_12  and  C_13
REMARK    6  A    between atoms: C_12  and  N_22
REMARK    7  A    between atoms: C_25  and  C_26
REMARK                            x       y       z     vdW  Elec       q    Type
REMARK                         _______ _______ _______ _____ _____    ______ ____
ROOT
ATOM      1  C   UNL     1       0.603  12.057  19.976  0.00  0.00    +0.000 C 
ENDROOT
BRANCH   1   2
ATOM      2  C   UNL     1       1.119  10.706  19.549  0.00  0.00    +0.000 A 
ATOM      3  C   UNL     1       1.529  10.190  18.332  0.00  0.00    +0.000 A 
ATOM      4  C   UNL     1       1.819   8.822  18.534  0.00  0.00    +0.000 A 
ATOM      5  C   UNL     1       2.216   7.754  17.713  0.00  0.00    +0.000 A 
ATOM      6  C   UNL     1       2.393   6.490  18.290  0.00  0.00    +0.000 A 
ATOM      7  C   UNL     1       2.204   6.297  19.661  0.00  0.00    +0.000 A 
ATOM      8  C   UNL     1       1.817   7.352  20.499  0.00  0.00    +0.000 A 
ATOM      9  C   UNL     1       1.621   8.589  19.890  0.00  0.00    +0.000 A 
ATOM     10  O   UNL     1       1.193   9.730  20.509  0.00  0.00    +0.000 OA
ENDBRANCH   1   2
BRANCH   1  11
ATOM     11  N   UNL     1       1.639  13.140  19.902  0.00  0.00    +0.000 NA
ATOM     12  C   UNL     1       2.000  13.498  18.524  0.00  0.00    +0.000 C 
ATOM     13  C   UNL     1       2.955  14.691  18.407  0.00  0.00    +0.000 C 
ATOM     14  C   UNL     1       2.476  15.921  19.192  0.00  0.00    +0.000 C 
ATOM     15  C   UNL     1       2.243  15.457  20.641  0.00  0.00    +0.000 C 
ATOM     16  C   UNL     1       1.248  14.296  20.720  0.00  0.00    +0.000 C 
BRANCH  14  17
ATOM     17  C   UNL     1       1.300  16.706  18.604  0.00  0.00    +0.000 A 
ATOM     18  C   UNL     1      -0.023  16.570  19.051  0.00  0.00    +0.000 A 
ATOM     19  C   UNL     1      -1.069  17.298  18.476  0.00  0.00    +0.000 A 
ATOM     20  C   UNL     1      -0.819  18.160  17.415  0.00  0.00    +0.000 A 
ATOM     21  C   UNL     1       0.478  18.290  16.930  0.00  0.00    +0.000 A 
ATOM     22  C   UNL     1       1.524  17.570  17.517  0.00  0.00    +0.000 A 
ENDBRANCH  14  17
ENDBRANCH   1  11
BRANCH   1  24
ATOM     23  N   UNL     1      -1.766  11.516  19.414  0.00  0.00    +0.000 N 
ATOM     24  C   UNL     1      -0.692  12.364  19.138  0.00  0.00    +0.000 C 
ATOM     25  O   UNL     1      -0.728  13.228  18.260  0.00  0.00    +0.000 OA
ATOM     26  H   UNL     1      -1.492  10.600  19.744  0.00  0.00    +0.000 HD
BRANCH  23  34
ATOM     27  C   UNL     1      -2.033  10.182  16.723  0.00  0.00    +0.000 C 
ATOM     28  C   UNL     1      -3.135  10.940  17.418  0.00  0.00    +0.000 A 
ATOM     29  C   UNL     1      -4.369  11.022  16.754  0.00  0.00    +0.000 A 
ATOM     30  C   UNL     1      -5.427  11.743  17.289  0.00  0.00    +0.000 A 
ATOM     31  C   UNL     1      -5.270  12.395  18.510  0.00  0.00    +0.000 A 
ATOM     32  C   UNL     1      -4.057  12.319  19.212  0.00  0.00    +0.000 A 
ATOM     33  C   UNL     1      -3.984  12.974  20.566  0.00  0.00    +0.000 C 
ATOM     34  C   UNL     1      -2.981  11.569  18.676  0.00  0.00    +0.000 A 
ENDBRANCH  23  34
ENDBRANCH   1  24
TORSDOF 5
ENDMDL
MODEL 4
REMARK VINA RESULT:      -7.9      1.859      5.457
REMARK  Name = 
REMARK  7 active torsions:
REMARK  status: ('A' for Active; 'I' for Inactive)
REMARK    1  A    between atoms: C_1  and  C_2
REMARK    2  A    between atoms: C_6  and  C_7
REMARK    3  A    between atoms: C_8  and  N_9
REMARK    4  A    between atoms: C_10  and  C_12
REMARK    5  A    between atoms: C_12  and  C_13
REMARK    6  A    between atoms: C_12  and  N_22
REMARK    7  A    between atoms: C_25  and  C_26
REMARK                            x       y       z     vdW  Elec       q    Type
REMARK                         _______ _______ _______ _____ _____    ______ ____
ROOT
ATOM      1  C   UNL     1       0.506  12.171  20.201  0.00  0.00    +0.000 C 
ENDROOT
BRANCH   1   2
ATOM      2  C   UNL     1       0.894  10.722  20.044  0.00  0.00    +0.000 A 
ATOM      3  C   UNL     1       0.983   9.664  20.931  0.00  0.00    +0.000 A 
ATOM      4  C   UNL     1       1.496   8.559  20.215  0.00  0.00    +0.000 A 
ATOM      5  C   UNL     1       1.864   7.242  20.539  0.00  0.00    +0.000 A 
ATOM      6  C   UNL     1       2.368   6.416  19.527  0.00  0.00    +0.000 A 
ATOM      7  C   UNL     1       2.481   6.879  18.214  0.00  0.00    +0.000 A 
ATOM      8  C   UNL     1       2.110   8.186  17.869  0.00  0.00    +0.000 A 
ATOM      9  C   UNL     1       1.640   8.993  18.903  0.00  0.00    +0.000 A 
ATOM     10  O   UNL     1       1.278  10.306  18.795  0.00  0.00    +0.000 OA
ENDBRANCH   1   2
BRANCH   1  11
ATOM     11  N   UNL     1       1.635  13.121  19.929  0.00  0.00    +0.000 NA
ATOM     12  C   UNL     1       1.888  13.320  18.497  0.00  0.00    +0.000 C 
ATOM     13  C   UNL     1       2.944  14.385  18.181  0.00  0.00    +0.000 C 
ATOM     14  C   UNL     1       2.677  15.722  18.888  0.00  0.00    +0.000 C 
ATOM     15  C   UNL     1       2.547  15.409  20.389  0.00  0.00    +0.000 C 
ATOM     16  C   UNL     1       1.451  14.377  20.669  0.00  0.00    +0.000 C 
BRANCH  14  17
ATOM     17  C   UNL     1       1.534  16.582  18.341  0.00  0.00    +0.000 A 
ATOM     18  C   UNL     1       1.702  17.538  17.327  0.00  0.00    +0.000 A 
ATOM     19  C   UNL     1       0.632  18.311  16.866  0.00  0.00    +0.000 A 
ATOM     20  C   UNL     1      -0.629  18.165  17.430  0.00  0.00    +0.000 A 
ATOM     21  C   UNL     1      -0.817  17.248  18.458  0.00  0.00    +0.000 A 
ATOM     22  C   UNL     1       0.253  16.467  18.909  0.00  0.00    +0.000 A 
ENDBRANCH  14  17
ENDBRANCH   1  11
BRANCH   1  24
ATOM     23  N   UNL     1      -1.798  11.512  19.509  0.00  0.00    +0.000 N 
ATOM     24  C   UNL     1      -0.763  12.428  19.309  0.00  0.00    +0.000 C 
ATOM     25  O   UNL     1      -0.808  13.313  18.452  0.00  0.00    +0.000 OA
ATOM     26  H   UNL     1      -1.487  10.604  19.827  0.00  0.00    +0.000 HD
BRANCH  23  34
ATOM     27  C   UNL     1      -1.905  10.108  16.842  0.00  0.00    +0.000 C 
ATOM     28  C   UNL     1      -3.056  10.854  17.465  0.00  0.00    +0.000 A 
ATOM     29  C   UNL     1      -4.259  10.890  16.742  0.00  0.00    +0.000 A 
ATOM     30  C   UNL     1      -5.358  11.597  17.209  0.00  0.00    +0.000 A 
ATOM     31  C   UNL     1      -5.275  12.282  18.419  0.00  0.00    +0.000 A 
ATOM     32  C   UNL     1      -4.095  12.253  19.179  0.00  0.00    +0.000 A 
ATOM     33  C   UNL     1      -4.102  12.941  20.518  0.00  0.00    +0.000 C 
ATOM     34  C   UNL     1      -2.978  11.517  18.713  0.00  0.00    +0.000 A 
ENDBRANCH  23  34
ENDBRANCH   1  24
TORSDOF 5
ENDMDL
MODEL 5
REMARK VINA RESULT:      -7.9      1.945      5.660
REMARK  Name = 
REMARK  7 active torsions:
REMARK  status: ('A' for Active; 'I' for Inactive)
REMARK    1  A    between atoms: C_1  and  C_2
REMARK    2  A    between atoms: C_6  and  C_7
REMARK    3  A    between atoms: C_8  and  N_9
REMARK    4  A    between atoms: C_10  and  C_12
REMARK    5  A    between atoms: C_12  and  C_13
REMARK    6  A    between atoms: C_12  and  N_22
REMARK    7  A    between atoms: C_25  and  C_26
REMARK                            x       y       z     vdW  Elec       q    Type
REMARK                         _______ _______ _______ _____ _____    ______ ____
ROOT
ATOM      1  C   UNL     1       0.663  11.802  20.229  0.00  0.00    +0.000 C 
ENDROOT
BRANCH   1   2
ATOM      2  C   UNL     1       1.012  10.340  20.100  0.00  0.00    +0.000 A 
ATOM      3  C   UNL     1       1.012   9.284  20.993  0.00  0.00    +0.000 A 
ATOM      4  C   UNL     1       1.531   8.160  20.312  0.00  0.00    +0.000 A 
ATOM      5  C   UNL     1       1.835   6.833  20.662  0.00  0.00    +0.000 A 
ATOM      6  C   UNL     1       2.373   5.986  19.685  0.00  0.00    +0.000 A 
ATOM      7  C   UNL     1       2.582   6.440  18.380  0.00  0.00    +0.000 A 
ATOM      8  C   UNL     1       2.275   7.756  18.009  0.00  0.00    +0.000 A 
ATOM      9  C   UNL     1       1.769   8.583  19.010  0.00  0.00    +0.000 A 
ATOM     10  O   UNL     1       1.457   9.906  18.878  0.00  0.00    +0.000 OA
ENDBRANCH   1   2
BRANCH   1  11
ATOM     11  N   UNL     1       1.829  12.714  19.988  0.00  0.00    +0.000 NA
ATOM     12  C   UNL     1       2.090  12.953  18.563  0.00  0.00    +0.000 C 
ATOM     13  C   UNL     1       3.187  13.985  18.282  0.00  0.00    +0.000 C 
ATOM     14  C   UNL     1       2.974  15.306  19.035  0.00  0.00    +0.000 C 
ATOM     15  C   UNL     1       2.832  14.947  20.524  0.00  0.00    +0.000 C 
ATOM     16  C   UNL     1       1.695  13.951  20.770  0.00  0.00    +0.000 C 
BRANCH  14  17
ATOM     17  C   UNL     1       1.867  16.229  18.518  0.00  0.00    +0.000 A 
ATOM     18  C   UNL     1       0.545  16.191  18.987  0.00  0.00    +0.000 A 
ATOM     19  C   UNL     1      -0.438  17.044  18.478  0.00  0.00    +0.000 A 
ATOM     20  C   UNL     1      -0.127  17.939  17.462  0.00  0.00    +0.000 A 
ATOM     21  C   UNL     1       1.167  17.977  16.955  0.00  0.00    +0.000 A 
ATOM     22  C   UNL     1       2.152  17.130  17.476  0.00  0.00    +0.000 A 
ENDBRANCH  14  17
ENDBRANCH   1  11
BRANCH   1  24
ATOM     23  N   UNL     1      -1.574  11.123  19.358  0.00  0.00    +0.000 N 
ATOM     24  C   UNL     1      -0.566  12.087  19.289  0.00  0.00    +0.000 C 
ATOM     25  O   UNL     1      -0.599  13.037  18.505  0.00  0.00    +0.000 OA
ATOM     26  H   UNL     1      -1.246  10.204  19.620  0.00  0.00    +0.000 HD
BRANCH  23  34
ATOM     27  C   UNL     1      -4.061  12.665  20.089  0.00  0.00    +0.000 C 
ATOM     28  C   UNL     1      -3.882  11.880  18.816  0.00  0.00    +0.000 A 
ATOM     29  C   UNL     1      -4.957  11.874  17.913  0.00  0.00    +0.000 A 
ATOM     30  C   UNL     1      -4.907  11.137  16.738  0.00  0.00    +0.000 A 
ATOM     31  C   UNL     1      -3.770  10.391  16.441  0.00  0.00    +0.000 A 
ATOM     32  C   UNL     1      -2.667  10.387  17.310  0.00  0.00    +0.000 A 
ATOM     33  C   UNL     1      -1.437   9.629  16.884  0.00  0.00    +0.000 C 
ATOM     34  C   UNL     1      -2.709  11.153  18.500  0.00  0.00    +0.000 A 
ENDBRANCH  23  34
ENDBRANCH   1  24
TORSDOF 5
ENDMDL
MODEL 6
REMARK VINA RESULT:      -7.8      0.527      2.026
REMARK  Name = 
REMARK  7 active torsions:
REMARK  status: ('A' for Active; 'I' for Inactive)
REMARK    1  A    between atoms: C_1  and  C_2
REMARK    2  A    between atoms: C_6  and  C_7
REMARK    3  A    between atoms: C_8  and  N_9
REMARK    4  A    between atoms: C_10  and  C_12
REMARK    5  A    between atoms: C_12  and  C_13
REMARK    6  A    between atoms: C_12  and  N_22
REMARK    7  A    between atoms: C_25  and  C_26
REMARK                            x       y       z     vdW  Elec       q    Type
REMARK                         _______ _______ _______ _____ _____    ______ ____
ROOT
ATOM      1  C   UNL     1      -0.914  12.422  19.710  0.00  0.00    +0.000 C 
ENDROOT
BRANCH   1   2
ATOM      2  C   UNL     1      -1.885  12.576  20.853  0.00  0.00    +0.000 A 
ATOM      3  C   UNL     1      -1.840  12.219  22.190  0.00  0.00    +0.000 A 
ATOM      4  C   UNL     1      -3.096  12.540  22.751  0.00  0.00    +0.000 A 
ATOM      5  C   UNL     1      -3.696  12.381  24.012  0.00  0.00    +0.000 A 
ATOM      6  C   UNL     1      -5.013  12.823  24.190  0.00  0.00    +0.000 A 
ATOM      7  C   UNL     1      -5.713  13.433  23.145  0.00  0.00    +0.000 A 
ATOM      8  C   UNL     1      -5.128  13.609  21.884  0.00  0.00    +0.000 A 
ATOM      9  C   UNL     1      -3.827  13.133  21.729  0.00  0.00    +0.000 A 
ATOM     10  O   UNL     1      -3.097  13.155  20.575  0.00  0.00    +0.000 OA
ENDBRANCH   1   2
BRANCH   1  11
ATOM     11  N   UNL     1       0.306  13.284  19.846  0.00  0.00    +0.000 NA
ATOM     12  C   UNL     1       0.987  13.523  18.567  0.00  0.00    +0.000 C 
ATOM     13  C   UNL     1       2.159  14.509  18.647  0.00  0.00    +0.000 C 
ATOM     14  C   UNL     1       1.784  15.832  19.331  0.00  0.00    +0.000 C 
ATOM     15  C   UNL     1       1.192  15.466  20.703  0.00  0.00    +0.000 C 
ATOM     16  C   UNL     1      -0.005  14.519  20.580  0.00  0.00    +0.000 C 
BRANCH  14  17
ATOM     17  C   UNL     1       0.917  16.807  18.529  0.00  0.00    +0.000 A 
ATOM     18  C   UNL     1      -0.463  16.961  18.730  0.00  0.00    +0.000 A 
ATOM     19  C   UNL     1      -1.219  17.855  17.965  0.00  0.00    +0.000 A 
ATOM     20  C   UNL     1      -0.614  18.598  16.959  0.00  0.00    +0.000 A 
ATOM     21  C   UNL     1       0.747  18.442  16.717  0.00  0.00    +0.000 A 
ATOM     22  C   UNL     1       1.503  17.556  17.492  0.00  0.00    +0.000 A 
ENDBRANCH  14  17
ENDBRANCH   1  11
BRANCH   1  24
ATOM     23  N   UNL     1       0.630  10.505  20.115  0.00  0.00    +0.000 N 
ATOM     24  C   UNL     1      -0.591  10.890  19.558  0.00  0.00    +0.000 C 
ATOM     25  O   UNL     1      -1.316  10.115  18.932  0.00  0.00    +0.000 OA
ATOM     26  H   UNL     1       1.320  11.244  20.143  0.00  0.00    +0.000 HD
BRANCH  23  34
ATOM     27  C   UNL     1       0.218   8.422  22.257  0.00  0.00    +0.000 C 
ATOM     28  C   UNL     1       0.951   8.187  20.962  0.00  0.00    +0.000 A 
ATOM     29  C   UNL     1       1.474   6.902  20.749  0.00  0.00    +0.000 A 
ATOM     30  C   UNL     1       2.210   6.603  19.611  0.00  0.00    +0.000 A 
ATOM     31  C   UNL     1       2.433   7.592  18.655  0.00  0.00    +0.000 A 
ATOM     32  C   UNL     1       1.909   8.884  18.824  0.00  0.00    +0.000 A 
ATOM     33  C   UNL     1       2.114   9.878  17.712  0.00  0.00    +0.000 C 
ATOM     34  C   UNL     1       1.143   9.185  19.977  0.00  0.00    +0.000 A 
ENDBRANCH  23  34
ENDBRANCH   1  24
TORSDOF 5
ENDMDL
MODEL 7
REMARK VINA RESULT:      -7.6      2.583      4.932
REMARK  Name = 
REMARK  7 active torsions:
REMARK  status: ('A' for Active; 'I' for Inactive)
REMARK    1  A    between atoms: C_1  and  C_2
REMARK    2  A    between atoms: C_6  and  C_7
REMARK    3  A    between atoms: C_8  and  N_9
REMARK    4  A    between atoms: C_10  and  C_12
REMARK    5  A    between atoms: C_12  and  C_13
REMARK    6  A    between atoms: C_12  and  N_22
REMARK    7  A    between atoms: C_25  and  C_26
REMARK                            x       y       z     vdW  Elec       q    Type
REMARK                         _______ _______ _______ _____ _____    ______ ____
ROOT
ATOM      1  C   UNL     1      -0.317  13.215  20.173  0.00  0.00    +0.000 C 
ENDROOT
BRANCH   1   2
ATOM      2  C   UNL     1      -1.607  12.747  19.548  0.00  0.00    +0.000 A 
ATOM      3  C   UNL     1      -2.904  12.643  20.018  0.00  0.00    +0.000 A 
ATOM      4  C   UNL     1      -3.672  12.041  18.997  0.00  0.00    +0.000 A 
ATOM      5  C   UNL     1      -5.007  11.621  18.867  0.00  0.00    +0.000 A 
ATOM      6  C   UNL     1      -5.412  11.029  17.664  0.00  0.00    +0.000 A 
ATOM      7  C   UNL     1      -4.517  10.879  16.602  0.00  0.00    +0.000 A 
ATOM      8  C   UNL     1      -3.184  11.302  16.708  0.00  0.00    +0.000 A 
ATOM      9  C   UNL     1      -2.804  11.860  17.927  0.00  0.00    +0.000 A 
ATOM     10  O   UNL     1      -1.549  12.285  18.258  0.00  0.00    +0.000 OA
ENDBRANCH   1   2
BRANCH   1  11
ATOM     11  N   UNL     1      -0.519  14.006  21.431  0.00  0.00    +0.000 NA
ATOM     12  C   UNL     1      -1.346  15.203  21.233  0.00  0.00    +0.000 C 
ATOM     13  C   UNL     1      -1.685  15.962  22.521  0.00  0.00    +0.000 C 
ATOM     14  C   UNL     1      -2.273  15.056  23.613  0.00  0.00    +0.000 C 
ATOM     15  C   UNL     1      -1.271  13.906  23.819  0.00  0.00    +0.000 C 
ATOM     16  C   UNL     1      -0.995  13.143  22.521  0.00  0.00    +0.000 C 
BRANCH  14  17
ATOM     17  C   UNL     1      -3.717  14.583  23.420  0.00  0.00    +0.000 A 
ATOM     18  C   UNL     1      -4.671  15.294  22.677  0.00  0.00    +0.000 A 
ATOM     19  C   UNL     1      -5.983  14.831  22.537  0.00  0.00    +0.000 A 
ATOM     20  C   UNL     1      -6.380  13.658  23.166  0.00  0.00    +0.000 A 
ATOM     21  C   UNL     1      -5.464  12.950  23.935  0.00  0.00    +0.000 A 
ATOM     22  C   UNL     1      -4.148  13.409  24.062  0.00  0.00    +0.000 A 
ENDBRANCH  14  17
ENDBRANCH   1  11
BRANCH   1  24
ATOM     23  N   UNL     1       0.054  10.763  19.903  0.00  0.00    +0.000 N 
ATOM     24  C   UNL     1       0.612  11.959  20.358  0.00  0.00    +0.000 C 
ATOM     25  O   UNL     1       1.703  12.016  20.928  0.00  0.00    +0.000 OA
ATOM     26  H   UNL     1      -0.957  10.746  19.927  0.00  0.00    +0.000 HD
BRANCH  23  34
ATOM     27  C   UNL     1       1.866   9.595  17.795  0.00  0.00    +0.000 C 
ATOM     28  C   UNL     1       1.563   8.946  19.120  0.00  0.00    +0.000 A 
ATOM     29  C   UNL     1       2.175   7.710  19.380  0.00  0.00    +0.000 A 
ATOM     30  C   UNL     1       1.915   7.010  20.550  0.00  0.00    +0.000 A 
ATOM     31  C   UNL     1       1.035   7.541  21.491  0.00  0.00    +0.000 A 
ATOM     32  C   UNL     1       0.420   8.785  21.275  0.00  0.00    +0.000 A 
ATOM     33  C   UNL     1      -0.450   9.340  22.371  0.00  0.00    +0.000 C 
ATOM     34  C   UNL     1       0.698   9.508  20.089  0.00  0.00    +0.000 A 
ENDBRANCH  23  34
ENDBRANCH   1  24
TORSDOF 5
ENDMDL
MODEL 8
REMARK VINA RESULT:      -7.6      1.911      5.626
REMARK  Name = 
REMARK  7 active torsions:
REMARK  status: ('A' for Active; 'I' for Inactive)
REMARK    1  A    between atoms: C_1  and  C_2
REMARK    2  A    between atoms: C_6  and  C_7
REMARK    3  A    between atoms: C_8  and  N_9
REMARK    4  A    between atoms: C_10  and  C_12
REMARK    5  A    between atoms: C_12  and  C_13
REMARK    6  A    between atoms: C_12  and  N_22
REMARK    7  A    between atoms: C_25  and  C_26
REMARK                            x       y       z     vdW  Elec       q    Type
REMARK                         _______ _______ _______ _____ _____    ______ ____
ROOT
ATOM      1  C   UNL     1      -0.013  11.931  21.048  0.00  0.00    +0.000 C 
ENDROOT
BRANCH   1   2
ATOM      2  C   UNL     1       0.548  10.610  20.587  0.00  0.00    +0.000 A 
ATOM      3  C   UNL     1       0.869   9.435  21.245  0.00  0.00    +0.000 A 
ATOM      4  C   UNL     1       1.450   8.568  20.293  0.00  0.00    +0.000 A 
ATOM      5  C   UNL     1       2.024   7.286  20.330  0.00  0.00    +0.000 A 
ATOM      6  C   UNL     1       2.528   6.740  19.143  0.00  0.00    +0.000 A 
ATOM      7  C   UNL     1       2.444   7.444  17.938  0.00  0.00    +0.000 A 
ATOM      8  C   UNL     1       1.866   8.719  17.879  0.00  0.00    +0.000 A 
ATOM      9  C   UNL     1       1.399   9.247  19.082  0.00  0.00    +0.000 A 
ATOM     10  O   UNL     1       0.855  10.487  19.256  0.00  0.00    +0.000 OA
ENDBRANCH   1   2
BRANCH   1  11
ATOM     11  N   UNL     1       1.036  12.983  21.255  0.00  0.00    +0.000 NA
ATOM     12  C   UNL     1       1.853  13.224  20.059  0.00  0.00    +0.000 C 
ATOM     13  C   UNL     1       2.846  14.384  20.191  0.00  0.00    +0.000 C 
ATOM     14  C   UNL     1       2.188  15.682  20.684  0.00  0.00    +0.000 C 
ATOM     15  C   UNL     1       1.463  15.338  21.996  0.00  0.00    +0.000 C 
ATOM     16  C   UNL     1       0.447  14.208  21.813  0.00  0.00    +0.000 C 
BRANCH  14  17
ATOM     17  C   UNL     1       1.315  16.442  19.682  0.00  0.00    +0.000 A 
ATOM     18  C   UNL     1       1.791  16.935  18.457  0.00  0.00    +0.000 A 
ATOM     19  C   UNL     1       0.960  17.635  17.577  0.00  0.00    +0.000 A 
ATOM     20  C   UNL     1      -0.364  17.885  17.916  0.00  0.00    +0.000 A 
ATOM     21  C   UNL     1      -0.854  17.436  19.137  0.00  0.00    +0.000 A 
ATOM     22  C   UNL     1      -0.023  16.724  20.010  0.00  0.00    +0.000 A 
ENDBRANCH  14  17
ENDBRANCH   1  11
BRANCH   1  24
ATOM     23  N   UNL     1      -2.149  11.403  19.872  0.00  0.00    +0.000 N 
ATOM     24  C   UNL     1      -1.140  12.354  20.035  0.00  0.00    +0.000 C 
ATOM     25  O   UNL     1      -1.094  13.400  19.385  0.00  0.00    +0.000 OA
ATOM     26  H   UNL     1      -1.848  10.452  20.041  0.00  0.00    +0.000 HD
BRANCH  23  34
ATOM     27  C   UNL     1      -4.681  12.900  20.532  0.00  0.00    +0.000 C 
ATOM     28  C   UNL     1      -4.381  12.270  19.197  0.00  0.00    +0.000 A 
ATOM     29  C   UNL     1      -5.359  12.397  18.198  0.00  0.00    +0.000 A 
ATOM     30  C   UNL     1      -5.197  11.804  16.953  0.00  0.00    +0.000 A 
ATOM     31  C   UNL     1      -4.043  11.074  16.682  0.00  0.00    +0.000 A 
ATOM     32  C   UNL     1      -3.034  10.942  17.650  0.00  0.00    +0.000 A 
ATOM     33  C   UNL     1      -1.775  10.213  17.261  0.00  0.00    +0.000 C 
ATOM     34  C   UNL     1      -3.190  11.560  18.915  0.00  0.00    +0.000 A 
ENDBRANCH  23  34
ENDBRANCH   1  24
TORSDOF 5
ENDMDL
MODEL 9
REMARK VINA RESULT:      -7.6      1.993      5.556
REMARK  Name = 
REMARK  7 active torsions:
REMARK  status: ('A' for Active; 'I' for Inactive)
REMARK    1  A    between atoms: C_1  and  C_2
REMARK    2  A    between atoms: C_6  and  C_7
REMARK    3  A    between atoms: C_8  and  N_9
REMARK    4  A    between atoms: C_10  and  C_12
REMARK    5  A    between atoms: C_12  and  C_13
REMARK    6  A    between atoms: C_12  and  N_22
REMARK    7  A    between atoms: C_25  and  C_26
REMARK                            x       y       z     vdW  Elec       q    Type
REMARK                         _______ _______ _______ _____ _____    ______ ____
ROOT
ATOM      1  C   UNL     1      -0.022  11.773  20.738  0.00  0.00    +0.000 C 
ENDROOT
BRANCH   1   2
ATOM      2  C   UNL     1       0.683  10.607  20.092  0.00  0.00    +0.000 A 
ATOM      3  C   UNL     1       1.120  10.362  18.802  0.00  0.00    +0.000 A 
ATOM      4  C   UNL     1       1.630   9.044  18.778  0.00  0.00    +0.000 A 
ATOM      5  C   UNL     1       2.158   8.196  17.789  0.00  0.00    +0.000 A 
ATOM      6  C   UNL     1       2.556   6.904  18.153  0.00  0.00    +0.000 A 
ATOM      7  C   UNL     1       2.455   6.470  19.478  0.00  0.00    +0.000 A 
ATOM      8  C   UNL     1       1.940   7.304  20.480  0.00  0.00    +0.000 A 
ATOM      9  C   UNL     1       1.526   8.573  20.081  0.00  0.00    +0.000 A 
ATOM     10  O   UNL     1       0.950   9.518  20.881  0.00  0.00    +0.000 OA
ENDBRANCH   1   2
BRANCH   1  11
ATOM     11  N   UNL     1       0.909  12.870  21.162  0.00  0.00    +0.000 NA
ATOM     12  C   UNL     1       1.932  13.179  20.155  0.00  0.00    +0.000 C 
ATOM     13  C   UNL     1       2.816  14.384  20.496  0.00  0.00    +0.000 C 
ATOM     14  C   UNL     1       2.007  15.635  20.867  0.00  0.00    +0.000 C 
ATOM     15  C   UNL     1       1.057  15.225  22.006  0.00  0.00    +0.000 C 
ATOM     16  C   UNL     1       0.158  14.051  21.610  0.00  0.00    +0.000 C 
BRANCH  14  17
ATOM     17  C   UNL     1       1.308  16.375  19.722  0.00  0.00    +0.000 A 
ATOM     18  C   UNL     1       1.985  16.891  18.607  0.00  0.00    +0.000 A 
ATOM     19  C   UNL     1       1.308  17.572  17.590  0.00  0.00    +0.000 A 
ATOM     20  C   UNL     1      -0.063  17.778  17.681  0.00  0.00    +0.000 A 
ATOM     21  C   UNL     1      -0.754  17.305  18.790  0.00  0.00    +0.000 A 
ATOM     22  C   UNL     1      -0.076  16.613  19.800  0.00  0.00    +0.000 A 
ENDBRANCH  14  17
ENDBRANCH   1  11
BRANCH   1  24
ATOM     23  N   UNL     1      -2.281  11.424  19.739  0.00  0.00    +0.000 N 
ATOM     24  C   UNL     1      -1.157  12.251  19.759  0.00  0.00    +0.000 C 
ATOM     25  O   UNL     1      -1.029  13.227  19.018  0.00  0.00    +0.000 OA
ATOM     26  H   UNL     1      -2.086  10.460  19.974  0.00  0.00    +0.000 HD
BRANCH  23  34
ATOM     27  C   UNL     1      -2.162  10.435  16.893  0.00  0.00    +0.000 C 
ATOM     28  C   UNL     1      -3.332  11.167  17.499  0.00  0.00    +0.000 A 
ATOM     29  C   UNL     1      -4.439  11.398  16.667  0.00  0.00    +0.000 A 
ATOM     30  C   UNL     1      -5.541  12.111  17.118  0.00  0.00    +0.000 A 
ATOM     31  C   UNL     1      -5.558  12.604  18.420  0.00  0.00    +0.000 A 
ATOM     32  C   UNL     1      -4.477  12.376  19.287  0.00  0.00    +0.000 A 
ATOM     33  C   UNL     1      -4.598  12.861  20.707  0.00  0.00    +0.000 C 
ATOM     34  C   UNL     1      -3.359  11.634  18.834  0.00  0.00    +0.000 A 
ENDBRANCH  23  34
ENDBRANCH   1  24
TORSDOF 5
ENDMDL
