MODEL 1
REMARK VINA RESULT:      -8.2      0.000      0.000
REMARK  Name = 
REMARK  6 active torsions:
REMARK  status: ('A' for Active; 'I' for Inactive)
REMARK    1  A    between atoms: N_1  and  C_2
REMARK    2  A    between atoms: N_7  and  C_8
REMARK    3  A    between atoms: C_11  and  O_12
REMARK    4  A    between atoms: O_12  and  C_13
REMARK    5  A    between atoms: C_13  and  C_14
REMARK    6  A    between atoms: C_23  and  C_24
REMARK                            x       y       z     vdW  Elec       q    Type
REMARK                         _______ _______ _______ _____ _____    ______ ____
ROOT
ATOM      1  C   UNL     1       2.468   7.148  19.185  0.00  0.00    +0.000 A 
ATOM      2  C   UNL     1       2.222   8.018  18.120  0.00  0.00    +0.000 A 
ATOM      3  C   UNL     1       1.533   9.210  18.298  0.00  0.00    +0.000 A 
ATOM      4  C   UNL     1       0.999   9.536  19.545  0.00  0.00    +0.000 A 
ATOM      5  C   UNL     1       1.210   8.656  20.617  0.00  0.00    +0.000 A 
ATOM      6 CL   UNL     1       0.606   9.012  22.198  0.00  0.00    +0.000 Cl
ATOM      7  C   UNL     1       1.933   7.467  20.438  0.00  0.00    +0.000 A 
ENDROOT
BRANCH   1  13
ATOM      8  C   UNL     1       3.280   2.389  18.529  0.00  0.00    +0.000 A 
ATOM      9  N   UNL     1       1.981   2.108  18.698  0.00  0.00    +0.000 NA
ATOM     10  C   UNL     1       1.187   3.148  18.951  0.00  0.00    +0.000 A 
ATOM     11  N   UNL     1       1.578   4.420  19.025  0.00  0.00    +0.000 NA
ATOM     12  C   UNL     1       2.895   4.697  18.873  0.00  0.00    +0.000 A 
ATOM     13  N   UNL     1       3.326   6.041  19.017  0.00  0.00    +0.000 N 
ATOM     14  C   UNL     1       3.801   3.671  18.651  0.00  0.00    +0.000 A 
ATOM     15  H   UNL     1       4.164   6.229  18.463  0.00  0.00    +0.000 HD
BRANCH   8  16
ATOM     16  N   UNL     1       4.069   1.272  18.233  0.00  0.00    +0.000 N 
ATOM     17  H   UNL     1       5.021   1.511  18.512  0.00  0.00    +0.000 HD
ATOM     18  H   UNL     1       3.759   0.440  18.726  0.00  0.00    +0.000 HD
ENDBRANCH   8  16
BRANCH  14  19
ATOM     19  C   UNL     1       5.240   3.906  18.521  0.00  0.00    +0.000 C 
ATOM     20  O   UNL     1       5.895   4.410  19.429  0.00  0.00    +0.000 OA
ENDBRANCH  14  19
ENDBRANCH   1  13
BRANCH   4  21
ATOM     21  O   UNL     1       0.277  10.684  19.768  0.00  0.00    +0.000 OA
BRANCH  21  22
ATOM     22  C   UNL     1      -0.130  11.376  18.585  0.00  0.00    +0.000 C 
BRANCH  22  23
ATOM     23  C   UNL     1      -1.548  11.068  18.178  0.00  0.00    +0.000 A 
ATOM     24  C   UNL     1      -1.867  10.111  17.211  0.00  0.00    +0.000 A 
ATOM     25  C   UNL     1      -3.195   9.911  16.834  0.00  0.00    +0.000 A 
ATOM     26  C   UNL     1      -4.213  10.655  17.427  0.00  0.00    +0.000 A 
ATOM     27  C   UNL     1      -3.910  11.589  18.415  0.00  0.00    +0.000 A 
ATOM     28  C   UNL     1      -2.586  11.791  18.793  0.00  0.00    +0.000 A 
ENDBRANCH  22  23
ENDBRANCH  21  22
ENDBRANCH   4  21
TORSDOF 6
ENDMDL
MODEL 2
REMARK VINA RESULT:      -7.8      1.001      1.391
REMARK  Name = 
REMARK  6 active torsions:
REMARK  status: ('A' for Active; 'I' for Inactive)
REMARK    1  A    between atoms: N_1  and  C_2
REMARK    2  A    between atoms: N_7  and  C_8
REMARK    3  A    between atoms: C_11  and  O_12
REMARK    4  A    between atoms: O_12  and  C_13
REMARK    5  A    between atoms: C_13  and  C_14
REMARK    6  A    between atoms: C_23  and  C_24
REMARK                            x       y       z     vdW  Elec       q    Type
REMARK                         _______ _______ _______ _____ _____    ______ ____
ROOT
ATOM      1  C   UNL     1       2.449   7.354  19.212  0.00  0.00    +0.000 A 
ATOM      2  C   UNL     1       2.154   8.224  18.159  0.00  0.00    +0.000 A 
ATOM      3  C   UNL     1       1.383   9.362  18.351  0.00  0.00    +0.000 A 
ATOM      4  C   UNL     1       0.815   9.629  19.597  0.00  0.00    +0.000 A 
ATOM      5  C   UNL     1       1.077   8.747  20.656  0.00  0.00    +0.000 A 
ATOM      6 CL   UNL     1       0.434   9.032  22.236  0.00  0.00    +0.000 Cl
ATOM      7  C   UNL     1       1.881   7.613  20.464  0.00  0.00    +0.000 A 
ENDROOT
BRANCH   1  13
ATOM      8  C   UNL     1       4.044   2.820  20.004  0.00  0.00    +0.000 A 
ATOM      9  N   UNL     1       3.087   2.604  20.915  0.00  0.00    +0.000 NA
ATOM     10  C   UNL     1       2.263   3.625  21.149  0.00  0.00    +0.000 A 
ATOM     11  N   UNL     1       2.308   4.810  20.542  0.00  0.00    +0.000 NA
ATOM     12  C   UNL     1       3.289   5.030  19.635  0.00  0.00    +0.000 A 
ATOM     13  N   UNL     1       3.382   6.312  19.034  0.00  0.00    +0.000 N 
ATOM     14  C   UNL     1       4.220   4.038  19.361  0.00  0.00    +0.000 A 
ATOM     15  H   UNL     1       3.794   6.261  18.100  0.00  0.00    +0.000 HD
BRANCH   8  16
ATOM     16  N   UNL     1       4.863   1.710  19.767  0.00  0.00    +0.000 N 
ATOM     17  H   UNL     1       4.244   0.900  19.721  0.00  0.00    +0.000 HD
ATOM     18  H   UNL     1       5.389   1.796  18.903  0.00  0.00    +0.000 HD
ENDBRANCH   8  16
BRANCH  14  19
ATOM     19  C   UNL     1       5.326   4.234  18.422  0.00  0.00    +0.000 C 
ATOM     20  O   UNL     1       6.488   4.327  18.807  0.00  0.00    +0.000 OA
ENDBRANCH  14  19
ENDBRANCH   1  13
BRANCH   4  21
ATOM     21  O   UNL     1       0.015  10.720  19.832  0.00  0.00    +0.000 OA
BRANCH  21  22
ATOM     22  C   UNL     1      -0.345  11.464  18.664  0.00  0.00    +0.000 C 
BRANCH  22  23
ATOM     23  C   UNL     1      -1.773  11.238  18.237  0.00  0.00    +0.000 A 
ATOM     24  C   UNL     1      -2.853  11.902  18.826  0.00  0.00    +0.000 A 
ATOM     25  C   UNL     1      -4.157  11.607  18.428  0.00  0.00    +0.000 A 
ATOM     26  C   UNL     1      -4.392  10.659  17.434  0.00  0.00    +0.000 A 
ATOM     27  C   UNL     1      -3.322  10.015  16.819  0.00  0.00    +0.000 A 
ATOM     28  C   UNL     1      -2.018  10.306  17.213  0.00  0.00    +0.000 A 
ENDBRANCH  22  23
ENDBRANCH  21  22
ENDBRANCH   4  21
TORSDOF 6
ENDMDL
MODEL 3
REMARK VINA RESULT:      -7.6      1.086      1.086
REMARK  Name = 
REMARK  6 active torsions:
REMARK  status: ('A' for Active; 'I' for Inactive)
REMARK    1  A    between atoms: N_1  and  C_2
REMARK    2  A    between atoms: N_7  and  C_8
REMARK    3  A    between atoms: C_11  and  O_12
REMARK    4  A    between atoms: O_12  and  C_13
REMARK    5  A    between atoms: C_13  and  C_14
REMARK    6  A    between atoms: C_23  and  C_24
REMARK                            x       y       z     vdW  Elec       q    Type
REMARK                         _______ _______ _______ _____ _____    ______ ____
ROOT
ATOM      1  C   UNL     1       2.207   7.679  19.361  0.00  0.00    +0.000 A 
ATOM      2  C   UNL     1       1.864   8.458  18.252  0.00  0.00    +0.000 A 
ATOM      3  C   UNL     1       1.006   9.544  18.365  0.00  0.00    +0.000 A 
ATOM      4  C   UNL     1       0.400   9.841  19.586  0.00  0.00    +0.000 A 
ATOM      5  C   UNL     1       0.709   9.047  20.700  0.00  0.00    +0.000 A 
ATOM      6 CL   UNL     1       0.020   9.377  22.252  0.00  0.00    +0.000 Cl
ATOM      7  C   UNL     1       1.601   7.969  20.588  0.00  0.00    +0.000 A 
ENDROOT
BRANCH   1  13
ATOM      8  C   UNL     1       3.884   3.139  19.916  0.00  0.00    +0.000 A 
ATOM      9  N   UNL     1       2.776   2.772  20.573  0.00  0.00    +0.000 NA
ATOM     10  C   UNL     1       1.860   3.724  20.750  0.00  0.00    +0.000 A 
ATOM     11  N   UNL     1       1.955   4.980  20.314  0.00  0.00    +0.000 NA
ATOM     12  C   UNL     1       3.085   5.351  19.667  0.00  0.00    +0.000 A 
ATOM     13  N   UNL     1       3.219   6.703  19.258  0.00  0.00    +0.000 N 
ATOM     14  C   UNL     1       4.111   4.437  19.476  0.00  0.00    +0.000 A 
ATOM     15  H   UNL     1       3.815   6.789  18.432  0.00  0.00    +0.000 HD
BRANCH   8  16
ATOM     16  N   UNL     1       4.801   2.099  19.724  0.00  0.00    +0.000 N 
ATOM     17  H   UNL     1       5.724   2.533  19.689  0.00  0.00    +0.000 HD
ATOM     18  H   UNL     1       4.766   1.412  20.471  0.00  0.00    +0.000 HD
ENDBRANCH   8  16
BRANCH  14  19
ATOM     19  C   UNL     1       5.371   4.792  18.822  0.00  0.00    +0.000 C 
ATOM     20  O   UNL     1       6.446   4.717  19.410  0.00  0.00    +0.000 OA
ENDBRANCH  14  19
ENDBRANCH   1  13
BRANCH   4  21
ATOM     21  O   UNL     1      -0.485  10.880  19.743  0.00  0.00    +0.000 OA
BRANCH  21  22
ATOM     22  C   UNL     1      -0.742  11.635  18.556  0.00  0.00    +0.000 C 
BRANCH  22  23
ATOM     23  C   UNL     1      -2.135  11.432  18.017  0.00  0.00    +0.000 A 
ATOM     24  C   UNL     1      -2.386  10.855  16.769  0.00  0.00    +0.000 A 
ATOM     25  C   UNL     1      -3.694  10.747  16.297  0.00  0.00    +0.000 A 
ATOM     26  C   UNL     1      -4.760  11.203  17.071  0.00  0.00    +0.000 A 
ATOM     27  C   UNL     1      -4.524  11.752  18.329  0.00  0.00    +0.000 A 
ATOM     28  C   UNL     1      -3.219  11.861  18.803  0.00  0.00    +0.000 A 
ENDBRANCH  22  23
ENDBRANCH  21  22
ENDBRANCH   4  21
TORSDOF 6
ENDMDL
MODEL 4
REMARK VINA RESULT:      -7.6      0.684      1.102
REMARK  Name = 
REMARK  6 active torsions:
REMARK  status: ('A' for Active; 'I' for Inactive)
REMARK    1  A    between atoms: N_1  and  C_2
REMARK    2  A    between atoms: N_7  and  C_8
REMARK    3  A    between atoms: C_11  and  O_12
REMARK    4  A    between atoms: O_12  and  C_13
REMARK    5  A    between atoms: C_13  and  C_14
REMARK    6  A    between atoms: C_23  and  C_24
REMARK                            x       y       z     vdW  Elec       q    Type
REMARK                         _______ _______ _______ _____ _____    ______ ____
ROOT
ATOM      1  C   UNL     1       2.459   7.165  19.096  0.00  0.00    +0.000 A 
ATOM      2  C   UNL     1       2.220   8.004  18.005  0.00  0.00    +0.000 A 
ATOM      3  C   UNL     1       1.519   9.195  18.144  0.00  0.00    +0.000 A 
ATOM      4  C   UNL     1       0.967   9.549  19.375  0.00  0.00    +0.000 A 
ATOM      5  C   UNL     1       1.172   8.700  20.472  0.00  0.00    +0.000 A 
ATOM      6 CL   UNL     1       0.544   9.092  22.036  0.00  0.00    +0.000 Cl
ATOM      7  C   UNL     1       1.906   7.512  20.334  0.00  0.00    +0.000 A 
ENDROOT
BRANCH   1  13
ATOM      8  C   UNL     1       3.319   2.411  18.462  0.00  0.00    +0.000 A 
ATOM      9  N   UNL     1       2.014   2.126  18.563  0.00  0.00    +0.000 NA
ATOM     10  C   UNL     1       1.205   3.162  18.778  0.00  0.00    +0.000 A 
ATOM     11  N   UNL     1       1.588   4.435  18.879  0.00  0.00    +0.000 NA
ATOM     12  C   UNL     1       2.909   4.717  18.795  0.00  0.00    +0.000 A 
ATOM     13  N   UNL     1       3.328   6.062  18.968  0.00  0.00    +0.000 N 
ATOM     14  C   UNL     1       3.829   3.694  18.616  0.00  0.00    +0.000 A 
ATOM     15  H   UNL     1       4.193   6.254  18.458  0.00  0.00    +0.000 HD
BRANCH   8  16
ATOM     16  N   UNL     1       4.125   1.298  18.202  0.00  0.00    +0.000 N 
ATOM     17  H   UNL     1       4.969   1.653  17.752  0.00  0.00    +0.000 HD
ATOM     18  H   UNL     1       4.368   0.792  19.048  0.00  0.00    +0.000 HD
ENDBRANCH   8  16
BRANCH  14  19
ATOM     19  C   UNL     1       5.272   3.934  18.562  0.00  0.00    +0.000 C 
ATOM     20  O   UNL     1       5.850   4.583  19.428  0.00  0.00    +0.000 OA
ENDBRANCH  14  19
ENDBRANCH   1  13
BRANCH   4  21
ATOM     21  O   UNL     1       0.233  10.696  19.559  0.00  0.00    +0.000 OA
BRANCH  21  22
ATOM     22  C   UNL     1      -0.613  11.050  18.461  0.00  0.00    +0.000 C 
BRANCH  22  23
ATOM     23  C   UNL     1      -1.980  11.513  18.895  0.00  0.00    +0.000 A 
ATOM     24  C   UNL     1      -3.137  11.254  18.155  0.00  0.00    +0.000 A 
ATOM     25  C   UNL     1      -4.367  11.760  18.577  0.00  0.00    +0.000 A 
ATOM     26  C   UNL     1      -4.452  12.517  19.744  0.00  0.00    +0.000 A 
ATOM     27  C   UNL     1      -3.311  12.755  20.506  0.00  0.00    +0.000 A 
ATOM     28  C   UNL     1      -2.081  12.252  20.088  0.00  0.00    +0.000 A 
ENDBRANCH  22  23
ENDBRANCH  21  22
ENDBRANCH   4  21
TORSDOF 6
ENDMDL
MODEL 5
REMARK VINA RESULT:      -7.5      0.844      1.514
REMARK  Name = 
REMARK  6 active torsions:
REMARK  status: ('A' for Active; 'I' for Inactive)
REMARK    1  A    between atoms: N_1  and  C_2
REMARK    2  A    between atoms: N_7  and  C_8
REMARK    3  A    between atoms: C_11  and  O_12
REMARK    4  A    between atoms: O_12  and  C_13
REMARK    5  A    between atoms: C_13  and  C_14
REMARK    6  A    between atoms: C_23  and  C_24
REMARK                            x       y       z     vdW  Elec       q    Type
REMARK                         _______ _______ _______ _____ _____    ______ ____
ROOT
ATOM      1  C   UNL     1       2.521   7.220  18.923  0.00  0.00    +0.000 A 
ATOM      2  C   UNL     1       2.348   8.062  17.822  0.00  0.00    +0.000 A 
ATOM      3  C   UNL     1       1.653   9.259  17.926  0.00  0.00    +0.000 A 
ATOM      4  C   UNL     1       1.040   9.618  19.127  0.00  0.00    +0.000 A 
ATOM      5  C   UNL     1       1.179   8.766  20.232  0.00  0.00    +0.000 A 
ATOM      6 CL   UNL     1       0.474   9.163  21.761  0.00  0.00    +0.000 Cl
ATOM      7  C   UNL     1       1.907   7.571  20.130  0.00  0.00    +0.000 A 
ENDROOT
BRANCH   1  13
ATOM      8  C   UNL     1       3.356   2.435  18.532  0.00  0.00    +0.000 A 
ATOM      9  N   UNL     1       2.052   2.160  18.671  0.00  0.00    +0.000 NA
ATOM     10  C   UNL     1       1.250   3.210  18.845  0.00  0.00    +0.000 A 
ATOM     11  N   UNL     1       1.638   4.485  18.869  0.00  0.00    +0.000 NA
ATOM     12  C   UNL     1       2.959   4.757  18.747  0.00  0.00    +0.000 A 
ATOM     13  N   UNL     1       3.384   6.107  18.839  0.00  0.00    +0.000 N 
ATOM     14  C   UNL     1       3.872   3.722  18.607  0.00  0.00    +0.000 A 
ATOM     15  H   UNL     1       4.240   6.269  18.304  0.00  0.00    +0.000 HD
BRANCH   8  16
ATOM     16  N   UNL     1       4.154   1.306  18.318  0.00  0.00    +0.000 N 
ATOM     17  H   UNL     1       3.878   0.621  19.023  0.00  0.00    +0.000 HD
ATOM     18  H   UNL     1       4.032   0.918  17.388  0.00  0.00    +0.000 HD
ENDBRANCH   8  16
BRANCH  14  19
ATOM     19  C   UNL     1       5.315   3.954  18.514  0.00  0.00    +0.000 C 
ATOM     20  O   UNL     1       5.955   4.415  19.454  0.00  0.00    +0.000 OA
ENDBRANCH  14  19
ENDBRANCH   1  13
BRANCH   4  21
ATOM     21  O   UNL     1       0.309  10.772  19.273  0.00  0.00    +0.000 OA
BRANCH  21  22
ATOM     22  C   UNL     1      -0.853  10.856  18.445  0.00  0.00    +0.000 C 
BRANCH  22  23
ATOM     23  C   UNL     1      -2.005  11.562  19.113  0.00  0.00    +0.000 A 
ATOM     24  C   UNL     1      -1.882  12.216  20.342  0.00  0.00    +0.000 A 
ATOM     25  C   UNL     1      -2.998  12.800  20.940  0.00  0.00    +0.000 A 
ATOM     26  C   UNL     1      -4.240  12.749  20.311  0.00  0.00    +0.000 A 
ATOM     27  C   UNL     1      -4.369  12.128  19.070  0.00  0.00    +0.000 A 
ATOM     28  C   UNL     1      -3.256  11.542  18.471  0.00  0.00    +0.000 A 
ENDBRANCH  22  23
ENDBRANCH  21  22
ENDBRANCH   4  21
TORSDOF 6
ENDMDL
MODEL 6
REMARK VINA RESULT:      -7.5      1.919      3.378
REMARK  Name = 
REMARK  6 active torsions:
REMARK  status: ('A' for Active; 'I' for Inactive)
REMARK    1  A    between atoms: N_1  and  C_2
REMARK    2  A    between atoms: N_7  and  C_8
REMARK    3  A    between atoms: C_11  and  O_12
REMARK    4  A    between atoms: O_12  and  C_13
REMARK    5  A    between atoms: C_13  and  C_14
REMARK    6  A    between atoms: C_23  and  C_24
REMARK                            x       y       z     vdW  Elec       q    Type
REMARK                         _______ _______ _______ _____ _____    ______ ____
ROOT
ATOM      1  C   UNL     1       2.465   7.140  19.088  0.00  0.00    +0.000 A 
ATOM      2  C   UNL     1       2.196   7.995  18.016  0.00  0.00    +0.000 A 
ATOM      3  C   UNL     1       1.505   9.186  18.193  0.00  0.00    +0.000 A 
ATOM      4  C   UNL     1       0.993   9.526  19.446  0.00  0.00    +0.000 A 
ATOM      5  C   UNL     1       1.229   8.661  20.525  0.00  0.00    +0.000 A 
ATOM      6 CL   UNL     1       0.653   9.034  22.112  0.00  0.00    +0.000 Cl
ATOM      7  C   UNL     1       1.953   7.472  20.347  0.00  0.00    +0.000 A 
ENDROOT
BRANCH   1  13
ATOM      8  C   UNL     1       3.285   2.378  18.467  0.00  0.00    +0.000 A 
ATOM      9  N   UNL     1       1.991   2.093  18.660  0.00  0.00    +0.000 NA
ATOM     10  C   UNL     1       1.197   3.132  18.914  0.00  0.00    +0.000 A 
ATOM     11  N   UNL     1       1.584   4.407  18.970  0.00  0.00    +0.000 NA
ATOM     12  C   UNL     1       2.897   4.687  18.793  0.00  0.00    +0.000 A 
ATOM     13  N   UNL     1       3.325   6.035  18.917  0.00  0.00    +0.000 N 
ATOM     14  C   UNL     1       3.804   3.662  18.567  0.00  0.00    +0.000 A 
ATOM     15  H   UNL     1       4.153   6.220  18.347  0.00  0.00    +0.000 HD
BRANCH   8  16
ATOM     16  N   UNL     1       4.074   1.260  18.169  0.00  0.00    +0.000 N 
ATOM     17  H   UNL     1       4.383   1.376  17.204  0.00  0.00    +0.000 HD
ATOM     18  H   UNL     1       4.876   1.180  18.786  0.00  0.00    +0.000 HD
ENDBRANCH   8  16
BRANCH  14  19
ATOM     19  C   UNL     1       5.239   3.902  18.412  0.00  0.00    +0.000 C 
ATOM     20  O   UNL     1       5.919   4.357  19.327  0.00  0.00    +0.000 OA
ENDBRANCH  14  19
ENDBRANCH   1  13
BRANCH   4  21
ATOM     21  O   UNL     1       0.271  10.673  19.668  0.00  0.00    +0.000 OA
BRANCH  21  22
ATOM     22  C   UNL     1       0.515  11.727  18.733  0.00  0.00    +0.000 C 
BRANCH  22  23
ATOM     23  C   UNL     1       1.612  12.663  19.170  0.00  0.00    +0.000 A 
ATOM     24  C   UNL     1       1.839  12.990  20.510  0.00  0.00    +0.000 A 
ATOM     25  C   UNL     1       2.831  13.910  20.849  0.00  0.00    +0.000 A 
ATOM     26  C   UNL     1       3.612  14.498  19.856  0.00  0.00    +0.000 A 
ATOM     27  C   UNL     1       3.416  14.157  18.520  0.00  0.00    +0.000 A 
ATOM     28  C   UNL     1       2.425  13.240  18.178  0.00  0.00    +0.000 A 
ENDBRANCH  22  23
ENDBRANCH  21  22
ENDBRANCH   4  21
TORSDOF 6
ENDMDL
MODEL 7
REMARK VINA RESULT:      -7.4      1.923      2.651
REMARK  Name = 
REMARK  6 active torsions:
REMARK  status: ('A' for Active; 'I' for Inactive)
REMARK    1  A    between atoms: N_1  and  C_2
REMARK    2  A    between atoms: N_7  and  C_8
REMARK    3  A    between atoms: C_11  and  O_12
REMARK    4  A    between atoms: O_12  and  C_13
REMARK    5  A    between atoms: C_13  and  C_14
REMARK    6  A    between atoms: C_23  and  C_24
REMARK                            x       y       z     vdW  Elec       q    Type
REMARK                         _______ _______ _______ _____ _____    ______ ____
ROOT
ATOM      1  C   UNL     1       1.721   6.981  20.397  0.00  0.00    +0.000 A 
ATOM      2  C   UNL     1       0.947   7.648  21.350  0.00  0.00    +0.000 A 
ATOM      3  C   UNL     1       0.483   8.939  21.135  0.00  0.00    +0.000 A 
ATOM      4  C   UNL     1       0.844   9.636  19.981  0.00  0.00    +0.000 A 
ATOM      5  C   UNL     1       1.648   8.990  19.031  0.00  0.00    +0.000 A 
ATOM      6 CL   UNL     1       2.108   9.781  17.563  0.00  0.00    +0.000 Cl
ATOM      7  C   UNL     1       2.090   7.674  19.239  0.00  0.00    +0.000 A 
ENDROOT
BRANCH   1  13
ATOM      8  C   UNL     1       4.596   3.100  19.757  0.00  0.00    +0.000 A 
ATOM      9  N   UNL     1       5.412   3.793  18.952  0.00  0.00    +0.000 NA
ATOM     10  C   UNL     1       5.072   5.062  18.728  0.00  0.00    +0.000 A 
ATOM     11  N   UNL     1       4.015   5.683  19.252  0.00  0.00    +0.000 NA
ATOM     12  C   UNL     1       3.184   4.974  20.050  0.00  0.00    +0.000 A 
ATOM     13  N   UNL     1       2.022   5.612  20.557  0.00  0.00    +0.000 N 
ATOM     14  C   UNL     1       3.435   3.633  20.302  0.00  0.00    +0.000 A 
ATOM     15  H   UNL     1       1.732   5.212  21.452  0.00  0.00    +0.000 HD
BRANCH   8  16
ATOM     16  N   UNL     1       5.012   1.784  19.990  0.00  0.00    +0.000 N 
ATOM     17  H   UNL     1       4.560   1.210  19.277  0.00  0.00    +0.000 HD
ATOM     18  H   UNL     1       6.020   1.683  19.933  0.00  0.00    +0.000 HD
ENDBRANCH   8  16
BRANCH  14  19
ATOM     19  C   UNL     1       2.549   2.807  21.123  0.00  0.00    +0.000 C 
ATOM     20  O   UNL     1       2.334   3.067  22.303  0.00  0.00    +0.000 OA
ENDBRANCH  14  19
ENDBRANCH   1  13
BRANCH   4  21
ATOM     21  O   UNL     1       0.444  10.927  19.736  0.00  0.00    +0.000 OA
BRANCH  21  22
ATOM     22  C   UNL     1      -0.928  11.198  20.037  0.00  0.00    +0.000 C 
BRANCH  22  23
ATOM     23  C   UNL     1      -1.834  11.057  18.842  0.00  0.00    +0.000 A 
ATOM     24  C   UNL     1      -3.058  11.723  18.737  0.00  0.00    +0.000 A 
ATOM     25  C   UNL     1      -3.882  11.506  17.633  0.00  0.00    +0.000 A 
ATOM     26  C   UNL     1      -3.485  10.634  16.621  0.00  0.00    +0.000 A 
ATOM     27  C   UNL     1      -2.253   9.989  16.699  0.00  0.00    +0.000 A 
ATOM     28  C   UNL     1      -1.429  10.203  17.801  0.00  0.00    +0.000 A 
ENDBRANCH  22  23
ENDBRANCH  21  22
ENDBRANCH   4  21
TORSDOF 6
ENDMDL
MODEL 8
REMARK VINA RESULT:      -7.4      1.682      1.832
REMARK  Name = 
REMARK  6 active torsions:
REMARK  status: ('A' for Active; 'I' for Inactive)
REMARK    1  A    between atoms: N_1  and  C_2
REMARK    2  A    between atoms: N_7  and  C_8
REMARK    3  A    between atoms: C_11  and  O_12
REMARK    4  A    between atoms: O_12  and  C_13
REMARK    5  A    between atoms: C_13  and  C_14
REMARK    6  A    between atoms: C_23  and  C_24
REMARK                            x       y       z     vdW  Elec       q    Type
REMARK                         _______ _______ _______ _____ _____    ______ ____
ROOT
ATOM      1  C   UNL     1       2.205   8.227  18.659  0.00  0.00    +0.000 A 
ATOM      2  C   UNL     1       1.521   9.055  17.764  0.00  0.00    +0.000 A 
ATOM      3  C   UNL     1       0.508   9.904  18.189  0.00  0.00    +0.000 A 
ATOM      4  C   UNL     1       0.093   9.896  19.521  0.00  0.00    +0.000 A 
ATOM      5  C   UNL     1       0.750   9.046  20.424  0.00  0.00    +0.000 A 
ATOM      6 CL   UNL     1       0.310   9.009  22.097  0.00  0.00    +0.000 Cl
ATOM      7  C   UNL     1       1.794   8.212  19.996  0.00  0.00    +0.000 A 
ENDROOT
BRANCH   1  13
ATOM      8  C   UNL     1       4.419   4.199  17.043  0.00  0.00    +0.000 A 
ATOM      9  N   UNL     1       3.304   3.476  17.210  0.00  0.00    +0.000 NA
ATOM     10  C   UNL     1       2.251   4.132  17.697  0.00  0.00    +0.000 A 
ATOM     11  N   UNL     1       2.222   5.429  18.004  0.00  0.00    +0.000 NA
ATOM     12  C   UNL     1       3.356   6.151  17.851  0.00  0.00    +0.000 A 
ATOM     13  N   UNL     1       3.349   7.516  18.238  0.00  0.00    +0.000 N 
ATOM     14  C   UNL     1       4.514   5.540  17.392  0.00  0.00    +0.000 A 
ATOM     15  H   UNL     1       4.019   8.065  17.695  0.00  0.00    +0.000 HD
BRANCH   8  16
ATOM     16  N   UNL     1       5.487   3.477  16.498  0.00  0.00    +0.000 N 
ATOM     17  H   UNL     1       6.023   4.139  15.935  0.00  0.00    +0.000 HD
ATOM     18  H   UNL     1       6.080   3.067  17.213  0.00  0.00    +0.000 HD
ENDBRANCH   8  16
BRANCH  14  19
ATOM     19  C   UNL     1       5.780   6.260  17.247  0.00  0.00    +0.000 C 
ATOM     20  O   UNL     1       6.332   6.381  16.157  0.00  0.00    +0.000 OA
ENDBRANCH  14  19
ENDBRANCH   1  13
BRANCH   4  21
ATOM     21  O   UNL     1      -0.928  10.688  19.986  0.00  0.00    +0.000 OA
BRANCH  21  22
ATOM     22  C   UNL     1      -1.258  11.798  19.147  0.00  0.00    +0.000 C 
BRANCH  22  23
ATOM     23  C   UNL     1      -2.620  11.675  18.513  0.00  0.00    +0.000 A 
ATOM     24  C   UNL     1      -2.810  11.184  17.218  0.00  0.00    +0.000 A 
ATOM     25  C   UNL     1      -4.089  11.150  16.662  0.00  0.00    +0.000 A 
ATOM     26  C   UNL     1      -5.187  11.592  17.398  0.00  0.00    +0.000 A 
ATOM     27  C   UNL     1      -5.013  12.053  18.701  0.00  0.00    +0.000 A 
ATOM     28  C   UNL     1      -3.737  12.090  19.258  0.00  0.00    +0.000 A 
ENDBRANCH  22  23
ENDBRANCH  21  22
ENDBRANCH   4  21
TORSDOF 6
ENDMDL
MODEL 9
REMARK VINA RESULT:      -7.4      1.982      3.011
REMARK  Name = 
REMARK  6 active torsions:
REMARK  status: ('A' for Active; 'I' for Inactive)
REMARK    1  A    between atoms: N_1  and  C_2
REMARK    2  A    between atoms: N_7  and  C_8
REMARK    3  A    between atoms: C_11  and  O_12
REMARK    4  A    between atoms: O_12  and  C_13
REMARK    5  A    between atoms: C_13  and  C_14
REMARK    6  A    between atoms: C_23  and  C_24
REMARK                            x       y       z     vdW  Elec       q    Type
REMARK                         _______ _______ _______ _____ _____    ______ ____
ROOT
ATOM      1  C   UNL     1       2.620   7.100  18.403  0.00  0.00    +0.000 A 
ATOM      2  C   UNL     1       2.256   8.101  17.499  0.00  0.00    +0.000 A 
ATOM      3  C   UNL     1       1.604   9.254  17.916  0.00  0.00    +0.000 A 
ATOM      4  C   UNL     1       1.225   9.407  19.251  0.00  0.00    +0.000 A 
ATOM      5  C   UNL     1       1.556   8.394  20.163  0.00  0.00    +0.000 A 
ATOM      6 CL   UNL     1       1.148   8.532  21.838  0.00  0.00    +0.000 Cl
ATOM      7  C   UNL     1       2.242   7.245  19.742  0.00  0.00    +0.000 A 
ENDROOT
BRANCH   1  13
ATOM      8  C   UNL     1       6.906   5.259  16.996  0.00  0.00    +0.000 A 
ATOM      9  N   UNL     1       7.450   6.481  16.931  0.00  0.00    +0.000 NA
ATOM     10  C   UNL     1       6.642   7.497  17.234  0.00  0.00    +0.000 A 
ATOM     11  N   UNL     1       5.367   7.386  17.608  0.00  0.00    +0.000 NA
ATOM     12  C   UNL     1       4.816   6.150  17.654  0.00  0.00    +0.000 A 
ATOM     13  N   UNL     1       3.442   6.032  17.987  0.00  0.00    +0.000 N 
ATOM     14  C   UNL     1       5.572   5.038  17.311  0.00  0.00    +0.000 A 
ATOM     15  H   UNL     1       3.239   5.135  18.435  0.00  0.00    +0.000 HD
BRANCH   8  16
ATOM     16  N   UNL     1       7.801   4.224  16.702  0.00  0.00    +0.000 N 
ATOM     17  H   UNL     1       7.344   3.359  16.993  0.00  0.00    +0.000 HD
ATOM     18  H   UNL     1       8.030   4.182  15.714  0.00  0.00    +0.000 HD
ENDBRANCH   8  16
BRANCH  14  19
ATOM     19  C   UNL     1       5.018   3.683  17.301  0.00  0.00    +0.000 C 
ATOM     20  O   UNL     1       4.325   3.263  18.223  0.00  0.00    +0.000 OA
ENDBRANCH  14  19
ENDBRANCH   1  13
BRANCH   4  21
ATOM     21  O   UNL     1       0.546  10.510  19.709  0.00  0.00    +0.000 OA
BRANCH  21  22
ATOM     22  C   UNL     1       0.067  11.388  18.687  0.00  0.00    +0.000 C 
BRANCH  22  23
ATOM     23  C   UNL     1      -1.391  11.181  18.365  0.00  0.00    +0.000 A 
ATOM     24  C   UNL     1      -2.410  11.940  18.948  0.00  0.00    +0.000 A 
ATOM     25  C   UNL     1      -3.745  11.662  18.656  0.00  0.00    +0.000 A 
ATOM     26  C   UNL     1      -4.072  10.635  17.772  0.00  0.00    +0.000 A 
ATOM     27  C   UNL     1      -3.064   9.893  17.161  0.00  0.00    +0.000 A 
ATOM     28  C   UNL     1      -1.730  10.167  17.451  0.00  0.00    +0.000 A 
ENDBRANCH  22  23
ENDBRANCH  21  22
ENDBRANCH   4  21
TORSDOF 6
ENDMDL
