MODEL 1
REMARK VINA RESULT:      -6.9      0.000      0.000
REMARK  Name = 
REMARK  3 active torsions:
REMARK  status: ('A' for Active; 'I' for Inactive)
REMARK    1  A    between atoms: C_1  and  S_2
REMARK    2  A    between atoms: S_2  and  N_5
REMARK    3  A    between atoms: C_14  and  C_16
REMARK                            x       y       z     vdW  Elec       q    Type
REMARK                         _______ _______ _______ _____ _____    ______ ____
ROOT
ATOM      1  N   UNL     1       3.431   3.307  20.571  0.00  0.00    +0.000 NA
ATOM      2  C   UNL     1       3.887   1.944  20.969  0.00  0.00    +0.000 C 
ATOM      3  C   UNL     1       4.925   1.554  19.938  0.00  0.00    +0.000 C 
ATOM      4  C   UNL     1       4.332   2.119  18.665  0.00  0.00    +0.000 C 
ATOM      5  C   UNL     1       3.790   3.508  19.091  0.00  0.00    +0.000 C 
ATOM      6  C   UNL     1       2.586   3.918  18.200  0.00  0.00    +0.000 C 
ATOM      7  C   UNL     1       2.990   4.282  16.772  0.00  0.00    +0.000 C 
ATOM      8  C   UNL     1       4.071   5.363  16.794  0.00  0.00    +0.000 C 
ATOM      9  N   UNL     1       5.222   4.857  17.532  0.00  0.00    +0.000 N 
ATOM     10  C   UNL     1       6.464   4.482  16.999  0.00  0.00    +0.000 C 
ATOM     11  O   UNL     1       7.398   4.110  17.703  0.00  0.00    +0.000 OA
ATOM     12  C   UNL     1       4.921   4.581  18.956  0.00  0.00    +0.000 C 
ENDROOT
BRANCH  10  13
ATOM     13  C   UNL     1       6.707   4.496  15.521  0.00  0.00    +0.000 A 
ATOM     14  C   UNL     1       5.918   3.688  14.691  0.00  0.00    +0.000 A 
ATOM     15  C   UNL     1       6.138   3.684  13.312  0.00  0.00    +0.000 A 
ATOM     16  F   UNL     1       5.374   2.916  12.524  0.00  0.00    +0.000 F 
ATOM     17  C   UNL     1       7.134   4.458  12.735  0.00  0.00    +0.000 A 
ATOM     18  C   UNL     1       7.873   5.295  13.553  0.00  0.00    +0.000 A 
ATOM     19  F   UNL     1       8.832   6.064  13.026  0.00  0.00    +0.000 F 
ATOM     20  C   UNL     1       7.635   5.353  14.920  0.00  0.00    +0.000 A 
ENDBRANCH  10  13
BRANCH   1  22
ATOM     21  C   UNL     1       0.796   2.951  19.962  0.00  0.00    +0.000 C 
ATOM     22  S   UNL     1       1.883   3.742  21.129  0.00  0.00    +0.000 S 
ATOM     23  O   UNL     1       1.738   5.174  20.966  0.00  0.00    +0.000 OA
ATOM     24  O   UNL     1       1.683   3.109  22.415  0.00  0.00    +0.000 OA
ENDBRANCH   1  22
TORSDOF 2
ENDMDL
MODEL 2
REMARK VINA RESULT:      -6.9      0.076      1.673
REMARK  Name = 
REMARK  3 active torsions:
REMARK  status: ('A' for Active; 'I' for Inactive)
REMARK    1  A    between atoms: C_1  and  S_2
REMARK    2  A    between atoms: S_2  and  N_5
REMARK    3  A    between atoms: C_14  and  C_16
REMARK                            x       y       z     vdW  Elec       q    Type
REMARK                         _______ _______ _______ _____ _____    ______ ____
ROOT
ATOM      1  N   UNL     1       3.466   3.334  20.594  0.00  0.00    +0.000 NA
ATOM      2  C   UNL     1       3.917   1.967  20.988  0.00  0.00    +0.000 C 
ATOM      3  C   UNL     1       4.927   1.562  19.936  0.00  0.00    +0.000 C 
ATOM      4  C   UNL     1       4.312   2.128  18.674  0.00  0.00    +0.000 C 
ATOM      5  C   UNL     1       3.794   3.524  19.105  0.00  0.00    +0.000 C 
ATOM      6  C   UNL     1       2.575   3.943  18.240  0.00  0.00    +0.000 C 
ATOM      7  C   UNL     1       2.950   4.297  16.801  0.00  0.00    +0.000 C 
ATOM      8  C   UNL     1       4.043   5.365  16.794  0.00  0.00    +0.000 C 
ATOM      9  N   UNL     1       5.205   4.850  17.508  0.00  0.00    +0.000 N 
ATOM     10  C   UNL     1       6.430   4.460  16.949  0.00  0.00    +0.000 C 
ATOM     11  O   UNL     1       7.376   4.081  17.634  0.00  0.00    +0.000 OA
ATOM     12  C   UNL     1       4.934   4.584  18.939  0.00  0.00    +0.000 C 
ENDROOT
BRANCH  10  13
ATOM     13  C   UNL     1       6.641   4.465  15.466  0.00  0.00    +0.000 A 
ATOM     14  C   UNL     1       7.664   5.256  14.924  0.00  0.00    +0.000 A 
ATOM     15  C   UNL     1       7.868   5.280  13.543  0.00  0.00    +0.000 A 
ATOM     16  F   UNL     1       8.853   6.030  13.034  0.00  0.00    +0.000 F 
ATOM     17  C   UNL     1       7.071   4.540  12.681  0.00  0.00    +0.000 A 
ATOM     18  C   UNL     1       6.099   3.719  13.225  0.00  0.00    +0.000 A 
ATOM     19  F   UNL     1       5.321   2.985  12.422  0.00  0.00    +0.000 F 
ATOM     20  C   UNL     1       5.913   3.643  14.600  0.00  0.00    +0.000 A 
ENDBRANCH  10  13
BRANCH   1  22
ATOM     21  C   UNL     1       0.816   3.039  20.022  0.00  0.00    +0.000 C 
ATOM     22  S   UNL     1       1.937   3.788  21.185  0.00  0.00    +0.000 S 
ATOM     23  O   UNL     1       1.816   5.225  21.050  0.00  0.00    +0.000 OA
ATOM     24  O   UNL     1       1.745   3.135  22.462  0.00  0.00    +0.000 OA
ENDBRANCH   1  22
TORSDOF 2
ENDMDL
MODEL 3
REMARK VINA RESULT:      -6.5      5.613      7.370
REMARK  Name = 
REMARK  3 active torsions:
REMARK  status: ('A' for Active; 'I' for Inactive)
REMARK    1  A    between atoms: C_1  and  S_2
REMARK    2  A    between atoms: S_2  and  N_5
REMARK    3  A    between atoms: C_14  and  C_16
REMARK                            x       y       z     vdW  Elec       q    Type
REMARK                         _______ _______ _______ _____ _____    ______ ____
ROOT
ATOM      1  N   UNL     1       0.555  10.742  21.096  0.00  0.00    +0.000 NA
ATOM      2  C   UNL     1      -0.546  10.464  22.064  0.00  0.00    +0.000 C 
ATOM      3  C   UNL     1      -0.683   8.957  22.090  0.00  0.00    +0.000 C 
ATOM      4  C   UNL     1      -0.463   8.596  20.637  0.00  0.00    +0.000 C 
ATOM      5  C   UNL     1       0.715   9.504  20.200  0.00  0.00    +0.000 C 
ATOM      6  C   UNL     1       0.631   9.811  18.681  0.00  0.00    +0.000 C 
ATOM      7  C   UNL     1       0.963   8.605  17.803  0.00  0.00    +0.000 C 
ATOM      8  C   UNL     1       2.328   8.037  18.191  0.00  0.00    +0.000 C 
ATOM      9  N   UNL     1       2.290   7.647  19.595  0.00  0.00    +0.000 N 
ATOM     10  C   UNL     1       2.280   6.339  20.104  0.00  0.00    +0.000 C 
ATOM     11  O   UNL     1       2.296   6.101  21.308  0.00  0.00    +0.000 OA
ATOM     12  C   UNL     1       2.073   8.791  20.509  0.00  0.00    +0.000 C 
ENDROOT
BRANCH  10  13
ATOM     13  C   UNL     1       2.227   5.154  19.190  0.00  0.00    +0.000 A 
ATOM     14  C   UNL     1       3.193   5.025  18.182  0.00  0.00    +0.000 A 
ATOM     15  C   UNL     1       3.154   3.930  17.316  0.00  0.00    +0.000 A 
ATOM     16  F   UNL     1       4.085   3.809  16.362  0.00  0.00    +0.000 F 
ATOM     17  C   UNL     1       2.167   2.960  17.421  0.00  0.00    +0.000 A 
ATOM     18  C   UNL     1       1.250   3.063  18.452  0.00  0.00    +0.000 A 
ATOM     19  F   UNL     1       0.294   2.138  18.588  0.00  0.00    +0.000 F 
ATOM     20  C   UNL     1       1.303   4.118  19.355  0.00  0.00    +0.000 A 
ENDBRANCH  10  13
BRANCH   1  22
ATOM     21  C   UNL     1       0.181  13.355  21.781  0.00  0.00    +0.000 C 
ATOM     22  S   UNL     1       0.527  12.292  20.395  0.00  0.00    +0.000 S 
ATOM     23  O   UNL     1      -0.609  12.354  19.498  0.00  0.00    +0.000 OA
ATOM     24  O   UNL     1       1.865  12.593  19.934  0.00  0.00    +0.000 OA
ENDBRANCH   1  22
TORSDOF 2
ENDMDL
MODEL 4
REMARK VINA RESULT:      -6.4      5.273      6.998
REMARK  Name = 
REMARK  3 active torsions:
REMARK  status: ('A' for Active; 'I' for Inactive)
REMARK    1  A    between atoms: C_1  and  S_2
REMARK    2  A    between atoms: S_2  and  N_5
REMARK    3  A    between atoms: C_14  and  C_16
REMARK                            x       y       z     vdW  Elec       q    Type
REMARK                         _______ _______ _______ _____ _____    ______ ____
ROOT
ATOM      1  N   UNL     1       3.524   3.615  18.687  0.00  0.00    +0.000 NA
ATOM      2  C   UNL     1       3.049   2.950  17.438  0.00  0.00    +0.000 C 
ATOM      3  C   UNL     1       2.276   4.014  16.689  0.00  0.00    +0.000 C 
ATOM      4  C   UNL     1       1.566   4.737  17.814  0.00  0.00    +0.000 C 
ATOM      5  C   UNL     1       2.643   4.852  18.923  0.00  0.00    +0.000 C 
ATOM      6  C   UNL     1       1.978   4.894  20.324  0.00  0.00    +0.000 C 
ATOM      7  C   UNL     1       1.250   6.208  20.607  0.00  0.00    +0.000 C 
ATOM      8  C   UNL     1       2.200   7.387  20.396  0.00  0.00    +0.000 C 
ATOM      9  N   UNL     1       2.679   7.359  19.019  0.00  0.00    +0.000 N 
ATOM     10  C   UNL     1       2.327   8.243  17.989  0.00  0.00    +0.000 C 
ATOM     11  O   UNL     1       2.818   8.175  16.865  0.00  0.00    +0.000 OA
ATOM     12  C   UNL     1       3.483   6.155  18.710  0.00  0.00    +0.000 C 
ENDROOT
BRANCH  10  13
ATOM     13  C   UNL     1       1.303   9.315  18.205  0.00  0.00    +0.000 A 
ATOM     14  C   UNL     1       1.709  10.551  18.728  0.00  0.00    +0.000 A 
ATOM     15  C   UNL     1       0.766  11.559  18.944  0.00  0.00    +0.000 A 
ATOM     16  F   UNL     1       1.162  12.739  19.435  0.00  0.00    +0.000 F 
ATOM     17  C   UNL     1      -0.578  11.364  18.660  0.00  0.00    +0.000 A 
ATOM     18  C   UNL     1      -0.964  10.163  18.093  0.00  0.00    +0.000 A 
ATOM     19  F   UNL     1      -2.251   9.948  17.797  0.00  0.00    +0.000 F 
ATOM     20  C   UNL     1      -0.034   9.167  17.823  0.00  0.00    +0.000 A 
ENDBRANCH  10  13
BRANCH   1  22
ATOM     21  C   UNL     1       4.004   0.977  19.185  0.00  0.00    +0.000 C 
ATOM     22  S   UNL     1       3.864   2.563  19.981  0.00  0.00    +0.000 S 
ATOM     23  O   UNL     1       2.699   2.524  20.840  0.00  0.00    +0.000 OA
ATOM     24  O   UNL     1       5.169   2.910  20.500  0.00  0.00    +0.000 OA
ENDBRANCH   1  22
TORSDOF 2
ENDMDL
MODEL 5
REMARK VINA RESULT:      -6.4      7.257      8.699
REMARK  Name = 
REMARK  3 active torsions:
REMARK  status: ('A' for Active; 'I' for Inactive)
REMARK    1  A    between atoms: C_1  and  S_2
REMARK    2  A    between atoms: S_2  and  N_5
REMARK    3  A    between atoms: C_14  and  C_16
REMARK                            x       y       z     vdW  Elec       q    Type
REMARK                         _______ _______ _______ _____ _____    ______ ____
ROOT
ATOM      1  N   UNL     1      -0.671  12.751  21.081  0.00  0.00    +0.000 NA
ATOM      2  C   UNL     1       0.145  13.911  20.617  0.00  0.00    +0.000 C 
ATOM      3  C   UNL     1       1.254  13.309  19.781  0.00  0.00    +0.000 C 
ATOM      4  C   UNL     1       1.585  12.051  20.555  0.00  0.00    +0.000 C 
ATOM      5  C   UNL     1       0.199  11.490  20.965  0.00  0.00    +0.000 C 
ATOM      6  C   UNL     1       0.310  10.678  22.283  0.00  0.00    +0.000 C 
ATOM      7  C   UNL     1       1.031   9.341  22.109  0.00  0.00    +0.000 C 
ATOM      8  C   UNL     1       0.365   8.529  20.999  0.00  0.00    +0.000 C 
ATOM      9  N   UNL     1       0.417   9.298  19.762  0.00  0.00    +0.000 N 
ATOM     10  C   UNL     1       1.218   9.034  18.641  0.00  0.00    +0.000 C 
ATOM     11  O   UNL     1       1.164   9.710  17.617  0.00  0.00    +0.000 OA
ATOM     12  C   UNL     1      -0.351  10.562  19.832  0.00  0.00    +0.000 C 
ENDROOT
BRANCH  10  13
ATOM     13  C   UNL     1       2.209   7.911  18.646  0.00  0.00    +0.000 A 
ATOM     14  C   UNL     1       3.180   7.852  17.636  0.00  0.00    +0.000 A 
ATOM     15  C   UNL     1       4.106   6.807  17.621  0.00  0.00    +0.000 A 
ATOM     16  F   UNL     1       5.036   6.763  16.659  0.00  0.00    +0.000 F 
ATOM     17  C   UNL     1       4.085   5.808  18.583  0.00  0.00    +0.000 A 
ATOM     18  C   UNL     1       3.160   5.900  19.608  0.00  0.00    +0.000 A 
ATOM     19  F   UNL     1       3.122   4.959  20.558  0.00  0.00    +0.000 F 
ATOM     20  C   UNL     1       2.263   6.960  19.669  0.00  0.00    +0.000 A 
ENDBRANCH  10  13
BRANCH   1  22
ATOM     21  C   UNL     1      -2.631  14.385  22.044  0.00  0.00    +0.000 C 
ATOM     22  S   UNL     1      -1.575  13.024  22.496  0.00  0.00    +0.000 S 
ATOM     23  O   UNL     1      -0.666  13.493  23.521  0.00  0.00    +0.000 OA
ATOM     24  O   UNL     1      -2.418  11.867  22.712  0.00  0.00    +0.000 OA
ENDBRANCH   1  22
TORSDOF 2
ENDMDL
MODEL 6
REMARK VINA RESULT:      -6.3      5.441      7.044
REMARK  Name = 
REMARK  3 active torsions:
REMARK  status: ('A' for Active; 'I' for Inactive)
REMARK    1  A    between atoms: C_1  and  S_2
REMARK    2  A    between atoms: S_2  and  N_5
REMARK    3  A    between atoms: C_14  and  C_16
REMARK                            x       y       z     vdW  Elec       q    Type
REMARK                         _______ _______ _______ _____ _____    ______ ____
ROOT
ATOM      1  N   UNL     1       3.470   3.686  18.684  0.00  0.00    +0.000 NA
ATOM      2  C   UNL     1       3.004   3.087  17.399  0.00  0.00    +0.000 C 
ATOM      3  C   UNL     1       2.198   4.175  16.722  0.00  0.00    +0.000 C 
ATOM      4  C   UNL     1       1.478   4.809  17.893  0.00  0.00    +0.000 C 
ATOM      5  C   UNL     1       2.560   4.883  19.001  0.00  0.00    +0.000 C 
ATOM      6  C   UNL     1       1.904   4.821  20.406  0.00  0.00    +0.000 C 
ATOM      7  C   UNL     1       1.145   6.095  20.774  0.00  0.00    +0.000 C 
ATOM      8  C   UNL     1       2.062   7.309  20.631  0.00  0.00    +0.000 C 
ATOM      9  N   UNL     1       2.532   7.380  19.252  0.00  0.00    +0.000 N 
ATOM     10  C   UNL     1       2.150   8.316  18.280  0.00  0.00    +0.000 C 
ATOM     11  O   UNL     1       2.635   8.330  17.152  0.00  0.00    +0.000 OA
ATOM     12  C   UNL     1       3.364   6.218  18.865  0.00  0.00    +0.000 C 
ENDROOT
BRANCH  10  13
ATOM     13  C   UNL     1       1.101   9.345  18.568  0.00  0.00    +0.000 A 
ATOM     14  C   UNL     1      -0.080   9.348  17.811  0.00  0.00    +0.000 A 
ATOM     15  C   UNL     1      -1.064  10.306  18.061  0.00  0.00    +0.000 A 
ATOM     16  F   UNL     1      -2.192  10.297  17.340  0.00  0.00    +0.000 F 
ATOM     17  C   UNL     1      -0.901  11.273  19.042  0.00  0.00    +0.000 A 
ATOM     18  C   UNL     1       0.241  11.232  19.823  0.00  0.00    +0.000 A 
ATOM     19  F   UNL     1       0.423  12.143  20.785  0.00  0.00    +0.000 F 
ATOM     20  C   UNL     1       1.209  10.256  19.624  0.00  0.00    +0.000 A 
ENDBRANCH  10  13
BRANCH   1  22
ATOM     21  C   UNL     1       3.893   1.015  19.035  0.00  0.00    +0.000 C 
ATOM     22  S   UNL     1       3.846   2.566  19.908  0.00  0.00    +0.000 S 
ATOM     23  O   UNL     1       2.729   2.520  20.828  0.00  0.00    +0.000 OA
ATOM     24  O   UNL     1       5.188   2.850  20.370  0.00  0.00    +0.000 OA
ENDBRANCH   1  22
TORSDOF 2
ENDMDL
MODEL 7
REMARK VINA RESULT:      -6.3      5.472      7.114
REMARK  Name = 
REMARK  3 active torsions:
REMARK  status: ('A' for Active; 'I' for Inactive)
REMARK    1  A    between atoms: C_1  and  S_2
REMARK    2  A    between atoms: S_2  and  N_5
REMARK    3  A    between atoms: C_14  and  C_16
REMARK                            x       y       z     vdW  Elec       q    Type
REMARK                         _______ _______ _______ _____ _____    ______ ____
ROOT
ATOM      1  N   UNL     1       0.713  10.653  21.123  0.00  0.00    +0.000 NA
ATOM      2  C   UNL     1      -0.450  10.398  22.022  0.00  0.00    +0.000 C 
ATOM      3  C   UNL     1      -0.645   8.897  22.006  0.00  0.00    +0.000 C 
ATOM      4  C   UNL     1      -0.357   8.558  20.559  0.00  0.00    +0.000 C 
ATOM      5  C   UNL     1       0.877   9.429  20.209  0.00  0.00    +0.000 C 
ATOM      6  C   UNL     1       0.890   9.770  18.695  0.00  0.00    +0.000 C 
ATOM      7  C   UNL     1       1.226   8.571  17.810  0.00  0.00    +0.000 C 
ATOM      8  C   UNL     1       2.545   7.943  18.259  0.00  0.00    +0.000 C 
ATOM      9  N   UNL     1       2.413   7.525  19.649  0.00  0.00    +0.000 N 
ATOM     10  C   UNL     1       2.326   6.209  20.127  0.00  0.00    +0.000 C 
ATOM     11  O   UNL     1       2.265   5.945  21.324  0.00  0.00    +0.000 OA
ATOM     12  C   UNL     1       2.188   8.658  20.576  0.00  0.00    +0.000 C 
ENDROOT
BRANCH  10  13
ATOM     13  C   UNL     1       2.280   5.046  19.184  0.00  0.00    +0.000 A 
ATOM     14  C   UNL     1       1.265   4.090  19.328  0.00  0.00    +0.000 A 
ATOM     15  C   UNL     1       1.212   2.994  18.463  0.00  0.00    +0.000 A 
ATOM     16  F   UNL     1       0.235   2.091  18.601  0.00  0.00    +0.000 F 
ATOM     17  C   UNL     1       2.155   2.819  17.460  0.00  0.00    +0.000 A 
ATOM     18  C   UNL     1       3.122   3.794  17.288  0.00  0.00    +0.000 A 
ATOM     19  F   UNL     1       4.037   3.660  16.322  0.00  0.00    +0.000 F 
ATOM     20  C   UNL     1       3.160   4.916  18.105  0.00  0.00    +0.000 A 
ENDBRANCH  10  13
BRANCH   1  22
ATOM     21  C   UNL     1      -0.830  12.417  19.729  0.00  0.00    +0.000 C 
ATOM     22  S   UNL     1       0.783  12.217  20.458  0.00  0.00    +0.000 S 
ATOM     23  O   UNL     1       1.753  12.201  19.383  0.00  0.00    +0.000 OA
ATOM     24  O   UNL     1       0.890  13.158  21.552  0.00  0.00    +0.000 OA
ENDBRANCH   1  22
TORSDOF 2
ENDMDL
MODEL 8
REMARK VINA RESULT:      -6.2      7.188      8.545
REMARK  Name = 
REMARK  3 active torsions:
REMARK  status: ('A' for Active; 'I' for Inactive)
REMARK    1  A    between atoms: C_1  and  S_2
REMARK    2  A    between atoms: S_2  and  N_5
REMARK    3  A    between atoms: C_14  and  C_16
REMARK                            x       y       z     vdW  Elec       q    Type
REMARK                         _______ _______ _______ _____ _____    ______ ____
ROOT
ATOM      1  N   UNL     1      -0.391  12.810  20.819  0.00  0.00    +0.000 NA
ATOM      2  C   UNL     1       0.485  13.935  20.380  0.00  0.00    +0.000 C 
ATOM      3  C   UNL     1       1.610  13.285  19.603  0.00  0.00    +0.000 C 
ATOM      4  C   UNL     1       1.860  12.026  20.406  0.00  0.00    +0.000 C 
ATOM      5  C   UNL     1       0.438  11.519  20.758  0.00  0.00    +0.000 C 
ATOM      6  C   UNL     1       0.460  10.721  22.089  0.00  0.00    +0.000 C 
ATOM      7  C   UNL     1       1.140   9.358  21.964  0.00  0.00    +0.000 C 
ATOM      8  C   UNL     1       0.498   8.555  20.834  0.00  0.00    +0.000 C 
ATOM      9  N   UNL     1       0.634   9.306  19.591  0.00  0.00    +0.000 N 
ATOM     10  C   UNL     1       1.476   8.998  18.512  0.00  0.00    +0.000 C 
ATOM     11  O   UNL     1       1.492   9.662  17.479  0.00  0.00    +0.000 OA
ATOM     12  C   UNL     1      -0.092  10.596  19.611  0.00  0.00    +0.000 C 
ENDROOT
BRANCH  10  13
ATOM     13  C   UNL     1       2.425   7.842  18.576  0.00  0.00    +0.000 A 
ATOM     14  C   UNL     1       2.264   6.881  19.584  0.00  0.00    +0.000 A 
ATOM     15  C   UNL     1       3.145   5.801  19.663  0.00  0.00    +0.000 A 
ATOM     16  F   UNL     1       2.980   4.883  20.623  0.00  0.00    +0.000 F 
ATOM     17  C   UNL     1       4.194   5.655  18.766  0.00  0.00    +0.000 A 
ATOM     18  C   UNL     1       4.315   6.576  17.740  0.00  0.00    +0.000 A 
ATOM     19  F   UNL     1       5.308   6.457  16.852  0.00  0.00    +0.000 F 
ATOM     20  C   UNL     1       3.418   7.629  17.614  0.00  0.00    +0.000 A 
ENDBRANCH  10  13
BRANCH   1  22
ATOM     21  C   UNL     1      -2.079  14.712  21.806  0.00  0.00    +0.000 C 
ATOM     22  S   UNL     1      -1.350  13.133  22.187  0.00  0.00    +0.000 S 
ATOM     23  O   UNL     1      -0.463  13.319  23.318  0.00  0.00    +0.000 OA
ATOM     24  O   UNL     1      -2.415  12.155  22.222  0.00  0.00    +0.000 OA
ENDBRANCH   1  22
TORSDOF 2
ENDMDL
MODEL 9
REMARK VINA RESULT:      -6.0     11.692     14.063
REMARK  Name = 
REMARK  3 active torsions:
REMARK  status: ('A' for Active; 'I' for Inactive)
REMARK    1  A    between atoms: C_1  and  S_2
REMARK    2  A    between atoms: S_2  and  N_5
REMARK    3  A    between atoms: C_14  and  C_16
REMARK                            x       y       z     vdW  Elec       q    Type
REMARK                         _______ _______ _______ _____ _____    ______ ____
ROOT
ATOM      1  N   UNL     1       1.286  13.456  19.528  0.00  0.00    +0.000 NA
ATOM      2  C   UNL     1       1.612  12.039  19.193  0.00  0.00    +0.000 C 
ATOM      3  C   UNL     1       0.398  11.240  19.616  0.00  0.00    +0.000 C 
ATOM      4  C   UNL     1      -0.007  11.936  20.897  0.00  0.00    +0.000 C 
ATOM      5  C   UNL     1       0.158  13.443  20.571  0.00  0.00    +0.000 C 
ATOM      6  C   UNL     1       0.482  14.246  21.860  0.00  0.00    +0.000 C 
ATOM      7  C   UNL     1      -0.709  14.369  22.809  0.00  0.00    +0.000 C 
ATOM      8  C   UNL     1      -1.911  14.953  22.066  0.00  0.00    +0.000 C 
ATOM      9  N   UNL     1      -2.241  14.075  20.950  0.00  0.00    +0.000 N 
ATOM     10  C   UNL     1      -3.357  13.232  20.846  0.00  0.00    +0.000 C 
ATOM     11  O   UNL     1      -3.583  12.559  19.843  0.00  0.00    +0.000 OA
ATOM     12  C   UNL     1      -1.163  13.994  19.938  0.00  0.00    +0.000 C 
ENDROOT
BRANCH  10  13
ATOM     13  C   UNL     1      -4.329  13.091  21.976  0.00  0.00    +0.000 A 
ATOM     14  C   UNL     1      -5.694  13.298  21.732  0.00  0.00    +0.000 A 
ATOM     15  C   UNL     1      -6.614  13.179  22.777  0.00  0.00    +0.000 A 
ATOM     16  F   UNL     1      -7.916  13.368  22.535  0.00  0.00    +0.000 F 
ATOM     17  C   UNL     1      -6.207  12.869  24.067  0.00  0.00    +0.000 A 
ATOM     18  C   UNL     1      -4.866  12.613  24.290  0.00  0.00    +0.000 A 
ATOM     19  F   UNL     1      -4.443  12.299  25.520  0.00  0.00    +0.000 F 
ATOM     20  C   UNL     1      -3.943  12.675  23.254  0.00  0.00    +0.000 A 
ENDBRANCH  10  13
BRANCH   1  22
ATOM     21  C   UNL     1       3.556  14.259  18.247  0.00  0.00    +0.000 C 
ATOM     22  S   UNL     1       2.631  14.473  19.754  0.00  0.00    +0.000 S 
ATOM     23  O   UNL     1       3.423  13.929  20.838  0.00  0.00    +0.000 OA
ATOM     24  O   UNL     1       2.153  15.838  19.785  0.00  0.00    +0.000 OA
ENDBRANCH   1  22
TORSDOF 2
ENDMDL
