MODEL 1
REMARK VINA RESULT:      -7.5      0.000      0.000
REMARK  Name = 
REMARK  5 active torsions:
REMARK  status: ('A' for Active; 'I' for Inactive)
REMARK    1  A    between atoms: C_1  and  N_2
REMARK    2  A    between atoms: C_3  and  C_5
REMARK    3  A    between atoms: C_5  and  C_6
REMARK    4  A    between atoms: N_13  and  S_14
REMARK    5  A    between atoms: S_14  and  C_17
REMARK                            x       y       z     vdW  Elec       q    Type
REMARK                         _______ _______ _______ _____ _____    ______ ____
ROOT
ATOM      1  C   UNL     1       5.714   4.271  14.482  0.00  0.00    +0.000 C 
ATOM      2  C   UNL     1       7.183   4.151  14.970  0.00  0.00    +0.000 C 
ATOM      3  C   UNL     1       7.360   4.333  16.477  0.00  0.00    +0.000 C 
ATOM      4  O   UNL     1       6.676   5.476  16.960  0.00  0.00    +0.000 OA
ATOM      5  C   UNL     1       5.270   5.507  16.669  0.00  0.00    +0.000 C 
ATOM      6  C   UNL     1       4.540   4.311  17.317  0.00  0.00    +0.000 C 
ATOM      7  C   UNL     1       4.594   4.380  18.832  0.00  0.00    +0.000 C 
ATOM      8  N   UNL     1       3.981   5.640  19.309  0.00  0.00    +0.000 NA
ATOM      9  C   UNL     1       4.799   6.795  18.796  0.00  0.00    +0.000 C 
ATOM     10  C   UNL     1       4.785   6.847  17.265  0.00  0.00    +0.000 C 
ATOM     11  C   UNL     1       5.069   5.497  15.145  0.00  0.00    +0.000 C 
ENDROOT
BRANCH   8  12
ATOM     12  S   UNL     1       2.268   5.742  19.148  0.00  0.00    +0.000 S 
ATOM     13  O   UNL     1       1.920   5.178  17.855  0.00  0.00    +0.000 OA
ATOM     14  O   UNL     1       1.636   5.182  20.334  0.00  0.00    +0.000 OA
BRANCH  12  15
ATOM     15  C   UNL     1       1.923   7.464  19.074  0.00  0.00    +0.000 A 
ATOM     16  C   UNL     1       1.931   8.129  17.827  0.00  0.00    +0.000 A 
ATOM     17  C   UNL     1       1.640   9.507  17.677  0.00  0.00    +0.000 A 
ATOM     18  C   UNL     1       1.269  10.332  18.752  0.00  0.00    +0.000 A 
ATOM     19  C   UNL     1       1.200   9.705  20.020  0.00  0.00    +0.000 A 
ATOM     20  N   UNL     1       0.844  10.313  21.160  0.00  0.00    +0.000 NA
ATOM     21  S   UNL     1       0.886   9.155  22.346  0.00  0.00    +0.000 S 
ATOM     22  N   UNL     1       1.450   7.850  21.482  0.00  0.00    +0.000 NA
ATOM     23  C   UNL     1       1.539   8.236  20.203  0.00  0.00    +0.000 A 
ENDBRANCH  12  15
ENDBRANCH   8  12
BRANCH   1  24
ATOM     24  C   UNL     1       5.608   4.375  12.943  0.00  0.00    +0.000 C 
BRANCH  24  27
ATOM     25  C   UNL     1       6.341   1.090  11.071  0.00  0.00    +0.000 C 
ATOM     26  N   UNL     1       6.450   2.240  11.943  0.00  0.00    +0.000 N 
ATOM     27  C   UNL     1       5.400   3.116  12.086  0.00  0.00    +0.000 C 
ATOM     28  O   UNL     1       4.341   2.955  11.477  0.00  0.00    +0.000 OA
ATOM     29  H   UNL     1       7.379   2.558  12.167  0.00  0.00    +0.000 HD
ENDBRANCH  24  27
ENDBRANCH   1  24
TORSDOF 4
ENDMDL
MODEL 2
REMARK VINA RESULT:      -7.2      8.168      9.579
REMARK  Name = 
REMARK  5 active torsions:
REMARK  status: ('A' for Active; 'I' for Inactive)
REMARK    1  A    between atoms: C_1  and  N_2
REMARK    2  A    between atoms: C_3  and  C_5
REMARK    3  A    between atoms: C_5  and  C_6
REMARK    4  A    between atoms: N_13  and  S_14
REMARK    5  A    between atoms: S_14  and  C_17
REMARK                            x       y       z     vdW  Elec       q    Type
REMARK                         _______ _______ _______ _____ _____    ______ ____
ROOT
ATOM      1  C   UNL     1      -2.730  10.709  16.551  0.00  0.00    +0.000 C 
ATOM      2  C   UNL     1      -4.082  11.244  17.096  0.00  0.00    +0.000 C 
ATOM      3  C   UNL     1      -3.944  12.234  18.251  0.00  0.00    +0.000 C 
ATOM      4  O   UNL     1      -3.055  11.766  19.251  0.00  0.00    +0.000 OA
ATOM      5  C   UNL     1      -1.737  11.441  18.784  0.00  0.00    +0.000 C 
ATOM      6  C   UNL     1      -1.036  12.678  18.185  0.00  0.00    +0.000 C 
ATOM      7  C   UNL     1      -0.789  13.743  19.237  0.00  0.00    +0.000 C 
ATOM      8  N   UNL     1       0.042  13.197  20.333  0.00  0.00    +0.000 NA
ATOM      9  C   UNL     1      -0.723  12.091  21.009  0.00  0.00    +0.000 C 
ATOM     10  C   UNL     1      -0.998  10.935  20.042  0.00  0.00    +0.000 C 
ATOM     11  C   UNL     1      -1.835  10.319  17.736  0.00  0.00    +0.000 C 
ENDROOT
BRANCH   8  12
ATOM     12  S   UNL     1       1.693  12.897  19.936  0.00  0.00    +0.000 S 
ATOM     13  O   UNL     1       2.410  12.704  21.185  0.00  0.00    +0.000 OA
ATOM     14  O   UNL     1       1.765  11.844  18.933  0.00  0.00    +0.000 OA
BRANCH  12  15
ATOM     15  C   UNL     1       2.269  14.401  19.233  0.00  0.00    +0.000 A 
ATOM     16  C   UNL     1       2.867  14.393  17.952  0.00  0.00    +0.000 A 
ATOM     17  C   UNL     1       3.334  15.563  17.304  0.00  0.00    +0.000 A 
ATOM     18  C   UNL     1       3.203  16.848  17.856  0.00  0.00    +0.000 A 
ATOM     19  C   UNL     1       2.567  16.919  19.120  0.00  0.00    +0.000 A 
ATOM     20  N   UNL     1       2.328  18.049  19.799  0.00  0.00    +0.000 NA
ATOM     21  S   UNL     1       1.541  17.607  21.189  0.00  0.00    +0.000 S 
ATOM     22  N   UNL     1       1.553  15.951  21.037  0.00  0.00    +0.000 NA
ATOM     23  C   UNL     1       2.089  15.671  19.842  0.00  0.00    +0.000 A 
ENDBRANCH  12  15
ENDBRANCH   8  12
BRANCH   1  24
ATOM     24  C   UNL     1      -2.911   9.505  15.597  0.00  0.00    +0.000 C 
BRANCH  24  27
ATOM     25  C   UNL     1      -4.786   9.903  12.256  0.00  0.00    +0.000 C 
ATOM     26  N   UNL     1      -4.478   9.792  13.666  0.00  0.00    +0.000 N 
ATOM     27  C   UNL     1      -3.175   9.727  14.099  0.00  0.00    +0.000 C 
ATOM     28  O   UNL     1      -2.232   9.756  13.306  0.00  0.00    +0.000 OA
ATOM     29  H   UNL     1      -5.206   9.438  14.266  0.00  0.00    +0.000 HD
ENDBRANCH  24  27
ENDBRANCH   1  24
TORSDOF 4
ENDMDL
MODEL 3
REMARK VINA RESULT:      -7.0      8.671     11.401
REMARK  Name = 
REMARK  5 active torsions:
REMARK  status: ('A' for Active; 'I' for Inactive)
REMARK    1  A    between atoms: C_1  and  N_2
REMARK    2  A    between atoms: C_3  and  C_5
REMARK    3  A    between atoms: C_5  and  C_6
REMARK    4  A    between atoms: N_13  and  S_14
REMARK    5  A    between atoms: S_14  and  C_17
REMARK                            x       y       z     vdW  Elec       q    Type
REMARK                         _______ _______ _______ _____ _____    ______ ____
ROOT
ATOM      1  C   UNL     1      -1.242  11.290  20.023  0.00  0.00    +0.000 C 
ATOM      2  C   UNL     1      -0.341  10.398  20.920  0.00  0.00    +0.000 C 
ATOM      3  C   UNL     1      -0.501  10.652  22.418  0.00  0.00    +0.000 C 
ATOM      4  O   UNL     1      -0.453  12.033  22.733  0.00  0.00    +0.000 OA
ATOM      5  C   UNL     1      -1.412  12.845  22.039  0.00  0.00    +0.000 C 
ATOM      6  C   UNL     1      -2.856  12.416  22.378  0.00  0.00    +0.000 C 
ATOM      7  C   UNL     1      -3.178  12.654  23.842  0.00  0.00    +0.000 C 
ATOM      8  N   UNL     1      -3.005  14.084  24.178  0.00  0.00    +0.000 NA
ATOM      9  C   UNL     1      -1.557  14.448  23.991  0.00  0.00    +0.000 C 
ATOM     10  C   UNL     1      -1.127  14.281  22.530  0.00  0.00    +0.000 C 
ATOM     11  C   UNL     1      -1.163  12.739  20.525  0.00  0.00    +0.000 C 
ENDROOT
BRANCH   8  12
ATOM     12  S   UNL     1      -4.187  15.153  23.519  0.00  0.00    +0.000 S 
ATOM     13  O   UNL     1      -4.632  16.022  24.595  0.00  0.00    +0.000 OA
ATOM     14  O   UNL     1      -3.660  15.769  22.310  0.00  0.00    +0.000 OA
BRANCH  12  15
ATOM     15  C   UNL     1      -5.542  14.118  23.092  0.00  0.00    +0.000 A 
ATOM     16  C   UNL     1      -6.314  13.516  24.110  0.00  0.00    +0.000 A 
ATOM     17  C   UNL     1      -7.436  12.691  23.852  0.00  0.00    +0.000 A 
ATOM     18  C   UNL     1      -7.914  12.433  22.556  0.00  0.00    +0.000 A 
ATOM     19  C   UNL     1      -7.205  13.051  21.498  0.00  0.00    +0.000 A 
ATOM     20  N   UNL     1      -7.516  12.947  20.199  0.00  0.00    +0.000 NA
ATOM     21  S   UNL     1      -6.415  13.872  19.374  0.00  0.00    +0.000 S 
ATOM     22  N   UNL     1      -5.434  14.369  20.622  0.00  0.00    +0.000 NA
ATOM     23  C   UNL     1      -5.981  13.913  21.756  0.00  0.00    +0.000 A 
ENDBRANCH  12  15
ENDBRANCH   8  12
BRANCH   1  24
ATOM     24  C   UNL     1      -0.847  11.217  18.530  0.00  0.00    +0.000 C 
BRANCH  24  27
ATOM     25  C   UNL     1      -3.074  10.950  15.398  0.00  0.00    +0.000 C 
ATOM     26  N   UNL     1      -2.090  11.392  16.364  0.00  0.00    +0.000 N 
ATOM     27  C   UNL     1      -1.825  10.648  17.489  0.00  0.00    +0.000 C 
ATOM     28  O   UNL     1      -2.415   9.590  17.714  0.00  0.00    +0.000 OA
ATOM     29  H   UNL     1      -1.862  12.373  16.367  0.00  0.00    +0.000 HD
ENDBRANCH  24  27
ENDBRANCH   1  24
TORSDOF 4
ENDMDL
MODEL 4
REMARK VINA RESULT:      -6.9      8.516     10.604
REMARK  Name = 
REMARK  5 active torsions:
REMARK  status: ('A' for Active; 'I' for Inactive)
REMARK    1  A    between atoms: C_1  and  N_2
REMARK    2  A    between atoms: C_3  and  C_5
REMARK    3  A    between atoms: C_5  and  C_6
REMARK    4  A    between atoms: N_13  and  S_14
REMARK    5  A    between atoms: S_14  and  C_17
REMARK                            x       y       z     vdW  Elec       q    Type
REMARK                         _______ _______ _______ _____ _____    ______ ____
ROOT
ATOM      1  C   UNL     1      -0.712  11.705  19.452  0.00  0.00    +0.000 C 
ATOM      2  C   UNL     1      -1.199  11.858  20.920  0.00  0.00    +0.000 C 
ATOM      3  C   UNL     1      -0.648  13.089  21.637  0.00  0.00    +0.000 C 
ATOM      4  O   UNL     1       0.753  13.221  21.470  0.00  0.00    +0.000 OA
ATOM      5  C   UNL     1       1.197  13.266  20.106  0.00  0.00    +0.000 C 
ATOM      6  C   UNL     1       0.598  14.479  19.363  0.00  0.00    +0.000 C 
ATOM      7  C   UNL     1       1.095  15.790  19.944  0.00  0.00    +0.000 C 
ATOM      8  N   UNL     1       2.571  15.855  19.869  0.00  0.00    +0.000 NA
ATOM      9  C   UNL     1       3.144  14.759  20.726  0.00  0.00    +0.000 C 
ATOM     10  C   UNL     1       2.734  13.377  20.206  0.00  0.00    +0.000 C 
ATOM     11  C   UNL     1       0.802  11.957  19.403  0.00  0.00    +0.000 C 
ENDROOT
BRANCH   8  12
ATOM     12  S   UNL     1       3.228  16.056  18.287  0.00  0.00    +0.000 S 
ATOM     13  O   UNL     1       2.784  14.926  17.488  0.00  0.00    +0.000 OA
ATOM     14  O   UNL     1       2.930  17.397  17.807  0.00  0.00    +0.000 OA
BRANCH  12  15
ATOM     15  C   UNL     1       4.966  15.894  18.496  0.00  0.00    +0.000 A 
ATOM     16  C   UNL     1       5.658  14.852  17.839  0.00  0.00    +0.000 A 
ATOM     17  C   UNL     1       7.059  14.667  17.935  0.00  0.00    +0.000 A 
ATOM     18  C   UNL     1       7.898  15.533  18.655  0.00  0.00    +0.000 A 
ATOM     19  C   UNL     1       7.262  16.624  19.295  0.00  0.00    +0.000 A 
ATOM     20  N   UNL     1       7.888  17.569  20.008  0.00  0.00    +0.000 NA
ATOM     21  S   UNL     1       6.719  18.630  20.516  0.00  0.00    +0.000 S 
ATOM     22  N   UNL     1       5.352  17.884  19.933  0.00  0.00    +0.000 NA
ATOM     23  C   UNL     1       5.757  16.818  19.229  0.00  0.00    +0.000 A 
ENDBRANCH  12  15
ENDBRANCH   8  12
BRANCH   1  24
ATOM     24  C   UNL     1      -1.045  10.316  18.860  0.00  0.00    +0.000 C 
BRANCH  24  27
ATOM     25  C   UNL     1      -2.899  10.929  15.540  0.00  0.00    +0.000 C 
ATOM     26  N   UNL     1      -1.912  10.950  16.599  0.00  0.00    +0.000 N 
ATOM     27  C   UNL     1      -2.070  10.175  17.724  0.00  0.00    +0.000 C 
ATOM     28  O   UNL     1      -3.053   9.445  17.869  0.00  0.00    +0.000 OA
ATOM     29  H   UNL     1      -1.311  11.757  16.648  0.00  0.00    +0.000 HD
ENDBRANCH  24  27
ENDBRANCH   1  24
TORSDOF 4
ENDMDL
MODEL 5
REMARK VINA RESULT:      -6.9      5.028      8.274
REMARK  Name = 
REMARK  5 active torsions:
REMARK  status: ('A' for Active; 'I' for Inactive)
REMARK    1  A    between atoms: C_1  and  N_2
REMARK    2  A    between atoms: C_3  and  C_5
REMARK    3  A    between atoms: C_5  and  C_6
REMARK    4  A    between atoms: N_13  and  S_14
REMARK    5  A    between atoms: S_14  and  C_17
REMARK                            x       y       z     vdW  Elec       q    Type
REMARK                         _______ _______ _______ _____ _____    ______ ____
ROOT
ATOM      1  C   UNL     1       1.863   8.084  19.975  0.00  0.00    +0.000 C 
ATOM      2  C   UNL     1       2.103   8.276  18.453  0.00  0.00    +0.000 C 
ATOM      3  C   UNL     1       1.774   9.677  17.939  0.00  0.00    +0.000 C 
ATOM      4  O   UNL     1       0.509  10.128  18.391  0.00  0.00    +0.000 OA
ATOM      5  C   UNL     1       0.342  10.127  19.817  0.00  0.00    +0.000 C 
ATOM      6  C   UNL     1       1.360  11.065  20.499  0.00  0.00    +0.000 C 
ATOM      7  C   UNL     1       1.127  12.514  20.113  0.00  0.00    +0.000 C 
ATOM      8  N   UNL     1      -0.243  12.930  20.487  0.00  0.00    +0.000 NA
ATOM      9  C   UNL     1      -1.225  12.110  19.695  0.00  0.00    +0.000 C 
ATOM     10  C   UNL     1      -1.105  10.620  20.034  0.00  0.00    +0.000 C 
ATOM     11  C   UNL     1       0.501   8.690  20.343  0.00  0.00    +0.000 C 
ENDROOT
BRANCH   8  12
ATOM     12  S   UNL     1      -0.532  13.106  22.178  0.00  0.00    +0.000 S 
ATOM     13  O   UNL     1      -0.356  11.798  22.786  0.00  0.00    +0.000 OA
ATOM     14  O   UNL     1       0.260  14.215  22.690  0.00  0.00    +0.000 OA
BRANCH  12  15
ATOM     15  C   UNL     1      -2.238  13.513  22.304  0.00  0.00    +0.000 A 
ATOM     16  C   UNL     1      -3.107  12.674  23.036  0.00  0.00    +0.000 A 
ATOM     17  C   UNL     1      -4.487  12.942  23.207  0.00  0.00    +0.000 A 
ATOM     18  C   UNL     1      -5.111  14.095  22.703  0.00  0.00    +0.000 A 
ATOM     19  C   UNL     1      -4.275  14.996  22.000  0.00  0.00    +0.000 A 
ATOM     20  N   UNL     1      -4.673  16.158  21.465  0.00  0.00    +0.000 NA
ATOM     21  S   UNL     1      -3.329  16.852  20.787  0.00  0.00    +0.000 S 
ATOM     22  N   UNL     1      -2.198  15.663  21.059  0.00  0.00    +0.000 NA
ATOM     23  C   UNL     1      -2.800  14.708  21.781  0.00  0.00    +0.000 A 
ENDBRANCH  12  15
ENDBRANCH   8  12
BRANCH   1  24
ATOM     24  C   UNL     1       1.921   6.598  20.401  0.00  0.00    +0.000 C 
BRANCH  24  27
ATOM     25  C   UNL     1       4.969   4.756  18.933  0.00  0.00    +0.000 C 
ATOM     26  N   UNL     1       4.127   5.619  19.735  0.00  0.00    +0.000 N 
ATOM     27  C   UNL     1       2.759   5.588  19.600  0.00  0.00    +0.000 C 
ATOM     28  O   UNL     1       2.208   4.833  18.796  0.00  0.00    +0.000 OA
ATOM     29  H   UNL     1       4.556   6.441  20.126  0.00  0.00    +0.000 HD
ENDBRANCH  24  27
ENDBRANCH   1  24
TORSDOF 4
ENDMDL
MODEL 6
REMARK VINA RESULT:      -6.9      8.070     11.256
REMARK  Name = 
REMARK  5 active torsions:
REMARK  status: ('A' for Active; 'I' for Inactive)
REMARK    1  A    between atoms: C_1  and  N_2
REMARK    2  A    between atoms: C_3  and  C_5
REMARK    3  A    between atoms: C_5  and  C_6
REMARK    4  A    between atoms: N_13  and  S_14
REMARK    5  A    between atoms: S_14  and  C_17
REMARK                            x       y       z     vdW  Elec       q    Type
REMARK                         _______ _______ _______ _____ _____    ______ ____
ROOT
ATOM      1  C   UNL     1       1.093  13.465  18.651  0.00  0.00    +0.000 C 
ATOM      2  C   UNL     1       0.223  14.715  18.958  0.00  0.00    +0.000 C 
ATOM      3  C   UNL     1       1.020  16.008  19.124  0.00  0.00    +0.000 C 
ATOM      4  O   UNL     1       2.129  15.842  19.989  0.00  0.00    +0.000 OA
ATOM      5  C   UNL     1       3.043  14.803  19.609  0.00  0.00    +0.000 C 
ATOM      6  C   UNL     1       3.665  15.084  18.224  0.00  0.00    +0.000 C 
ATOM      7  C   UNL     1       4.530  16.331  18.246  0.00  0.00    +0.000 C 
ATOM      8  N   UNL     1       5.613  16.185  19.243  0.00  0.00    +0.000 NA
ATOM      9  C   UNL     1       4.993  16.068  20.610  0.00  0.00    +0.000 C 
ATOM     10  C   UNL     1       4.119  14.813  20.716  0.00  0.00    +0.000 C 
ATOM     11  C   UNL     1       2.300  13.456  19.600  0.00  0.00    +0.000 C 
ENDROOT
BRANCH   8  12
ATOM     12  S   UNL     1       6.857  15.063  18.834  0.00  0.00    +0.000 S 
ATOM     13  O   UNL     1       7.259  14.397  20.061  0.00  0.00    +0.000 OA
ATOM     14  O   UNL     1       6.416  14.240  17.717  0.00  0.00    +0.000 OA
BRANCH  12  15
ATOM     15  C   UNL     1       8.209  16.058  18.315  0.00  0.00    +0.000 A 
ATOM     16  C   UNL     1       8.129  17.465  18.425  0.00  0.00    +0.000 A 
ATOM     17  C   UNL     1       9.182  18.336  18.054  0.00  0.00    +0.000 A 
ATOM     18  C   UNL     1      10.425  17.879  17.584  0.00  0.00    +0.000 A 
ATOM     19  C   UNL     1      10.576  16.474  17.498  0.00  0.00    +0.000 A 
ATOM     20  N   UNL     1      11.688  15.843  17.098  0.00  0.00    +0.000 NA
ATOM     21  S   UNL     1      11.375  14.218  17.204  0.00  0.00    +0.000 S 
ATOM     22  N   UNL     1       9.780  14.243  17.674  0.00  0.00    +0.000 NA
ATOM     23  C   UNL     1       9.447  15.527  17.863  0.00  0.00    +0.000 A 
ENDBRANCH  12  15
ENDBRANCH   8  12
BRANCH   1  24
ATOM     24  C   UNL     1       0.299  12.145  18.780  0.00  0.00    +0.000 C 
BRANCH  24  27
ATOM     25  C   UNL     1       2.210   8.942  17.819  0.00  0.00    +0.000 C 
ATOM     26  N   UNL     1       1.592  10.250  17.778  0.00  0.00    +0.000 N 
ATOM     27  C   UNL     1       1.033  10.800  18.907  0.00  0.00    +0.000 C 
ATOM     28  O   UNL     1       1.036  10.200  19.983  0.00  0.00    +0.000 OA
ATOM     29  H   UNL     1       1.291  10.585  16.876  0.00  0.00    +0.000 HD
ENDBRANCH  24  27
ENDBRANCH   1  24
TORSDOF 4
ENDMDL
MODEL 7
REMARK VINA RESULT:      -6.8      7.953      9.677
REMARK  Name = 
REMARK  5 active torsions:
REMARK  status: ('A' for Active; 'I' for Inactive)
REMARK    1  A    between atoms: C_1  and  N_2
REMARK    2  A    between atoms: C_3  and  C_5
REMARK    3  A    between atoms: C_5  and  C_6
REMARK    4  A    between atoms: N_13  and  S_14
REMARK    5  A    between atoms: S_14  and  C_17
REMARK                            x       y       z     vdW  Elec       q    Type
REMARK                         _______ _______ _______ _____ _____    ______ ____
ROOT
ATOM      1  C   UNL     1       8.971  10.928  18.754  0.00  0.00    +0.000 C 
ATOM      2  C   UNL     1       9.830  10.629  20.012  0.00  0.00    +0.000 C 
ATOM      3  C   UNL     1      10.069  11.842  20.909  0.00  0.00    +0.000 C 
ATOM      4  O   UNL     1      10.489  12.977  20.172  0.00  0.00    +0.000 OA
ATOM      5  C   UNL     1       9.601  13.373  19.115  0.00  0.00    +0.000 C 
ATOM      6  C   UNL     1       8.212  13.757  19.668  0.00  0.00    +0.000 C 
ATOM      7  C   UNL     1       8.285  14.987  20.554  0.00  0.00    +0.000 C 
ATOM      8  N   UNL     1       8.839  16.131  19.796  0.00  0.00    +0.000 NA
ATOM      9  C   UNL     1      10.253  15.802  19.398  0.00  0.00    +0.000 C 
ATOM     10  C   UNL     1      10.298  14.588  18.464  0.00  0.00    +0.000 C 
ATOM     11  C   UNL     1       9.477  12.223  18.102  0.00  0.00    +0.000 C 
ENDROOT
BRANCH   8  12
ATOM     12  S   UNL     1       7.804  16.795  18.587  0.00  0.00    +0.000 S 
ATOM     13  O   UNL     1       8.286  18.133  18.293  0.00  0.00    +0.000 OA
ATOM     14  O   UNL     1       7.681  15.851  17.486  0.00  0.00    +0.000 OA
BRANCH  12  15
ATOM     15  C   UNL     1       6.242  16.965  19.374  0.00  0.00    +0.000 A 
ATOM     16  C   UNL     1       6.034  18.010  20.303  0.00  0.00    +0.000 A 
ATOM     17  C   UNL     1       4.800  18.232  20.962  0.00  0.00    +0.000 A 
ATOM     18  C   UNL     1       3.652  17.461  20.715  0.00  0.00    +0.000 A 
ATOM     19  C   UNL     1       3.791  16.429  19.756  0.00  0.00    +0.000 A 
ATOM     20  N   UNL     1       2.811  15.603  19.367  0.00  0.00    +0.000 NA
ATOM     21  S   UNL     1       3.462  14.606  18.214  0.00  0.00    +0.000 S 
ATOM     22  N   UNL     1       5.045  15.115  18.226  0.00  0.00    +0.000 NA
ATOM     23  C   UNL     1       5.116  16.157  19.065  0.00  0.00    +0.000 A 
ENDBRANCH  12  15
ENDBRANCH   8  12
BRANCH   1  24
ATOM     24  C   UNL     1       8.996   9.768  17.731  0.00  0.00    +0.000 C 
BRANCH  24  27
ATOM     25  C   UNL     1       7.769   6.317  18.925  0.00  0.00    +0.000 C 
ATOM     26  N   UNL     1       8.525   7.543  18.778  0.00  0.00    +0.000 N 
ATOM     27  C   UNL     1       8.099   8.534  17.925  0.00  0.00    +0.000 C 
ATOM     28  O   UNL     1       7.069   8.411  17.259  0.00  0.00    +0.000 OA
ATOM     29  H   UNL     1       9.497   7.515  19.040  0.00  0.00    +0.000 HD
ENDBRANCH  24  27
ENDBRANCH   1  24
TORSDOF 4
ENDMDL
MODEL 8
REMARK VINA RESULT:      -6.8      5.170      8.201
REMARK  Name = 
REMARK  5 active torsions:
REMARK  status: ('A' for Active; 'I' for Inactive)
REMARK    1  A    between atoms: C_1  and  N_2
REMARK    2  A    between atoms: C_3  and  C_5
REMARK    3  A    between atoms: C_5  and  C_6
REMARK    4  A    between atoms: N_13  and  S_14
REMARK    5  A    between atoms: S_14  and  C_17
REMARK                            x       y       z     vdW  Elec       q    Type
REMARK                         _______ _______ _______ _____ _____    ______ ____
ROOT
ATOM      1  C   UNL     1       1.366   8.635  19.112  0.00  0.00    +0.000 C 
ATOM      2  C   UNL     1       1.853   8.052  20.466  0.00  0.00    +0.000 C 
ATOM      3  C   UNL     1       1.285   8.762  21.694  0.00  0.00    +0.000 C 
ATOM      4  O   UNL     1       1.393  10.171  21.593  0.00  0.00    +0.000 OA
ATOM      5  C   UNL     1       0.781  10.742  20.426  0.00  0.00    +0.000 C 
ATOM      6  C   UNL     1      -0.737  10.462  20.399  0.00  0.00    +0.000 C 
ATOM      7  C   UNL     1      -1.451  11.148  21.549  0.00  0.00    +0.000 C 
ATOM      8  N   UNL     1      -1.226  12.609  21.492  0.00  0.00    +0.000 NA
ATOM      9  C   UNL     1       0.244  12.875  21.678  0.00  0.00    +0.000 C 
ATOM     10  C   UNL     1       1.067  12.255  20.544  0.00  0.00    +0.000 C 
ATOM     11  C   UNL     1       1.455  10.167  19.169  0.00  0.00    +0.000 C 
ENDROOT
BRANCH   8  12
ATOM     12  S   UNL     1      -2.030  13.438  20.212  0.00  0.00    +0.000 S 
ATOM     13  O   UNL     1      -2.064  14.847  20.563  0.00  0.00    +0.000 OA
ATOM     14  O   UNL     1      -1.430  13.060  18.940  0.00  0.00    +0.000 OA
BRANCH  12  15
ATOM     15  C   UNL     1      -3.685  12.849  20.263  0.00  0.00    +0.000 A 
ATOM     16  C   UNL     1      -4.231  12.191  19.138  0.00  0.00    +0.000 A 
ATOM     17  C   UNL     1      -5.546  11.665  19.106  0.00  0.00    +0.000 A 
ATOM     18  C   UNL     1      -6.415  11.709  20.209  0.00  0.00    +0.000 A 
ATOM     19  C   UNL     1      -5.901  12.317  21.380  0.00  0.00    +0.000 A 
ATOM     20  N   UNL     1      -6.563  12.435  22.539  0.00  0.00    +0.000 NA
ATOM     21  S   UNL     1      -5.529  13.182  23.599  0.00  0.00    +0.000 S 
ATOM     22  N   UNL     1      -4.228  13.474  22.606  0.00  0.00    +0.000 NA
ATOM     23  C   UNL     1      -4.505  12.913  21.421  0.00  0.00    +0.000 A 
ENDBRANCH  12  15
ENDBRANCH   8  12
BRANCH   1  24
ATOM     24  C   UNL     1       2.176   8.096  17.910  0.00  0.00    +0.000 C 
BRANCH  24  27
ATOM     25  C   UNL     1       2.791   4.306  18.224  0.00  0.00    +0.000 C 
ATOM     26  N   UNL     1       2.159   5.596  18.040  0.00  0.00    +0.000 N 
ATOM     27  C   UNL     1       2.909   6.748  18.002  0.00  0.00    +0.000 C 
ATOM     28  O   UNL     1       4.135   6.721  18.126  0.00  0.00    +0.000 OA
ATOM     29  H   UNL     1       1.181   5.663  18.271  0.00  0.00    +0.000 HD
ENDBRANCH  24  27
ENDBRANCH   1  24
TORSDOF 4
ENDMDL
MODEL 9
REMARK VINA RESULT:      -6.7      8.236     10.970
REMARK  Name = 
REMARK  5 active torsions:
REMARK  status: ('A' for Active; 'I' for Inactive)
REMARK    1  A    between atoms: C_1  and  N_2
REMARK    2  A    between atoms: C_3  and  C_5
REMARK    3  A    between atoms: C_5  and  C_6
REMARK    4  A    between atoms: N_13  and  S_14
REMARK    5  A    between atoms: S_14  and  C_17
REMARK                            x       y       z     vdW  Elec       q    Type
REMARK                         _______ _______ _______ _____ _____    ______ ____
ROOT
ATOM      1  C   UNL     1      -0.566  11.047  19.273  0.00  0.00    +0.000 C 
ATOM      2  C   UNL     1       0.528  12.063  18.844  0.00  0.00    +0.000 C 
ATOM      3  C   UNL     1       0.619  13.299  19.738  0.00  0.00    +0.000 C 
ATOM      4  O   UNL     1      -0.652  13.877  19.980  0.00  0.00    +0.000 OA
ATOM      5  C   UNL     1      -1.621  12.986  20.552  0.00  0.00    +0.000 C 
ATOM      6  C   UNL     1      -1.159  12.465  21.929  0.00  0.00    +0.000 C 
ATOM      7  C   UNL     1      -1.062  13.588  22.945  0.00  0.00    +0.000 C 
ATOM      8  N   UNL     1      -2.374  14.257  23.095  0.00  0.00    +0.000 NA
ATOM      9  C   UNL     1      -2.739  14.895  21.782  0.00  0.00    +0.000 C 
ATOM     10  C   UNL     1      -2.900  13.842  20.680  0.00  0.00    +0.000 C 
ATOM     11  C   UNL     1      -1.860  11.813  19.587  0.00  0.00    +0.000 C 
ENDROOT
BRANCH   8  12
ATOM     12  S   UNL     1      -3.590  13.338  23.900  0.00  0.00    +0.000 S 
ATOM     13  O   UNL     1      -3.517  11.980  23.389  0.00  0.00    +0.000 OA
ATOM     14  O   UNL     1      -3.475  13.538  25.338  0.00  0.00    +0.000 OA
BRANCH  12  15
ATOM     15  C   UNL     1      -5.112  14.021  23.347  0.00  0.00    +0.000 A 
ATOM     16  C   UNL     1      -5.508  15.304  23.787  0.00  0.00    +0.000 A 
ATOM     17  C   UNL     1      -6.705  15.936  23.370  0.00  0.00    +0.000 A 
ATOM     18  C   UNL     1      -7.588  15.363  22.440  0.00  0.00    +0.000 A 
ATOM     19  C   UNL     1      -7.216  14.096  21.929  0.00  0.00    +0.000 A 
ATOM     20  N   UNL     1      -7.910  13.399  21.020  0.00  0.00    +0.000 NA
ATOM     21  S   UNL     1      -7.051  12.012  20.730  0.00  0.00    +0.000 S 
ATOM     22  N   UNL     1      -5.805  12.189  21.817  0.00  0.00    +0.000 NA
ATOM     23  C   UNL     1      -5.953  13.391  22.390  0.00  0.00    +0.000 A 
ENDBRANCH  12  15
ENDBRANCH   8  12
BRANCH   1  24
ATOM     24  C   UNL     1      -0.828   9.970  18.195  0.00  0.00    +0.000 C 
BRANCH  24  27
ATOM     25  C   UNL     1      -3.278  10.945  15.388  0.00  0.00    +0.000 C 
ATOM     26  N   UNL     1      -2.082  10.784  16.187  0.00  0.00    +0.000 N 
ATOM     27  C   UNL     1      -2.098  10.021  17.331  0.00  0.00    +0.000 C 
ATOM     28  O   UNL     1      -3.125   9.457  17.713  0.00  0.00    +0.000 OA
ATOM     29  H   UNL     1      -1.364  11.482  16.081  0.00  0.00    +0.000 HD
ENDBRANCH  24  27
ENDBRANCH   1  24
TORSDOF 4
ENDMDL
