MODEL 1
REMARK VINA RESULT:      -8.4      0.000      0.000
REMARK  Name = 
REMARK  5 active torsions:
REMARK  status: ('A' for Active; 'I' for Inactive)
REMARK    1  A    between atoms: C_6  and  N_7
REMARK    2  A    between atoms: N_7  and  C_8
REMARK    3  A    between atoms: C_8  and  C_10
REMARK    4  A    between atoms: C_13  and  C_14
REMARK    5  A    between atoms: C_21  and  C_22
REMARK                            x       y       z     vdW  Elec       q    Type
REMARK                         _______ _______ _______ _____ _____    ______ ____
ROOT
ATOM      1  C   UNL     1       1.415   8.643  20.035  0.00  0.00    +0.000 A 
ATOM      2  C   UNL     1       1.773   9.070  21.299  0.00  0.00    +0.000 A 
ATOM      3  N   UNL     1       1.076  10.026  21.965  0.00  0.00    +0.000 NA
ATOM      4  C   UNL     1      -0.012  10.562  21.337  0.00  0.00    +0.000 A 
ATOM      5  C   UNL     1      -0.372  10.145  20.029  0.00  0.00    +0.000 A 
ATOM      6  N   UNL     1       0.345   9.175  19.376  0.00  0.00    +0.000 NA
ENDROOT
BRANCH   4   7
ATOM      7  C   UNL     1      -0.678  11.625  22.133  0.00  0.00    +0.000 A 
ATOM      8  C   UNL     1      -0.239  12.961  22.017  0.00  0.00    +0.000 A 
ATOM      9  C   UNL     1      -0.930  14.016  22.622  0.00  0.00    +0.000 A 
ATOM     10  C   UNL     1      -2.080  13.754  23.357  0.00  0.00    +0.000 A 
ATOM     11 CL   UNL     1      -2.994  15.054  24.011  0.00  0.00    +0.000 Cl
ATOM     12  C   UNL     1      -2.498  12.441  23.552  0.00  0.00    +0.000 A 
ATOM     13  C   UNL     1      -1.777  11.385  22.979  0.00  0.00    +0.000 A 
ENDBRANCH   4   7
BRANCH   5  14
ATOM     14  C   UNL     1      -1.505  10.678  19.230  0.00  0.00    +0.000 A 
ATOM     15  C   UNL     1      -2.229  11.823  19.613  0.00  0.00    +0.000 A 
ATOM     16  C   UNL     1      -3.376  12.229  18.923  0.00  0.00    +0.000 A 
ATOM     17  C   UNL     1      -3.777  11.544  17.783  0.00  0.00    +0.000 A 
ATOM     18 CL   UNL     1      -5.189  12.042  16.938  0.00  0.00    +0.000 Cl
ATOM     19  C   UNL     1      -3.037  10.456  17.328  0.00  0.00    +0.000 A 
ATOM     20  C   UNL     1      -1.918  10.025  18.050  0.00  0.00    +0.000 A 
ENDBRANCH   5  14
BRANCH   1  21
ATOM     21  C   UNL     1       2.146   7.552  19.297  0.00  0.00    +0.000 C 
ATOM     22  S   UNL     1       3.152   7.837  17.980  0.00  0.00    +0.000 S 
BRANCH  21  23
ATOM     23  N   UNL     1       1.923   6.292  19.847  0.00  0.00    +0.000 N 
ATOM     24  H   UNL     1       1.150   6.279  20.512  0.00  0.00    +0.000 HD
BRANCH  23  30
ATOM     25  F   UNL     1       2.162   1.766  19.234  0.00  0.00    +0.000 F 
ATOM     26  C   UNL     1       1.280   2.798  19.162  0.00  0.00    +0.000 C 
ATOM     27  F   UNL     1       0.090   2.264  18.792  0.00  0.00    +0.000 F 
ATOM     28  C   UNL     1       1.144   3.428  20.536  0.00  0.00    +0.000 C 
ATOM     29  C   UNL     1       2.431   4.140  20.949  0.00  0.00    +0.000 C 
ATOM     30  C   UNL     1       2.877   5.176  19.903  0.00  0.00    +0.000 C 
ATOM     31  C   UNL     1       3.019   4.512  18.524  0.00  0.00    +0.000 C 
ATOM     32  C   UNL     1       1.750   3.774  18.096  0.00  0.00    +0.000 C 
ENDBRANCH  23  30
ENDBRANCH  21  23
ENDBRANCH   1  21
TORSDOF 5
ENDMDL
MODEL 2
REMARK VINA RESULT:      -8.3      0.811      1.414
REMARK  Name = 
REMARK  5 active torsions:
REMARK  status: ('A' for Active; 'I' for Inactive)
REMARK    1  A    between atoms: C_6  and  N_7
REMARK    2  A    between atoms: N_7  and  C_8
REMARK    3  A    between atoms: C_8  and  C_10
REMARK    4  A    between atoms: C_13  and  C_14
REMARK    5  A    between atoms: C_21  and  C_22
REMARK                            x       y       z     vdW  Elec       q    Type
REMARK                         _______ _______ _______ _____ _____    ______ ____
ROOT
ATOM      1  C   UNL     1       1.609   8.217  20.300  0.00  0.00    +0.000 A 
ATOM      2  C   UNL     1       1.872   8.658  21.582  0.00  0.00    +0.000 A 
ATOM      3  N   UNL     1       1.169   9.663  22.161  0.00  0.00    +0.000 NA
ATOM      4  C   UNL     1       0.172  10.237  21.425  0.00  0.00    +0.000 A 
ATOM      5  C   UNL     1      -0.089   9.806  20.099  0.00  0.00    +0.000 A 
ATOM      6  N   UNL     1       0.632   8.785  19.534  0.00  0.00    +0.000 NA
ENDROOT
BRANCH   4   7
ATOM      7  C   UNL     1      -0.508  11.352  22.135  0.00  0.00    +0.000 A 
ATOM      8  C   UNL     1      -0.083  12.679  21.915  0.00  0.00    +0.000 A 
ATOM      9  C   UNL     1      -0.786  13.771  22.434  0.00  0.00    +0.000 A 
ATOM     10  C   UNL     1      -1.935  13.554  23.186  0.00  0.00    +0.000 A 
ATOM     11 CL   UNL     1      -2.865  14.891  23.735  0.00  0.00    +0.000 Cl
ATOM     12  C   UNL     1      -2.340  12.256  23.482  0.00  0.00    +0.000 A 
ATOM     13  C   UNL     1      -1.606  11.167  22.995  0.00  0.00    +0.000 A 
ENDBRANCH   4   7
BRANCH   5  14
ATOM     14  C   UNL     1      -1.116  10.374  19.188  0.00  0.00    +0.000 A 
ATOM     15  C   UNL     1      -1.965  11.430  19.570  0.00  0.00    +0.000 A 
ATOM     16  C   UNL     1      -3.015  11.859  18.750  0.00  0.00    +0.000 A 
ATOM     17  C   UNL     1      -3.185  11.296  17.492  0.00  0.00    +0.000 A 
ATOM     18 CL   UNL     1      -4.477  11.821  16.487  0.00  0.00    +0.000 Cl
ATOM     19  C   UNL     1      -2.312  10.307  17.048  0.00  0.00    +0.000 A 
ATOM     20  C   UNL     1      -1.293   9.847  17.891  0.00  0.00    +0.000 A 
ENDBRANCH   5  14
BRANCH   1  21
ATOM     21  C   UNL     1       2.346   7.073  19.654  0.00  0.00    +0.000 C 
ATOM     22  S   UNL     1       3.171   7.206  18.195  0.00  0.00    +0.000 S 
BRANCH  21  23
ATOM     23  N   UNL     1       2.297   5.907  20.416  0.00  0.00    +0.000 N 
ATOM     24  H   UNL     1       3.185   5.693  20.872  0.00  0.00    +0.000 HD
BRANCH  23  30
ATOM     25  F   UNL     1       2.047   1.456  19.400  0.00  0.00    +0.000 F 
ATOM     26  C   UNL     1       2.953   2.460  19.537  0.00  0.00    +0.000 C 
ATOM     27  F   UNL     1       4.167   1.923  19.264  0.00  0.00    +0.000 F 
ATOM     28  C   UNL     1       2.642   3.546  18.523  0.00  0.00    +0.000 C 
ATOM     29  C   UNL     1       1.330   4.255  18.855  0.00  0.00    +0.000 C 
ATOM     30  C   UNL     1       1.325   4.814  20.288  0.00  0.00    +0.000 C 
ATOM     31  C   UNL     1       1.630   3.694  21.296  0.00  0.00    +0.000 C 
ATOM     32  C   UNL     1       2.929   2.954  20.974  0.00  0.00    +0.000 C 
ENDBRANCH  23  30
ENDBRANCH  21  23
ENDBRANCH   1  21
TORSDOF 5
ENDMDL
MODEL 3
REMARK VINA RESULT:      -8.2      2.144      2.610
REMARK  Name = 
REMARK  5 active torsions:
REMARK  status: ('A' for Active; 'I' for Inactive)
REMARK    1  A    between atoms: C_6  and  N_7
REMARK    2  A    between atoms: N_7  and  C_8
REMARK    3  A    between atoms: C_8  and  C_10
REMARK    4  A    between atoms: C_13  and  C_14
REMARK    5  A    between atoms: C_21  and  C_22
REMARK                            x       y       z     vdW  Elec       q    Type
REMARK                         _______ _______ _______ _____ _____    ______ ____
ROOT
ATOM      1  C   UNL     1       1.090   8.834  20.411  0.00  0.00    +0.000 A 
ATOM      2  C   UNL     1       0.339   8.566  21.539  0.00  0.00    +0.000 A 
ATOM      3  N   UNL     1      -0.349   9.533  22.198  0.00  0.00    +0.000 NA
ATOM      4  C   UNL     1      -0.278  10.803  21.702  0.00  0.00    +0.000 A 
ATOM      5  C   UNL     1       0.510  11.091  20.557  0.00  0.00    +0.000 A 
ATOM      6  N   UNL     1       1.196  10.097  19.904  0.00  0.00    +0.000 NA
ENDROOT
BRANCH   4   7
ATOM      7  C   UNL     1      -1.033  11.789  22.517  0.00  0.00    +0.000 A 
ATOM      8  C   UNL     1      -0.500  13.080  22.719  0.00  0.00    +0.000 A 
ATOM      9  C   UNL     1      -1.238  14.091  23.342  0.00  0.00    +0.000 A 
ATOM     10  C   UNL     1      -2.532  13.828  23.778  0.00  0.00    +0.000 A 
ATOM     11 CL   UNL     1      -3.485  15.093  24.446  0.00  0.00    +0.000 Cl
ATOM     12  C   UNL     1      -3.060  12.547  23.660  0.00  0.00    +0.000 A 
ATOM     13  C   UNL     1      -2.299  11.528  23.073  0.00  0.00    +0.000 A 
ENDBRANCH   4   7
BRANCH   5  14
ATOM     14  C   UNL     1       0.697  12.432  19.947  0.00  0.00    +0.000 A 
ATOM     15  C   UNL     1       1.861  13.199  20.148  0.00  0.00    +0.000 A 
ATOM     16  C   UNL     1       1.962  14.513  19.679  0.00  0.00    +0.000 A 
ATOM     17  C   UNL     1       0.931  15.060  18.926  0.00  0.00    +0.000 A 
ATOM     18 CL   UNL     1       1.055  16.677  18.353  0.00  0.00    +0.000 Cl
ATOM     19  C   UNL     1      -0.199  14.302  18.637  0.00  0.00    +0.000 A 
ATOM     20  C   UNL     1      -0.316  13.004  19.150  0.00  0.00    +0.000 A 
ENDBRANCH   5  14
BRANCH   1  21
ATOM     21  C   UNL     1       1.825   7.770  19.639  0.00  0.00    +0.000 C 
ATOM     22  S   UNL     1       2.622   8.060  18.187  0.00  0.00    +0.000 S 
BRANCH  21  23
ATOM     23  N   UNL     1       1.800   6.532  20.277  0.00  0.00    +0.000 N 
ATOM     24  H   UNL     1       1.194   6.520  21.098  0.00  0.00    +0.000 HD
BRANCH  23  30
ATOM     25  F   UNL     1       2.190   2.090  19.263  0.00  0.00    +0.000 F 
ATOM     26  C   UNL     1       1.260   3.078  19.344  0.00  0.00    +0.000 C 
ATOM     27  F   UNL     1       0.070   2.517  19.019  0.00  0.00    +0.000 F 
ATOM     28  C   UNL     1       1.204   3.586  20.774  0.00  0.00    +0.000 C 
ATOM     29  C   UNL     1       2.486   4.325  21.150  0.00  0.00    +0.000 C 
ATOM     30  C   UNL     1       2.803   5.466  20.167  0.00  0.00    +0.000 C 
ATOM     31  C   UNL     1       2.867   4.925  18.730  0.00  0.00    +0.000 C 
ATOM     32  C   UNL     1       1.602   4.161  18.334  0.00  0.00    +0.000 C 
ENDBRANCH  23  30
ENDBRANCH  21  23
ENDBRANCH   1  21
TORSDOF 5
ENDMDL
MODEL 4
REMARK VINA RESULT:      -8.1      5.020      9.129
REMARK  Name = 
REMARK  5 active torsions:
REMARK  status: ('A' for Active; 'I' for Inactive)
REMARK    1  A    between atoms: C_6  and  N_7
REMARK    2  A    between atoms: N_7  and  C_8
REMARK    3  A    between atoms: C_8  and  C_10
REMARK    4  A    between atoms: C_13  and  C_14
REMARK    5  A    between atoms: C_21  and  C_22
REMARK                            x       y       z     vdW  Elec       q    Type
REMARK                         _______ _______ _______ _____ _____    ______ ____
ROOT
ATOM      1  C   UNL     1       1.324   9.244  19.108  0.00  0.00    +0.000 A 
ATOM      2  C   UNL     1       2.153   9.548  18.045  0.00  0.00    +0.000 A 
ATOM      3  N   UNL     1       2.958   8.622  17.466  0.00  0.00    +0.000 NA
ATOM      4  C   UNL     1       2.925   7.355  17.975  0.00  0.00    +0.000 A 
ATOM      5  C   UNL     1       2.095   7.040  19.082  0.00  0.00    +0.000 A 
ATOM      6  N   UNL     1       1.285   7.991  19.649  0.00  0.00    +0.000 NA
ENDROOT
BRANCH   4   7
ATOM      7  C   UNL     1       3.871   6.431  17.298  0.00  0.00    +0.000 A 
ATOM      8  C   UNL     1       3.681   5.037  17.407  0.00  0.00    +0.000 A 
ATOM      9  C   UNL     1       4.446   4.131  16.665  0.00  0.00    +0.000 A 
ATOM     10  C   UNL     1       5.420   4.606  15.794  0.00  0.00    +0.000 A 
ATOM     11 CL   UNL     1       6.289   3.506  14.798  0.00  0.00    +0.000 Cl
ATOM     12  C   UNL     1       5.682   5.970  15.718  0.00  0.00    +0.000 A 
ATOM     13  C   UNL     1       4.942   6.869  16.496  0.00  0.00    +0.000 A 
ENDBRANCH   4   7
BRANCH   5  14
ATOM     14  C   UNL     1       1.999   5.715  19.746  0.00  0.00    +0.000 A 
ATOM     15  C   UNL     1       1.194   4.674  19.245  0.00  0.00    +0.000 A 
ATOM     16  C   UNL     1       1.011   3.483  19.956  0.00  0.00    +0.000 A 
ATOM     17  C   UNL     1       1.696   3.275  21.146  0.00  0.00    +0.000 A 
ATOM     18 CL   UNL     1       1.467   1.812  22.020  0.00  0.00    +0.000 Cl
ATOM     19  C   UNL     1       2.565   4.249  21.629  0.00  0.00    +0.000 A 
ATOM     20  C   UNL     1       2.708   5.459  20.938  0.00  0.00    +0.000 A 
ENDBRANCH   5  14
BRANCH   1  21
ATOM     21  C   UNL     1       0.389  10.244  19.736  0.00  0.00    +0.000 C 
ATOM     22  S   UNL     1       0.835  11.273  20.988  0.00  0.00    +0.000 S 
BRANCH  21  23
ATOM     23  N   UNL     1      -0.871  10.244  19.142  0.00  0.00    +0.000 N 
ATOM     24  H   UNL     1      -1.453   9.462  19.444  0.00  0.00    +0.000 HD
BRANCH  23  30
ATOM     25  F   UNL     1      -4.567  11.394  16.706  0.00  0.00    +0.000 F 
ATOM     26  C   UNL     1      -4.214  10.773  17.863  0.00  0.00    +0.000 C 
ATOM     27  F   UNL     1      -5.366  10.370  18.452  0.00  0.00    +0.000 F 
ATOM     28  C   UNL     1      -3.365   9.559  17.532  0.00  0.00    +0.000 C 
ATOM     29  C   UNL     1      -2.007   9.969  16.965  0.00  0.00    +0.000 C 
ATOM     30  C   UNL     1      -1.259  10.932  17.904  0.00  0.00    +0.000 C 
ATOM     31  C   UNL     1      -2.133  12.157  18.213  0.00  0.00    +0.000 C 
ATOM     32  C   UNL     1      -3.508  11.773  18.763  0.00  0.00    +0.000 C 
ENDBRANCH  23  30
ENDBRANCH  21  23
ENDBRANCH   1  21
TORSDOF 5
ENDMDL
MODEL 5
REMARK VINA RESULT:      -7.9      2.305      2.964
REMARK  Name = 
REMARK  5 active torsions:
REMARK  status: ('A' for Active; 'I' for Inactive)
REMARK    1  A    between atoms: C_6  and  N_7
REMARK    2  A    between atoms: N_7  and  C_8
REMARK    3  A    between atoms: C_8  and  C_10
REMARK    4  A    between atoms: C_13  and  C_14
REMARK    5  A    between atoms: C_21  and  C_22
REMARK                            x       y       z     vdW  Elec       q    Type
REMARK                         _______ _______ _______ _____ _____    ______ ____
ROOT
ATOM      1  C   UNL     1       1.008   9.206  19.936  0.00  0.00    +0.000 A 
ATOM      2  C   UNL     1       0.147   8.942  20.984  0.00  0.00    +0.000 A 
ATOM      3  N   UNL     1      -0.564   9.919  21.601  0.00  0.00    +0.000 NA
ATOM      4  C   UNL     1      -0.402  11.196  21.146  0.00  0.00    +0.000 A 
ATOM      5  C   UNL     1       0.498  11.479  20.085  0.00  0.00    +0.000 A 
ATOM      6  N   UNL     1       1.205  10.474  19.473  0.00  0.00    +0.000 NA
ENDROOT
BRANCH   4   7
ATOM      7  C   UNL     1      -1.193  12.193  21.913  0.00  0.00    +0.000 A 
ATOM      8  C   UNL     1      -2.601  12.187  21.816  0.00  0.00    +0.000 A 
ATOM      9  C   UNL     1      -3.397  12.997  22.634  0.00  0.00    +0.000 A 
ATOM     10  C   UNL     1      -2.795  13.831  23.569  0.00  0.00    +0.000 A 
ATOM     11 CL   UNL     1      -3.768  14.747  24.651  0.00  0.00    +0.000 Cl
ATOM     12  C   UNL     1      -1.408  13.914  23.639  0.00  0.00    +0.000 A 
ATOM     13  C   UNL     1      -0.617  13.132  22.787  0.00  0.00    +0.000 A 
ENDBRANCH   4   7
BRANCH   5  14
ATOM     14  C   UNL     1       0.788  12.825  19.529  0.00  0.00    +0.000 A 
ATOM     15  C   UNL     1       2.098  13.326  19.406  0.00  0.00    +0.000 A 
ATOM     16  C   UNL     1       2.343  14.645  19.008  0.00  0.00    +0.000 A 
ATOM     17  C   UNL     1       1.284  15.466  18.643  0.00  0.00    +0.000 A 
ATOM     18 CL   UNL     1       1.586  17.088  18.158  0.00  0.00    +0.000 Cl
ATOM     19  C   UNL     1      -0.019  14.977  18.673  0.00  0.00    +0.000 A 
ATOM     20  C   UNL     1      -0.262  13.672  19.118  0.00  0.00    +0.000 A 
ENDBRANCH   5  14
BRANCH   1  21
ATOM     21  C   UNL     1       1.772   8.131  19.208  0.00  0.00    +0.000 C 
ATOM     22  S   UNL     1       2.651   8.409  17.802  0.00  0.00    +0.000 S 
BRANCH  21  23
ATOM     23  N   UNL     1       1.697   6.895  19.846  0.00  0.00    +0.000 N 
ATOM     24  H   UNL     1       0.999   6.873  20.589  0.00  0.00    +0.000 HD
BRANCH  23  30
ATOM     25  F   UNL     1       2.226   2.393  19.247  0.00  0.00    +0.000 F 
ATOM     26  C   UNL     1       1.271   3.359  19.212  0.00  0.00    +0.000 C 
ATOM     27  F   UNL     1       0.106   2.739  18.902  0.00  0.00    +0.000 F 
ATOM     28  C   UNL     1       1.157   3.990  20.588  0.00  0.00    +0.000 C 
ATOM     29  C   UNL     1       2.409   4.794  20.934  0.00  0.00    +0.000 C 
ATOM     30  C   UNL     1       2.729   5.850  19.862  0.00  0.00    +0.000 C 
ATOM     31  C   UNL     1       2.852   5.186  18.482  0.00  0.00    +0.000 C 
ATOM     32  C   UNL     1       1.620   4.356  18.119  0.00  0.00    +0.000 C 
ENDBRANCH  23  30
ENDBRANCH  21  23
ENDBRANCH   1  21
TORSDOF 5
ENDMDL
MODEL 6
REMARK VINA RESULT:      -7.7      5.295      7.100
REMARK  Name = 
REMARK  5 active torsions:
REMARK  status: ('A' for Active; 'I' for Inactive)
REMARK    1  A    between atoms: C_6  and  N_7
REMARK    2  A    between atoms: N_7  and  C_8
REMARK    3  A    between atoms: C_8  and  C_10
REMARK    4  A    between atoms: C_13  and  C_14
REMARK    5  A    between atoms: C_21  and  C_22
REMARK                            x       y       z     vdW  Elec       q    Type
REMARK                         _______ _______ _______ _____ _____    ______ ____
ROOT
ATOM      1  C   UNL     1      -4.906  13.266  20.089  0.00  0.00    +0.000 A 
ATOM      2  C   UNL     1      -5.255  14.360  20.858  0.00  0.00    +0.000 A 
ATOM      3  N   UNL     1      -4.512  14.765  21.919  0.00  0.00    +0.000 NA
ATOM      4  C   UNL     1      -3.388  14.047  22.210  0.00  0.00    +0.000 A 
ATOM      5  C   UNL     1      -3.036  12.908  21.440  0.00  0.00    +0.000 A 
ATOM      6  N   UNL     1      -3.799  12.518  20.368  0.00  0.00    +0.000 NA
ENDROOT
BRANCH   4   7
ATOM      7  C   UNL     1      -2.671  14.549  23.410  0.00  0.00    +0.000 A 
ATOM      8  C   UNL     1      -1.452  15.243  23.254  0.00  0.00    +0.000 A 
ATOM      9  C   UNL     1      -0.820  15.869  24.333  0.00  0.00    +0.000 A 
ATOM     10  C   UNL     1      -1.398  15.814  25.595  0.00  0.00    +0.000 A 
ATOM     11 CL   UNL     1      -0.686  16.671  26.904  0.00  0.00    +0.000 Cl
ATOM     12  C   UNL     1      -2.561  15.076  25.797  0.00  0.00    +0.000 A 
ATOM     13  C   UNL     1      -3.166  14.415  24.720  0.00  0.00    +0.000 A 
ENDBRANCH   4   7
BRANCH   5  14
ATOM     14  C   UNL     1      -1.864  12.027  21.678  0.00  0.00    +0.000 A 
ATOM     15  C   UNL     1      -0.877  11.801  20.700  0.00  0.00    +0.000 A 
ATOM     16  C   UNL     1       0.144  10.864  20.894  0.00  0.00    +0.000 A 
ATOM     17  C   UNL     1       0.246  10.192  22.105  0.00  0.00    +0.000 A 
ATOM     18 CL   UNL     1       1.499   9.038  22.340  0.00  0.00    +0.000 Cl
ATOM     19  C   UNL     1      -0.665  10.452  23.125  0.00  0.00    +0.000 A 
ATOM     20  C   UNL     1      -1.712  11.355  22.909  0.00  0.00    +0.000 A 
ENDBRANCH   5  14
BRANCH   1  21
ATOM     21  C   UNL     1      -5.690  12.826  18.880  0.00  0.00    +0.000 C 
ATOM     22  S   UNL     1      -7.370  12.837  18.809  0.00  0.00    +0.000 S 
BRANCH  21  23
ATOM     23  N   UNL     1      -4.870  12.443  17.821  0.00  0.00    +0.000 N 
ATOM     24  H   UNL     1      -4.371  13.227  17.401  0.00  0.00    +0.000 HD
BRANCH  23  30
ATOM     25  F   UNL     1      -2.323   8.996  16.228  0.00  0.00    +0.000 F 
ATOM     26  C   UNL     1      -2.224  10.124  16.979  0.00  0.00    +0.000 C 
ATOM     27  F   UNL     1      -0.924  10.229  17.348  0.00  0.00    +0.000 F 
ATOM     28  C   UNL     1      -2.603  11.320  16.124  0.00  0.00    +0.000 C 
ATOM     29  C   UNL     1      -4.090  11.302  15.774  0.00  0.00    +0.000 C 
ATOM     30  C   UNL     1      -4.976  11.211  17.029  0.00  0.00    +0.000 C 
ATOM     31  C   UNL     1      -4.581   9.987  17.870  0.00  0.00    +0.000 C 
ATOM     32  C   UNL     1      -3.092   9.970  18.217  0.00  0.00    +0.000 C 
ENDBRANCH  23  30
ENDBRANCH  21  23
ENDBRANCH   1  21
TORSDOF 5
ENDMDL
MODEL 7
REMARK VINA RESULT:      -7.7      2.223      2.934
REMARK  Name = 
REMARK  5 active torsions:
REMARK  status: ('A' for Active; 'I' for Inactive)
REMARK    1  A    between atoms: C_6  and  N_7
REMARK    2  A    between atoms: N_7  and  C_8
REMARK    3  A    between atoms: C_8  and  C_10
REMARK    4  A    between atoms: C_13  and  C_14
REMARK    5  A    between atoms: C_21  and  C_22
REMARK                            x       y       z     vdW  Elec       q    Type
REMARK                         _______ _______ _______ _____ _____    ______ ____
ROOT
ATOM      1  C   UNL     1       1.285   8.715  20.267  0.00  0.00    +0.000 A 
ATOM      2  C   UNL     1       0.553   8.412  21.399  0.00  0.00    +0.000 A 
ATOM      3  N   UNL     1      -0.156   9.351  22.076  0.00  0.00    +0.000 NA
ATOM      4  C   UNL     1      -0.125  10.629  21.595  0.00  0.00    +0.000 A 
ATOM      5  C   UNL     1       0.643  10.953  20.447  0.00  0.00    +0.000 A 
ATOM      6  N   UNL     1       1.350   9.987  19.775  0.00  0.00    +0.000 NA
ENDROOT
BRANCH   4   7
ATOM      7  C   UNL     1      -0.900  11.584  22.430  0.00  0.00    +0.000 A 
ATOM      8  C   UNL     1      -0.443  12.911  22.574  0.00  0.00    +0.000 A 
ATOM      9  C   UNL     1      -1.213  13.887  23.216  0.00  0.00    +0.000 A 
ATOM     10  C   UNL     1      -2.461  13.551  23.727  0.00  0.00    +0.000 A 
ATOM     11 CL   UNL     1      -3.459  14.767  24.421  0.00  0.00    +0.000 Cl
ATOM     12  C   UNL     1      -2.908  12.235  23.667  0.00  0.00    +0.000 A 
ATOM     13  C   UNL     1      -2.113  11.253  23.061  0.00  0.00    +0.000 A 
ENDBRANCH   4   7
BRANCH   5  14
ATOM     14  C   UNL     1       0.787  12.306  19.852  0.00  0.00    +0.000 A 
ATOM     15  C   UNL     1       1.926  13.107  20.061  0.00  0.00    +0.000 A 
ATOM     16  C   UNL     1       1.985  14.429  19.607  0.00  0.00    +0.000 A 
ATOM     17  C   UNL     1       0.936  14.951  18.860  0.00  0.00    +0.000 A 
ATOM     18 CL   UNL     1       1.008  16.578  18.305  0.00  0.00    +0.000 Cl
ATOM     19  C   UNL     1      -0.169  14.160  18.563  0.00  0.00    +0.000 A 
ATOM     20  C   UNL     1      -0.244  12.854  19.061  0.00  0.00    +0.000 A 
ENDBRANCH   5  14
BRANCH   1  21
ATOM     21  C   UNL     1       2.041   7.681  19.475  0.00  0.00    +0.000 C 
ATOM     22  S   UNL     1       2.793   8.005  18.006  0.00  0.00    +0.000 S 
BRANCH  21  23
ATOM     23  N   UNL     1       2.078   6.442  20.110  0.00  0.00    +0.000 N 
ATOM     24  H   UNL     1       2.903   6.320  20.696  0.00  0.00    +0.000 HD
BRANCH  23  30
ATOM     25  F   UNL     1       2.698   1.959  19.453  0.00  0.00    +0.000 F 
ATOM     26  C   UNL     1       3.372   3.074  19.839  0.00  0.00    +0.000 C 
ATOM     27  F   UNL     1       4.645   2.686  20.095  0.00  0.00    +0.000 F 
ATOM     28  C   UNL     1       3.369   4.073  18.696  0.00  0.00    +0.000 C 
ATOM     29  C   UNL     1       1.967   4.622  18.443  0.00  0.00    +0.000 C 
ATOM     30  C   UNL     1       1.349   5.230  19.714  0.00  0.00    +0.000 C 
ATOM     31  C   UNL     1       1.351   4.197  20.852  0.00  0.00    +0.000 C 
ATOM     32  C   UNL     1       2.742   3.615  21.112  0.00  0.00    +0.000 C 
ENDBRANCH  23  30
ENDBRANCH  21  23
ENDBRANCH   1  21
TORSDOF 5
ENDMDL
MODEL 8
REMARK VINA RESULT:      -7.6      2.356      3.156
REMARK  Name = 
REMARK  5 active torsions:
REMARK  status: ('A' for Active; 'I' for Inactive)
REMARK    1  A    between atoms: C_6  and  N_7
REMARK    2  A    between atoms: N_7  and  C_8
REMARK    3  A    between atoms: C_8  and  C_10
REMARK    4  A    between atoms: C_13  and  C_14
REMARK    5  A    between atoms: C_21  and  C_22
REMARK                            x       y       z     vdW  Elec       q    Type
REMARK                         _______ _______ _______ _____ _____    ______ ____
ROOT
ATOM      1  C   UNL     1       1.323   8.415  20.125  0.00  0.00    +0.000 A 
ATOM      2  C   UNL     1       0.232   8.198  20.944  0.00  0.00    +0.000 A 
ATOM      3  N   UNL     1      -0.545   9.214  21.399  0.00  0.00    +0.000 NA
ATOM      4  C   UNL     1      -0.211  10.481  21.014  0.00  0.00    +0.000 A 
ATOM      5  C   UNL     1       0.922  10.714  20.193  0.00  0.00    +0.000 A 
ATOM      6  N   UNL     1       1.693   9.672  19.741  0.00  0.00    +0.000 NA
ENDROOT
BRANCH   4   7
ATOM      7  C   UNL     1      -1.100  11.520  21.597  0.00  0.00    +0.000 A 
ATOM      8  C   UNL     1      -1.899  12.310  20.745  0.00  0.00    +0.000 A 
ATOM      9  C   UNL     1      -2.863  13.189  21.248  0.00  0.00    +0.000 A 
ATOM     10  C   UNL     1      -3.048  13.293  22.622  0.00  0.00    +0.000 A 
ATOM     11 CL   UNL     1      -4.304  14.289  23.245  0.00  0.00    +0.000 Cl
ATOM     12  C   UNL     1      -2.227  12.583  23.491  0.00  0.00    +0.000 A 
ATOM     13  C   UNL     1      -1.234  11.737  22.981  0.00  0.00    +0.000 A 
ENDBRANCH   4   7
BRANCH   5  14
ATOM     14  C   UNL     1       1.408  12.043  19.741  0.00  0.00    +0.000 A 
ATOM     15  C   UNL     1       1.516  12.385  18.380  0.00  0.00    +0.000 A 
ATOM     16  C   UNL     1       2.103  13.588  17.971  0.00  0.00    +0.000 A 
ATOM     17  C   UNL     1       2.520  14.512  18.921  0.00  0.00    +0.000 A 
ATOM     18 CL   UNL     1       3.244  15.988  18.418  0.00  0.00    +0.000 Cl
ATOM     19  C   UNL     1       2.352  14.242  20.276  0.00  0.00    +0.000 A 
ATOM     20  C   UNL     1       1.809  13.016  20.679  0.00  0.00    +0.000 A 
ENDBRANCH   5  14
BRANCH   1  21
ATOM     21  C   UNL     1       2.172   7.300  19.573  0.00  0.00    +0.000 C 
ATOM     22  S   UNL     1       3.204   7.484  18.257  0.00  0.00    +0.000 S 
BRANCH  21  23
ATOM     23  N   UNL     1       2.033   6.115  20.292  0.00  0.00    +0.000 N 
ATOM     24  H   UNL     1       1.435   6.216  21.112  0.00  0.00    +0.000 HD
BRANCH  23  30
ATOM     25  F   UNL     1       2.068   1.672  19.209  0.00  0.00    +0.000 F 
ATOM     26  C   UNL     1       1.240   2.750  19.226  0.00  0.00    +0.000 C 
ATOM     27  F   UNL     1       0.036   2.319  18.774  0.00  0.00    +0.000 F 
ATOM     28  C   UNL     1       1.096   3.239  20.656  0.00  0.00    +0.000 C 
ATOM     29  C   UNL     1       2.404   3.836  21.171  0.00  0.00    +0.000 C 
ATOM     30  C   UNL     1       2.930   4.953  20.251  0.00  0.00    +0.000 C 
ATOM     31  C   UNL     1       3.078   4.430  18.814  0.00  0.00    +0.000 C 
ATOM     32  C   UNL     1       1.787   3.807  18.281  0.00  0.00    +0.000 C 
ENDBRANCH  23  30
ENDBRANCH  21  23
ENDBRANCH   1  21
TORSDOF 5
ENDMDL
MODEL 9
REMARK VINA RESULT:      -7.6      2.393      3.370
REMARK  Name = 
REMARK  5 active torsions:
REMARK  status: ('A' for Active; 'I' for Inactive)
REMARK    1  A    between atoms: C_6  and  N_7
REMARK    2  A    between atoms: N_7  and  C_8
REMARK    3  A    between atoms: C_8  and  C_10
REMARK    4  A    between atoms: C_13  and  C_14
REMARK    5  A    between atoms: C_21  and  C_22
REMARK                            x       y       z     vdW  Elec       q    Type
REMARK                         _______ _______ _______ _____ _____    ______ ____
ROOT
ATOM      1  C   UNL     1       1.445   8.059  20.216  0.00  0.00    +0.000 A 
ATOM      2  C   UNL     1       0.371   7.821  21.052  0.00  0.00    +0.000 A 
ATOM      3  N   UNL     1      -0.435   8.819  21.496  0.00  0.00    +0.000 NA
ATOM      4  C   UNL     1      -0.150  10.089  21.083  0.00  0.00    +0.000 A 
ATOM      5  C   UNL     1       0.966  10.344  20.243  0.00  0.00    +0.000 A 
ATOM      6  N   UNL     1       1.766   9.320  19.803  0.00  0.00    +0.000 NA
ENDROOT
BRANCH   4   7
ATOM      7  C   UNL     1      -1.066  11.107  21.657  0.00  0.00    +0.000 A 
ATOM      8  C   UNL     1      -1.770  11.975  20.794  0.00  0.00    +0.000 A 
ATOM      9  C   UNL     1      -2.758  12.842  21.271  0.00  0.00    +0.000 A 
ATOM     10  C   UNL     1      -3.064  12.857  22.627  0.00  0.00    +0.000 A 
ATOM     11 CL   UNL     1      -4.351  13.840  23.205  0.00  0.00    +0.000 Cl
ATOM     12  C   UNL     1      -2.339  12.068  23.513  0.00  0.00    +0.000 A 
ATOM     13  C   UNL     1      -1.320  11.233  23.035  0.00  0.00    +0.000 A 
ENDBRANCH   4   7
BRANCH   5  14
ATOM     14  C   UNL     1       1.400  11.679  19.759  0.00  0.00    +0.000 A 
ATOM     15  C   UNL     1       1.575  11.967  18.392  0.00  0.00    +0.000 A 
ATOM     16  C   UNL     1       2.115  13.185  17.964  0.00  0.00    +0.000 A 
ATOM     17  C   UNL     1       2.413  14.174  18.892  0.00  0.00    +0.000 A 
ATOM     18 CL   UNL     1       3.080  15.669  18.365  0.00  0.00    +0.000 Cl
ATOM     19  C   UNL     1       2.176  13.954  20.246  0.00  0.00    +0.000 A 
ATOM     20  C   UNL     1       1.681  12.716  20.673  0.00  0.00    +0.000 A 
ENDBRANCH   5  14
BRANCH   1  21
ATOM     21  C   UNL     1       2.325   6.963  19.675  0.00  0.00    +0.000 C 
ATOM     22  S   UNL     1       3.294   7.139  18.312  0.00  0.00    +0.000 S 
BRANCH  21  23
ATOM     23  N   UNL     1       2.273   5.804  20.447  0.00  0.00    +0.000 N 
ATOM     24  H   UNL     1       3.149   5.609  20.931  0.00  0.00    +0.000 HD
BRANCH  23  30
ATOM     25  F   UNL     1       2.112   1.367  19.354  0.00  0.00    +0.000 F 
ATOM     26  C   UNL     1       2.997   2.387  19.506  0.00  0.00    +0.000 C 
ATOM     27  F   UNL     1       4.223   1.880  19.222  0.00  0.00    +0.000 F 
ATOM     28  C   UNL     1       2.663   3.484  18.512  0.00  0.00    +0.000 C 
ATOM     29  C   UNL     1       1.337   4.160  18.858  0.00  0.00    +0.000 C 
ATOM     30  C   UNL     1       1.323   4.694  20.301  0.00  0.00    +0.000 C 
ATOM     31  C   UNL     1       1.652   3.563  21.289  0.00  0.00    +0.000 C 
ATOM     32  C   UNL     1       2.965   2.855  20.952  0.00  0.00    +0.000 C 
ENDBRANCH  23  30
ENDBRANCH  21  23
ENDBRANCH   1  21
TORSDOF 5
ENDMDL
