MODEL 1
REMARK VINA RESULT:      -8.1      0.000      0.000
REMARK  Name = 
REMARK  9 active torsions:
REMARK  status: ('A' for Active; 'I' for Inactive)
REMARK    1  A    between atoms: C_1  and  C_2
REMARK    2  A    between atoms: C_2  and  C_3
REMARK    3  A    between atoms: C_10  and  C_11
REMARK    4  A    between atoms: C_11  and  O_12
REMARK    5  A    between atoms: C_11  and  C_13
REMARK    6  A    between atoms: C_15  and  C_16
REMARK    7  A    between atoms: C_22  and  C_23
REMARK    8  A    between atoms: C_28  and  O_29
REMARK    9  A    between atoms: O_29  and  C_30
REMARK                            x       y       z     vdW  Elec       q    Type
REMARK                         _______ _______ _______ _____ _____    ______ ____
ROOT
ATOM      1  C   UNL     1       0.325  10.031  19.176  0.00  0.00    +0.000 A 
ATOM      2  C   UNL     1       1.279   9.143  18.657  0.00  0.00    +0.000 A 
ATOM      3  C   UNL     1       1.866   8.163  19.447  0.00  0.00    +0.000 A 
ATOM      4  N   UNL     1       1.629   8.122  20.772  0.00  0.00    +0.000 NA
ATOM      5  C   UNL     1       0.804   9.031  21.323  0.00  0.00    +0.000 A 
ATOM      6  C   UNL     1       0.625   8.986  22.700  0.00  0.00    +0.000 A 
ATOM      7  C   UNL     1      -0.193   9.888  23.386  0.00  0.00    +0.000 A 
ATOM      8  C   UNL     1      -0.878  10.864  22.676  0.00  0.00    +0.000 A 
ATOM      9  C   UNL     1      -0.746  10.905  21.284  0.00  0.00    +0.000 A 
ATOM     10  C   UNL     1       0.102  10.013  20.575  0.00  0.00    +0.000 A 
ENDROOT
BRANCH   3  11
ATOM     11  C   UNL     1       2.661   7.069  18.820  0.00  0.00    +0.000 A 
ATOM     12  C   UNL     1       3.555   7.387  17.767  0.00  0.00    +0.000 A 
ATOM     13  C   UNL     1       4.186   6.402  17.006  0.00  0.00    +0.000 A 
ATOM     14  C   UNL     1       3.963   5.073  17.307  0.00  0.00    +0.000 A 
ATOM     15  F   UNL     1       4.544   4.120  16.564  0.00  0.00    +0.000 F 
ATOM     16  C   UNL     1       3.140   4.714  18.364  0.00  0.00    +0.000 A 
ATOM     17  C   UNL     1       2.481   5.697  19.129  0.00  0.00    +0.000 A 
ATOM     18  C   UNL     1       1.577   5.223  20.241  0.00  0.00    +0.000 C 
ENDBRANCH   3  11
BRANCH   8  19
ATOM     19  O   UNL     1      -1.690  11.829  23.201  0.00  0.00    +0.000 OA
ATOM     20  C   UNL     1      -1.255  13.178  23.091  0.00  0.00    +0.000 C 
ENDBRANCH   8  19
BRANCH   1  21
ATOM     21  C   UNL     1      -0.412  10.868  18.136  0.00  0.00    +0.000 C 
BRANCH  21  29
ATOM     22  C   UNL     1      -4.815  10.586  17.466  0.00  0.00    +0.000 C 
ATOM     23  C   UNL     1      -4.086  11.937  17.676  0.00  0.00    +0.000 C 
ATOM     24  N   UNL     1      -2.637  11.844  17.335  0.00  0.00    +0.000 NA
ATOM     25  C   UNL     1      -2.528  11.193  16.003  0.00  0.00    +0.000 C 
ATOM     26  C   UNL     1      -2.965   9.720  16.058  0.00  0.00    +0.000 C 
ATOM     27  C   UNL     1      -3.739   9.482  17.366  0.00  0.00    +0.000 C 
ATOM     28  C   UNL     1      -2.732   9.645  18.518  0.00  0.00    +0.000 C 
ATOM     29  C   UNL     1      -1.966  10.990  18.386  0.00  0.00    +0.000 C 
BRANCH  22  31
ATOM     30  C   UNL     1      -6.106  11.452  19.482  0.00  0.00    +0.000 C 
ATOM     31  C   UNL     1      -5.868  10.279  18.542  0.00  0.00    +0.000 C 
ENDBRANCH  22  31
ENDBRANCH  21  29
BRANCH  21  32
ATOM     32  O   UNL     1       0.156  12.172  18.000  0.00  0.00    +0.000 OA
ATOM     33  H   UNL     1       0.015  12.418  17.063  0.00  0.00    +0.000 HD
ENDBRANCH  21  32
ENDBRANCH   1  21
TORSDOF 6
ENDMDL
MODEL 2
REMARK VINA RESULT:      -7.9      4.266      9.033
REMARK  Name = 
REMARK  9 active torsions:
REMARK  status: ('A' for Active; 'I' for Inactive)
REMARK    1  A    between atoms: C_1  and  C_2
REMARK    2  A    between atoms: C_2  and  C_3
REMARK    3  A    between atoms: C_10  and  C_11
REMARK    4  A    between atoms: C_11  and  O_12
REMARK    5  A    between atoms: C_11  and  C_13
REMARK    6  A    between atoms: C_15  and  C_16
REMARK    7  A    between atoms: C_22  and  C_23
REMARK    8  A    between atoms: C_28  and  O_29
REMARK    9  A    between atoms: O_29  and  C_30
REMARK                            x       y       z     vdW  Elec       q    Type
REMARK                         _______ _______ _______ _____ _____    ______ ____
ROOT
ATOM      1  C   UNL     1       3.473   5.937  18.919  0.00  0.00    +0.000 A 
ATOM      2  C   UNL     1       2.847   7.162  19.193  0.00  0.00    +0.000 A 
ATOM      3  C   UNL     1       1.755   7.246  20.046  0.00  0.00    +0.000 A 
ATOM      4  N   UNL     1       1.184   6.128  20.536  0.00  0.00    +0.000 NA
ATOM      5  C   UNL     1       1.692   4.927  20.203  0.00  0.00    +0.000 A 
ATOM      6  C   UNL     1       1.045   3.798  20.688  0.00  0.00    +0.000 A 
ATOM      7  C   UNL     1       1.469   2.499  20.395  0.00  0.00    +0.000 A 
ATOM      8  C   UNL     1       2.594   2.311  19.605  0.00  0.00    +0.000 A 
ATOM      9  C   UNL     1       3.287   3.433  19.138  0.00  0.00    +0.000 A 
ATOM     10  C   UNL     1       2.854   4.758  19.404  0.00  0.00    +0.000 A 
ENDROOT
BRANCH   3  11
ATOM     11  C   UNL     1       1.281   8.573  20.533  0.00  0.00    +0.000 A 
ATOM     12  C   UNL     1       1.088   8.764  21.924  0.00  0.00    +0.000 A 
ATOM     13  C   UNL     1       0.469   9.904  22.438  0.00  0.00    +0.000 A 
ATOM     14  C   UNL     1       0.060  10.897  21.570  0.00  0.00    +0.000 A 
ATOM     15  F   UNL     1      -0.560  11.983  22.053  0.00  0.00    +0.000 F 
ATOM     16  C   UNL     1       0.278  10.780  20.205  0.00  0.00    +0.000 A 
ATOM     17  C   UNL     1       0.885   9.626  19.670  0.00  0.00    +0.000 A 
ATOM     18  C   UNL     1       1.056   9.561  18.172  0.00  0.00    +0.000 C 
ENDBRANCH   3  11
BRANCH   8  19
ATOM     19  O   UNL     1       3.117   1.112  19.211  0.00  0.00    +0.000 OA
ATOM     20  C   UNL     1       3.992   1.119  18.091  0.00  0.00    +0.000 C 
ENDBRANCH   8  19
BRANCH   1  21
ATOM     21  C   UNL     1       4.804   6.042  18.182  0.00  0.00    +0.000 C 
BRANCH  21  29
ATOM     22  C   UNL     1       6.024   4.366  14.230  0.00  0.00    +0.000 C 
ATOM     23  C   UNL     1       5.647   5.856  14.426  0.00  0.00    +0.000 C 
ATOM     24  N   UNL     1       5.813   6.288  15.845  0.00  0.00    +0.000 NA
ATOM     25  C   UNL     1       7.158   5.843  16.297  0.00  0.00    +0.000 C 
ATOM     26  C   UNL     1       7.243   4.311  16.389  0.00  0.00    +0.000 C 
ATOM     27  C   UNL     1       6.055   3.702  15.624  0.00  0.00    +0.000 C 
ATOM     28  C   UNL     1       4.781   4.081  16.399  0.00  0.00    +0.000 C 
ATOM     29  C   UNL     1       4.740   5.610  16.665  0.00  0.00    +0.000 C 
BRANCH  22  31
ATOM     30  C   UNL     1       5.847   3.103  12.027  0.00  0.00    +0.000 C 
ATOM     31  C   UNL     1       5.104   3.622  13.250  0.00  0.00    +0.000 C 
ENDBRANCH  22  31
ENDBRANCH  21  29
BRANCH  21  32
ATOM     32  O   UNL     1       5.371   7.349  18.287  0.00  0.00    +0.000 OA
ATOM     33  H   UNL     1       5.483   7.656  17.364  0.00  0.00    +0.000 HD
ENDBRANCH  21  32
ENDBRANCH   1  21
TORSDOF 6
ENDMDL
MODEL 3
REMARK VINA RESULT:      -7.7      4.319      9.090
REMARK  Name = 
REMARK  9 active torsions:
REMARK  status: ('A' for Active; 'I' for Inactive)
REMARK    1  A    between atoms: C_1  and  C_2
REMARK    2  A    between atoms: C_2  and  C_3
REMARK    3  A    between atoms: C_10  and  C_11
REMARK    4  A    between atoms: C_11  and  O_12
REMARK    5  A    between atoms: C_11  and  C_13
REMARK    6  A    between atoms: C_15  and  C_16
REMARK    7  A    between atoms: C_22  and  C_23
REMARK    8  A    between atoms: C_28  and  O_29
REMARK    9  A    between atoms: O_29  and  C_30
REMARK                            x       y       z     vdW  Elec       q    Type
REMARK                         _______ _______ _______ _____ _____    ______ ____
ROOT
ATOM      1  C   UNL     1       4.401   6.267  18.294  0.00  0.00    +0.000 A 
ATOM      2  C   UNL     1       3.521   7.357  18.210  0.00  0.00    +0.000 A 
ATOM      3  C   UNL     1       2.368   7.421  18.981  0.00  0.00    +0.000 A 
ATOM      4  N   UNL     1       1.995   6.373  19.741  0.00  0.00    +0.000 NA
ATOM      5  C   UNL     1       2.760   5.266  19.758  0.00  0.00    +0.000 A 
ATOM      6  C   UNL     1       2.315   4.189  20.514  0.00  0.00    +0.000 A 
ATOM      7  C   UNL     1       3.014   2.981  20.594  0.00  0.00    +0.000 A 
ATOM      8  C   UNL     1       4.215   2.842  19.913  0.00  0.00    +0.000 A 
ATOM      9  C   UNL     1       4.704   3.926  19.177  0.00  0.00    +0.000 A 
ATOM     10  C   UNL     1       3.993   5.149  19.063  0.00  0.00    +0.000 A 
ENDROOT
BRANCH   3  11
ATOM     11  C   UNL     1       1.600   8.695  19.080  0.00  0.00    +0.000 A 
ATOM     12  C   UNL     1       1.470   9.508  17.927  0.00  0.00    +0.000 A 
ATOM     13  C   UNL     1       0.936  10.797  17.983  0.00  0.00    +0.000 A 
ATOM     14  C   UNL     1       0.486  11.287  19.193  0.00  0.00    +0.000 A 
ATOM     15  F   UNL     1      -0.004  12.532  19.261  0.00  0.00    +0.000 F 
ATOM     16  C   UNL     1       0.541  10.506  20.338  0.00  0.00    +0.000 A 
ATOM     17  C   UNL     1       1.094   9.210  20.301  0.00  0.00    +0.000 A 
ATOM     18  C   UNL     1       1.148   8.439  21.596  0.00  0.00    +0.000 C 
ENDBRANCH   3  11
BRANCH   8  19
ATOM     19  O   UNL     1       4.998   1.722  19.870  0.00  0.00    +0.000 OA
ATOM     20  C   UNL     1       5.301   1.092  21.107  0.00  0.00    +0.000 C 
ENDBRANCH   8  19
BRANCH   1  21
ATOM     21  C   UNL     1       5.739   6.461  17.589  0.00  0.00    +0.000 C 
BRANCH  21  29
ATOM     22  C   UNL     1       6.124   3.899  13.956  0.00  0.00    +0.000 C 
ATOM     23  C   UNL     1       7.015   5.142  14.200  0.00  0.00    +0.000 C 
ATOM     24  N   UNL     1       7.094   5.492  15.648  0.00  0.00    +0.000 NA
ATOM     25  C   UNL     1       7.414   4.247  16.396  0.00  0.00    +0.000 C 
ATOM     26  C   UNL     1       6.250   3.244  16.345  0.00  0.00    +0.000 C 
ATOM     27  C   UNL     1       5.280   3.668  15.229  0.00  0.00    +0.000 C 
ATOM     28  C   UNL     1       4.644   4.999  15.668  0.00  0.00    +0.000 C 
ATOM     29  C   UNL     1       5.744   6.019  16.073  0.00  0.00    +0.000 C 
BRANCH  22  31
ATOM     30  C   UNL     1       5.377   2.774  11.797  0.00  0.00    +0.000 C 
ATOM     31  C   UNL     1       5.257   4.000  12.691  0.00  0.00    +0.000 C 
ENDBRANCH  22  31
ENDBRANCH  21  29
BRANCH  21  32
ATOM     32  O   UNL     1       6.210   7.806  17.698  0.00  0.00    +0.000 OA
ATOM     33  H   UNL     1       5.467   8.307  18.095  0.00  0.00    +0.000 HD
ENDBRANCH  21  32
ENDBRANCH   1  21
TORSDOF 6
ENDMDL
MODEL 4
REMARK VINA RESULT:      -7.5      0.786      1.376
REMARK  Name = 
REMARK  9 active torsions:
REMARK  status: ('A' for Active; 'I' for Inactive)
REMARK    1  A    between atoms: C_1  and  C_2
REMARK    2  A    between atoms: C_2  and  C_3
REMARK    3  A    between atoms: C_10  and  C_11
REMARK    4  A    between atoms: C_11  and  O_12
REMARK    5  A    between atoms: C_11  and  C_13
REMARK    6  A    between atoms: C_15  and  C_16
REMARK    7  A    between atoms: C_22  and  C_23
REMARK    8  A    between atoms: C_28  and  O_29
REMARK    9  A    between atoms: O_29  and  C_30
REMARK                            x       y       z     vdW  Elec       q    Type
REMARK                         _______ _______ _______ _____ _____    ______ ____
ROOT
ATOM      1  C   UNL     1       0.574   9.768  18.938  0.00  0.00    +0.000 A 
ATOM      2  C   UNL     1       1.362   8.806  18.288  0.00  0.00    +0.000 A 
ATOM      3  C   UNL     1       1.925   7.741  18.977  0.00  0.00    +0.000 A 
ATOM      4  N   UNL     1       1.836   7.672  20.320  0.00  0.00    +0.000 NA
ATOM      5  C   UNL     1       1.181   8.640  20.987  0.00  0.00    +0.000 A 
ATOM      6  C   UNL     1       1.154   8.559  22.374  0.00  0.00    +0.000 A 
ATOM      7  C   UNL     1       0.521   9.514  23.174  0.00  0.00    +0.000 A 
ATOM      8  C   UNL     1      -0.131  10.582  22.576  0.00  0.00    +0.000 A 
ATOM      9  C   UNL     1      -0.152  10.664  21.179  0.00  0.00    +0.000 A 
ATOM     10  C   UNL     1       0.509   9.718  20.353  0.00  0.00    +0.000 A 
ENDROOT
BRANCH   3  11
ATOM     11  C   UNL     1       2.522   6.595  18.233  0.00  0.00    +0.000 A 
ATOM     12  C   UNL     1       1.848   5.349  18.237  0.00  0.00    +0.000 A 
ATOM     13  C   UNL     1       2.432   4.186  17.731  0.00  0.00    +0.000 A 
ATOM     14  C   UNL     1       3.694   4.255  17.174  0.00  0.00    +0.000 A 
ATOM     15  F   UNL     1       4.273   3.139  16.710  0.00  0.00    +0.000 F 
ATOM     16  C   UNL     1       4.370   5.464  17.097  0.00  0.00    +0.000 A 
ATOM     17  C   UNL     1       3.801   6.642  17.622  0.00  0.00    +0.000 A 
ATOM     18  C   UNL     1       4.615   7.909  17.528  0.00  0.00    +0.000 C 
ENDBRANCH   3  11
BRANCH   8  19
ATOM     19  O   UNL     1      -0.769  11.606  23.218  0.00  0.00    +0.000 OA
ATOM     20  C   UNL     1      -2.113  11.875  22.839  0.00  0.00    +0.000 C 
ENDBRANCH   8  19
BRANCH   1  21
ATOM     21  C   UNL     1      -0.182  10.717  18.014  0.00  0.00    +0.000 C 
BRANCH  21  29
ATOM     22  C   UNL     1      -4.616  10.593  17.533  0.00  0.00    +0.000 C 
ATOM     23  C   UNL     1      -3.842  11.906  17.810  0.00  0.00    +0.000 C 
ATOM     24  N   UNL     1      -2.412  11.804  17.395  0.00  0.00    +0.000 NA
ATOM     25  C   UNL     1      -2.382  11.255  16.014  0.00  0.00    +0.000 C 
ATOM     26  C   UNL     1      -2.857   9.793  15.978  0.00  0.00    +0.000 C 
ATOM     27  C   UNL     1      -3.577   9.474  17.300  0.00  0.00    +0.000 C 
ATOM     28  C   UNL     1      -2.515   9.524  18.413  0.00  0.00    +0.000 C 
ATOM     29  C   UNL     1      -1.719  10.856  18.345  0.00  0.00    +0.000 C 
BRANCH  22  31
ATOM     30  C   UNL     1      -6.893  11.075  18.567  0.00  0.00    +0.000 C 
ATOM     31  C   UNL     1      -5.628  10.230  18.632  0.00  0.00    +0.000 C 
ENDBRANCH  22  31
ENDBRANCH  21  29
BRANCH  21  32
ATOM     32  O   UNL     1       0.420  12.012  17.972  0.00  0.00    +0.000 OA
ATOM     33  H   UNL     1       0.868  12.116  18.836  0.00  0.00    +0.000 HD
ENDBRANCH  21  32
ENDBRANCH   1  21
TORSDOF 6
ENDMDL
MODEL 5
REMARK VINA RESULT:      -7.4      5.960      7.475
REMARK  Name = 
REMARK  9 active torsions:
REMARK  status: ('A' for Active; 'I' for Inactive)
REMARK    1  A    between atoms: C_1  and  C_2
REMARK    2  A    between atoms: C_2  and  C_3
REMARK    3  A    between atoms: C_10  and  C_11
REMARK    4  A    between atoms: C_11  and  O_12
REMARK    5  A    between atoms: C_11  and  C_13
REMARK    6  A    between atoms: C_15  and  C_16
REMARK    7  A    between atoms: C_22  and  C_23
REMARK    8  A    between atoms: C_28  and  O_29
REMARK    9  A    between atoms: O_29  and  C_30
REMARK                            x       y       z     vdW  Elec       q    Type
REMARK                         _______ _______ _______ _____ _____    ______ ____
ROOT
ATOM      1  C   UNL     1       1.734  14.882  19.370  0.00  0.00    +0.000 A 
ATOM      2  C   UNL     1       3.097  14.597  19.191  0.00  0.00    +0.000 A 
ATOM      3  C   UNL     1       3.958  15.510  18.597  0.00  0.00    +0.000 A 
ATOM      4  N   UNL     1       3.480  16.649  18.058  0.00  0.00    +0.000 NA
ATOM      5  C   UNL     1       2.160  16.902  18.114  0.00  0.00    +0.000 A 
ATOM      6  C   UNL     1       1.701  18.062  17.503  0.00  0.00    +0.000 A 
ATOM      7  C   UNL     1       0.350  18.421  17.480  0.00  0.00    +0.000 A 
ATOM      8  C   UNL     1      -0.582  17.607  18.107  0.00  0.00    +0.000 A 
ATOM      9  C   UNL     1      -0.140  16.454  18.764  0.00  0.00    +0.000 A 
ATOM     10  C   UNL     1       1.224  16.061  18.773  0.00  0.00    +0.000 A 
ENDROOT
BRANCH   3  11
ATOM     11  C   UNL     1       5.433  15.304  18.663  0.00  0.00    +0.000 A 
ATOM     12  C   UNL     1       6.064  14.534  17.655  0.00  0.00    +0.000 A 
ATOM     13  C   UNL     1       7.399  14.137  17.749  0.00  0.00    +0.000 A 
ATOM     14  C   UNL     1       8.144  14.535  18.841  0.00  0.00    +0.000 A 
ATOM     15  F   UNL     1       9.418  14.137  18.953  0.00  0.00    +0.000 F 
ATOM     16  C   UNL     1       7.585  15.337  19.826  0.00  0.00    +0.000 A 
ATOM     17  C   UNL     1       6.233  15.729  19.754  0.00  0.00    +0.000 A 
ATOM     18  C   UNL     1       5.692  16.573  20.882  0.00  0.00    +0.000 C 
ENDBRANCH   3  11
BRANCH   8  19
ATOM     19  O   UNL     1      -1.934  17.806  18.150  0.00  0.00    +0.000 OA
ATOM     20  C   UNL     1      -2.548  17.835  19.431  0.00  0.00    +0.000 C 
ENDBRANCH   8  19
BRANCH   1  21
ATOM     21  C   UNL     1       0.981  13.901  20.262  0.00  0.00    +0.000 C 
BRANCH  21  29
ATOM     22  C   UNL     1      -1.642  10.630  18.736  0.00  0.00    +0.000 C 
ATOM     23  C   UNL     1      -0.475  10.374  19.721  0.00  0.00    +0.000 C 
ATOM     24  N   UNL     1      -0.118  11.603  20.489  0.00  0.00    +0.000 NA
ATOM     25  C   UNL     1      -1.377  12.176  21.034  0.00  0.00    +0.000 C 
ATOM     26  C   UNL     1      -2.280  12.718  19.914  0.00  0.00    +0.000 C 
ATOM     27  C   UNL     1      -1.789  12.159  18.568  0.00  0.00    +0.000 C 
ATOM     28  C   UNL     1      -0.405  12.778  18.303  0.00  0.00    +0.000 C 
ATOM     29  C   UNL     1       0.524  12.578  19.531  0.00  0.00    +0.000 C 
BRANCH  22  31
ATOM     30  C   UNL     1      -2.753   9.939  16.552  0.00  0.00    +0.000 C 
ATOM     31  C   UNL     1      -1.483   9.907  17.389  0.00  0.00    +0.000 C 
ENDBRANCH  22  31
ENDBRANCH  21  29
BRANCH  21  32
ATOM     32  O   UNL     1       1.725  13.569  21.436  0.00  0.00    +0.000 OA
ATOM     33  H   UNL     1       1.100  13.076  22.006  0.00  0.00    +0.000 HD
ENDBRANCH  21  32
ENDBRANCH   1  21
TORSDOF 6
ENDMDL
MODEL 6
REMARK VINA RESULT:      -7.3      3.449      6.703
REMARK  Name = 
REMARK  9 active torsions:
REMARK  status: ('A' for Active; 'I' for Inactive)
REMARK    1  A    between atoms: C_1  and  C_2
REMARK    2  A    between atoms: C_2  and  C_3
REMARK    3  A    between atoms: C_10  and  C_11
REMARK    4  A    between atoms: C_11  and  O_12
REMARK    5  A    between atoms: C_11  and  C_13
REMARK    6  A    between atoms: C_15  and  C_16
REMARK    7  A    between atoms: C_22  and  C_23
REMARK    8  A    between atoms: C_28  and  O_29
REMARK    9  A    between atoms: O_29  and  C_30
REMARK                            x       y       z     vdW  Elec       q    Type
REMARK                         _______ _______ _______ _____ _____    ______ ____
ROOT
ATOM      1  C   UNL     1      -0.562  11.201  19.715  0.00  0.00    +0.000 A 
ATOM      2  C   UNL     1      -1.352  11.945  20.604  0.00  0.00    +0.000 A 
ATOM      3  C   UNL     1      -1.259  11.774  21.978  0.00  0.00    +0.000 A 
ATOM      4  N   UNL     1      -0.493  10.792  22.493  0.00  0.00    +0.000 NA
ATOM      5  C   UNL     1       0.193   9.986  21.662  0.00  0.00    +0.000 A 
ATOM      6  C   UNL     1       0.931   8.955  22.230  0.00  0.00    +0.000 A 
ATOM      7  C   UNL     1       1.669   8.045  21.468  0.00  0.00    +0.000 A 
ATOM      8  C   UNL     1       1.694   8.174  20.087  0.00  0.00    +0.000 A 
ATOM      9  C   UNL     1       0.992   9.229  19.494  0.00  0.00    +0.000 A 
ATOM     10  C   UNL     1       0.216  10.145  20.251  0.00  0.00    +0.000 A 
ENDROOT
BRANCH   3  11
ATOM     11  C   UNL     1      -1.898  12.752  22.903  0.00  0.00    +0.000 A 
ATOM     12  C   UNL     1      -3.125  12.409  23.523  0.00  0.00    +0.000 A 
ATOM     13  C   UNL     1      -3.879  13.336  24.244  0.00  0.00    +0.000 A 
ATOM     14  C   UNL     1      -3.400  14.623  24.391  0.00  0.00    +0.000 A 
ATOM     15  F   UNL     1      -4.129  15.527  25.059  0.00  0.00    +0.000 F 
ATOM     16  C   UNL     1      -2.177  14.990  23.850  0.00  0.00    +0.000 A 
ATOM     17  C   UNL     1      -1.414  14.070  23.103  0.00  0.00    +0.000 A 
ATOM     18  C   UNL     1      -0.111  14.558  22.519  0.00  0.00    +0.000 C 
ENDBRANCH   3  11
BRANCH   8  19
ATOM     19  O   UNL     1       2.343   7.354  19.207  0.00  0.00    +0.000 OA
ATOM     20  C   UNL     1       2.441   5.978  19.550  0.00  0.00    +0.000 C 
ENDBRANCH   8  19
BRANCH   1  21
ATOM     21  C   UNL     1      -0.588  11.683  18.268  0.00  0.00    +0.000 C 
BRANCH  21  29
ATOM     22  C   UNL     1      -4.804  11.097  16.926  0.00  0.00    +0.000 C 
ATOM     23  C   UNL     1      -3.693  11.631  15.986  0.00  0.00    +0.000 C 
ATOM     24  N   UNL     1      -2.333  11.233  16.453  0.00  0.00    +0.000 NA
ATOM     25  C   UNL     1      -2.364   9.774  16.738  0.00  0.00    +0.000 C 
ATOM     26  C   UNL     1      -3.253   9.456  17.952  0.00  0.00    +0.000 C 
ATOM     27  C   UNL     1      -4.134  10.680  18.254  0.00  0.00    +0.000 C 
ATOM     28  C   UNL     1      -3.196  11.803  18.728  0.00  0.00    +0.000 C 
ATOM     29  C   UNL     1      -2.033  12.003  17.718  0.00  0.00    +0.000 C 
BRANCH  22  31
ATOM     30  C   UNL     1      -6.980  11.588  18.153  0.00  0.00    +0.000 C 
ATOM     31  C   UNL     1      -5.959  12.088  17.141  0.00  0.00    +0.000 C 
ENDBRANCH  22  31
ENDBRANCH  21  29
BRANCH  21  32
ATOM     32  O   UNL     1       0.264  12.811  18.065  0.00  0.00    +0.000 OA
ATOM     33  H   UNL     1       1.114  12.571  18.489  0.00  0.00    +0.000 HD
ENDBRANCH  21  32
ENDBRANCH   1  21
TORSDOF 6
ENDMDL
MODEL 7
REMARK VINA RESULT:      -7.3      3.575      6.757
REMARK  Name = 
REMARK  9 active torsions:
REMARK  status: ('A' for Active; 'I' for Inactive)
REMARK    1  A    between atoms: C_1  and  C_2
REMARK    2  A    between atoms: C_2  and  C_3
REMARK    3  A    between atoms: C_10  and  C_11
REMARK    4  A    between atoms: C_11  and  O_12
REMARK    5  A    between atoms: C_11  and  C_13
REMARK    6  A    between atoms: C_15  and  C_16
REMARK    7  A    between atoms: C_22  and  C_23
REMARK    8  A    between atoms: C_28  and  O_29
REMARK    9  A    between atoms: O_29  and  C_30
REMARK                            x       y       z     vdW  Elec       q    Type
REMARK                         _______ _______ _______ _____ _____    ______ ____
ROOT
ATOM      1  C   UNL     1      -0.589  11.463  19.875  0.00  0.00    +0.000 A 
ATOM      2  C   UNL     1      -1.310  12.351  20.688  0.00  0.00    +0.000 A 
ATOM      3  C   UNL     1      -1.201  12.322  22.072  0.00  0.00    +0.000 A 
ATOM      4  N   UNL     1      -0.495  11.349  22.680  0.00  0.00    +0.000 NA
ATOM      5  C   UNL     1       0.119  10.413  21.932  0.00  0.00    +0.000 A 
ATOM      6  C   UNL     1       0.794   9.399  22.600  0.00  0.00    +0.000 A 
ATOM      7  C   UNL     1       1.453   8.363  21.931  0.00  0.00    +0.000 A 
ATOM      8  C   UNL     1       1.460   8.342  20.544  0.00  0.00    +0.000 A 
ATOM      9  C   UNL     1       0.821   9.374  19.849  0.00  0.00    +0.000 A 
ATOM     10  C   UNL     1       0.125  10.418  20.513  0.00  0.00    +0.000 A 
ENDROOT
BRANCH   3  11
ATOM     11  C   UNL     1      -1.754  13.435  22.893  0.00  0.00    +0.000 A 
ATOM     12  C   UNL     1      -0.860  14.366  23.477  0.00  0.00    +0.000 A 
ATOM     13  C   UNL     1      -1.281  15.316  24.410  0.00  0.00    +0.000 A 
ATOM     14  C   UNL     1      -2.617  15.378  24.752  0.00  0.00    +0.000 A 
ATOM     15  F   UNL     1      -3.025  16.268  25.666  0.00  0.00    +0.000 F 
ATOM     16  C   UNL     1      -3.539  14.524  24.164  0.00  0.00    +0.000 A 
ATOM     17  C   UNL     1      -3.126  13.548  23.235  0.00  0.00    +0.000 A 
ATOM     18  C   UNL     1      -4.186  12.636  22.667  0.00  0.00    +0.000 C 
ENDBRANCH   3  11
BRANCH   8  19
ATOM     19  O   UNL     1       2.034   7.389  19.751  0.00  0.00    +0.000 OA
ATOM     20  C   UNL     1       2.407   7.775  18.435  0.00  0.00    +0.000 C 
ENDBRANCH   8  19
BRANCH   1  21
ATOM     21  C   UNL     1      -0.611  11.788  18.385  0.00  0.00    +0.000 C 
BRANCH  21  29
ATOM     22  C   UNL     1      -4.760  11.038  16.923  0.00  0.00    +0.000 C 
ATOM     23  C   UNL     1      -3.650  11.633  16.020  0.00  0.00    +0.000 C 
ATOM     24  N   UNL     1      -2.286  11.288  16.518  0.00  0.00    +0.000 NA
ATOM     25  C   UNL     1      -2.260   9.825  16.784  0.00  0.00    +0.000 C 
ATOM     26  C   UNL     1      -3.166   9.452  17.969  0.00  0.00    +0.000 C 
ATOM     27  C   UNL     1      -4.108  10.632  18.263  0.00  0.00    +0.000 C 
ATOM     28  C   UNL     1      -3.232  11.788  18.776  0.00  0.00    +0.000 C 
ATOM     29  C   UNL     1      -2.054  12.052  17.800  0.00  0.00    +0.000 C 
BRANCH  22  31
ATOM     30  C   UNL     1      -6.918  11.484  18.197  0.00  0.00    +0.000 C 
ATOM     31  C   UNL     1      -5.963  11.975  17.119  0.00  0.00    +0.000 C 
ENDBRANCH  22  31
ENDBRANCH  21  29
BRANCH  21  32
ATOM     32  O   UNL     1       0.246  12.885  18.066  0.00  0.00    +0.000 OA
ATOM     33  H   UNL     1       1.111  12.482  17.849  0.00  0.00    +0.000 HD
ENDBRANCH  21  32
ENDBRANCH   1  21
TORSDOF 6
ENDMDL
MODEL 8
REMARK VINA RESULT:      -7.3      2.489      4.091
REMARK  Name = 
REMARK  9 active torsions:
REMARK  status: ('A' for Active; 'I' for Inactive)
REMARK    1  A    between atoms: C_1  and  C_2
REMARK    2  A    between atoms: C_2  and  C_3
REMARK    3  A    between atoms: C_10  and  C_11
REMARK    4  A    between atoms: C_11  and  O_12
REMARK    5  A    between atoms: C_11  and  C_13
REMARK    6  A    between atoms: C_15  and  C_16
REMARK    7  A    between atoms: C_22  and  C_23
REMARK    8  A    between atoms: C_28  and  O_29
REMARK    9  A    between atoms: O_29  and  C_30
REMARK                            x       y       z     vdW  Elec       q    Type
REMARK                         _______ _______ _______ _____ _____    ______ ____
ROOT
ATOM      1  C   UNL     1       0.273  10.408  19.558  0.00  0.00    +0.000 A 
ATOM      2  C   UNL     1       1.234   9.556  18.993  0.00  0.00    +0.000 A 
ATOM      3  C   UNL     1       1.732   8.460  19.686  0.00  0.00    +0.000 A 
ATOM      4  N   UNL     1       1.397   8.259  20.975  0.00  0.00    +0.000 NA
ATOM      5  C   UNL     1       0.562   9.122  21.583  0.00  0.00    +0.000 A 
ATOM      6  C   UNL     1       0.281   8.907  22.926  0.00  0.00    +0.000 A 
ATOM      7  C   UNL     1      -0.556   9.746  23.667  0.00  0.00    +0.000 A 
ATOM      8  C   UNL     1      -1.157  10.831  23.046  0.00  0.00    +0.000 A 
ATOM      9  C   UNL     1      -0.922  11.045  21.683  0.00  0.00    +0.000 A 
ATOM     10  C   UNL     1      -0.053  10.219  20.924  0.00  0.00    +0.000 A 
ENDROOT
BRANCH   3  11
ATOM     11  C   UNL     1       2.536   7.425  18.978  0.00  0.00    +0.000 A 
ATOM     12  C   UNL     1       3.318   7.809  17.861  0.00  0.00    +0.000 A 
ATOM     13  C   UNL     1       3.942   6.874  17.033  0.00  0.00    +0.000 A 
ATOM     14  C   UNL     1       3.825   5.530  17.328  0.00  0.00    +0.000 A 
ATOM     15  F   UNL     1       4.398   4.624  16.525  0.00  0.00    +0.000 F 
ATOM     16  C   UNL     1       3.117   5.109  18.444  0.00  0.00    +0.000 A 
ATOM     17  C   UNL     1       2.466   6.040  19.278  0.00  0.00    +0.000 A 
ATOM     18  C   UNL     1       1.687   5.498  20.452  0.00  0.00    +0.000 C 
ENDBRANCH   3  11
BRANCH   8  19
ATOM     19  O   UNL     1      -1.975  11.753  23.636  0.00  0.00    +0.000 OA
ATOM     20  C   UNL     1      -1.873  13.098  23.187  0.00  0.00    +0.000 C 
ENDBRANCH   8  19
BRANCH   1  21
ATOM     21  C   UNL     1      -0.360  11.400  18.588  0.00  0.00    +0.000 C 
BRANCH  21  29
ATOM     22  C   UNL     1       2.033  15.132  19.091  0.00  0.00    +0.000 C 
ATOM     23  C   UNL     1       0.786  15.056  18.175  0.00  0.00    +0.000 C 
ATOM     24  N   UNL     1      -0.128  13.947  18.575  0.00  0.00    +0.000 NA
ATOM     25  C   UNL     1      -0.346  14.049  20.043  0.00  0.00    +0.000 C 
ATOM     26  C   UNL     1       0.940  13.737  20.826  0.00  0.00    +0.000 C 
ATOM     27  C   UNL     1       2.135  13.796  19.858  0.00  0.00    +0.000 C 
ATOM     28  C   UNL     1       1.972  12.626  18.872  0.00  0.00    +0.000 C 
ATOM     29  C   UNL     1       0.553  12.641  18.242  0.00  0.00    +0.000 C 
BRANCH  22  31
ATOM     30  C   UNL     1       3.145  16.598  17.330  0.00  0.00    +0.000 C 
ATOM     31  C   UNL     1       3.330  15.474  18.340  0.00  0.00    +0.000 C 
ENDBRANCH  22  31
ENDBRANCH  21  29
BRANCH  21  32
ATOM     32  O   UNL     1      -0.789  10.767  17.382  0.00  0.00    +0.000 OA
ATOM     33  H   UNL     1      -1.061   9.865  17.647  0.00  0.00    +0.000 HD
ENDBRANCH  21  32
ENDBRANCH   1  21
TORSDOF 6
ENDMDL
MODEL 9
REMARK VINA RESULT:      -7.3      0.756      1.398
REMARK  Name = 
REMARK  9 active torsions:
REMARK  status: ('A' for Active; 'I' for Inactive)
REMARK    1  A    between atoms: C_1  and  C_2
REMARK    2  A    between atoms: C_2  and  C_3
REMARK    3  A    between atoms: C_10  and  C_11
REMARK    4  A    between atoms: C_11  and  O_12
REMARK    5  A    between atoms: C_11  and  C_13
REMARK    6  A    between atoms: C_15  and  C_16
REMARK    7  A    between atoms: C_22  and  C_23
REMARK    8  A    between atoms: C_28  and  O_29
REMARK    9  A    between atoms: O_29  and  C_30
REMARK                            x       y       z     vdW  Elec       q    Type
REMARK                         _______ _______ _______ _____ _____    ______ ____
ROOT
ATOM      1  C   UNL     1       0.218   9.925  19.393  0.00  0.00    +0.000 A 
ATOM      2  C   UNL     1       1.109   8.913  19.005  0.00  0.00    +0.000 A 
ATOM      3  C   UNL     1       1.596   7.984  19.915  0.00  0.00    +0.000 A 
ATOM      4  N   UNL     1       1.324   8.109  21.229  0.00  0.00    +0.000 NA
ATOM      5  C   UNL     1       0.562   9.135  21.650  0.00  0.00    +0.000 A 
ATOM      6  C   UNL     1       0.346   9.257  23.017  0.00  0.00    +0.000 A 
ATOM      7  C   UNL     1      -0.413  10.291  23.574  0.00  0.00    +0.000 A 
ATOM      8  C   UNL     1      -0.999  11.231  22.740  0.00  0.00    +0.000 A 
ATOM      9  C   UNL     1      -0.830  11.107  21.357  0.00  0.00    +0.000 A 
ATOM     10  C   UNL     1      -0.041  10.080  20.778  0.00  0.00    +0.000 A 
ENDROOT
BRANCH   3  11
ATOM     11  C   UNL     1       2.315   6.769  19.438  0.00  0.00    +0.000 A 
ATOM     12  C   UNL     1       2.208   5.571  20.186  0.00  0.00    +0.000 A 
ATOM     13  C   UNL     1       2.998   4.452  19.915  0.00  0.00    +0.000 A 
ATOM     14  C   UNL     1       3.890   4.498  18.862  0.00  0.00    +0.000 A 
ATOM     15  F   UNL     1       4.671   3.439  18.611  0.00  0.00    +0.000 F 
ATOM     16  C   UNL     1       3.990   5.630  18.067  0.00  0.00    +0.000 A 
ATOM     17  C   UNL     1       3.213   6.773  18.340  0.00  0.00    +0.000 A 
ATOM     18  C   UNL     1       3.405   7.975  17.448  0.00  0.00    +0.000 C 
ENDBRANCH   3  11
BRANCH   8  19
ATOM     19  O   UNL     1      -1.743  12.309  23.130  0.00  0.00    +0.000 OA
ATOM     20  C   UNL     1      -3.091  12.067  23.510  0.00  0.00    +0.000 C 
ENDBRANCH   8  19
BRANCH   1  21
ATOM     21  C   UNL     1      -0.425  10.695  18.244  0.00  0.00    +0.000 C 
BRANCH  21  29
ATOM     22  C   UNL     1      -4.800  10.672  17.370  0.00  0.00    +0.000 C 
ATOM     23  C   UNL     1      -3.991  11.981  17.553  0.00  0.00    +0.000 C 
ATOM     24  N   UNL     1      -2.537  11.775  17.289  0.00  0.00    +0.000 NA
ATOM     25  C   UNL     1      -2.412  11.053  15.996  0.00  0.00    +0.000 C 
ATOM     26  C   UNL     1      -2.952   9.617  16.098  0.00  0.00    +0.000 C 
ATOM     27  C   UNL     1      -3.799   9.496  17.376  0.00  0.00    +0.000 C 
ATOM     28  C   UNL     1      -2.838   9.649  18.568  0.00  0.00    +0.000 C 
ATOM     29  C   UNL     1      -1.977  10.932  18.410  0.00  0.00    +0.000 C 
BRANCH  22  31
ATOM     30  C   UNL     1      -6.000  11.645  19.395  0.00  0.00    +0.000 C 
ATOM     31  C   UNL     1      -5.921  10.490  18.406  0.00  0.00    +0.000 C 
ENDBRANCH  22  31
ENDBRANCH  21  29
BRANCH  21  32
ATOM     32  O   UNL     1       0.229  11.943  18.008  0.00  0.00    +0.000 OA
ATOM     33  H   UNL     1       0.360  12.338  18.894  0.00  0.00    +0.000 HD
ENDBRANCH  21  32
ENDBRANCH   1  21
TORSDOF 6
ENDMDL
