MODEL 1
REMARK VINA RESULT:      -7.9      0.000      0.000
REMARK  Name = 
REMARK  1 active torsions:
REMARK  status: ('A' for Active; 'I' for Inactive)
REMARK    1  A    between atoms: N_10  and  C_11
REMARK                            x       y       z     vdW  Elec       q    Type
REMARK                         _______ _______ _______ _____ _____    ______ ____
ROOT
ATOM      1  F   UNL     1       5.102   2.716  11.812  0.00  0.00    +0.000 F 
ATOM      2  C   UNL     1       5.725   3.465  12.731  0.00  0.00    +0.000 A 
ATOM      3  C   UNL     1       6.847   4.195  12.375  0.00  0.00    +0.000 A 
ATOM      4  C   UNL     1       7.482   4.981  13.337  0.00  0.00    +0.000 A 
ATOM      5  C   UNL     1       7.020   5.052  14.647  0.00  0.00    +0.000 A 
ATOM      6  N   UNL     1       7.671   5.837  15.507  0.00  0.00    +0.000 NA
ATOM      7  C   UNL     1       7.180   5.904  16.748  0.00  0.00    +0.000 A 
ATOM      8  N   UNL     1       6.105   5.259  17.204  0.00  0.00    +0.000 NA
ATOM      9  C   UNL     1       5.458   4.462  16.333  0.00  0.00    +0.000 A 
ATOM     10  N   UNL     1       4.324   3.745  16.795  0.00  0.00    +0.000 N 
ATOM     11  C   UNL     1       5.884   4.306  15.004  0.00  0.00    +0.000 A 
ATOM     12  C   UNL     1       5.236   3.511  14.029  0.00  0.00    +0.000 A 
ATOM     13  H   UNL     1       4.544   2.755  16.832  0.00  0.00    +0.000 HD
ENDROOT
BRANCH  10  14
ATOM     14  C   UNL     1       3.462   4.164  17.835  0.00  0.00    +0.000 A 
ATOM     15  C   UNL     1       2.893   5.445  17.811  0.00  0.00    +0.000 A 
ATOM     16  C   UNL     1       2.087   5.888  18.866  0.00  0.00    +0.000 A 
ATOM     17  C   UNL     1       1.864   5.067  19.971  0.00  0.00    +0.000 A 
ATOM     18  C   UNL     1       2.450   3.807  20.016  0.00  0.00    +0.000 A 
ATOM     19 BR   UNL     1       2.183   2.696  21.523  0.00  0.00    +0.000 Br
ATOM     20  C   UNL     1       3.246   3.360  18.963  0.00  0.00    +0.000 A 
ENDBRANCH  10  14
TORSDOF 1
ENDMDL
MODEL 2
REMARK VINA RESULT:      -7.6      1.571      2.084
REMARK  Name = 
REMARK  1 active torsions:
REMARK  status: ('A' for Active; 'I' for Inactive)
REMARK    1  A    between atoms: N_10  and  C_11
REMARK                            x       y       z     vdW  Elec       q    Type
REMARK                         _______ _______ _______ _____ _____    ______ ____
ROOT
ATOM      1  F   UNL     1       4.874   3.817  12.810  0.00  0.00    +0.000 F 
ATOM      2  C   UNL     1       5.573   4.118  13.911  0.00  0.00    +0.000 A 
ATOM      3  C   UNL     1       6.833   4.679  13.792  0.00  0.00    +0.000 A 
ATOM      4  C   UNL     1       7.549   4.998  14.947  0.00  0.00    +0.000 A 
ATOM      5  C   UNL     1       7.031   4.769  16.216  0.00  0.00    +0.000 A 
ATOM      6  N   UNL     1       7.768   5.115  17.273  0.00  0.00    +0.000 NA
ATOM      7  C   UNL     1       7.226   4.909  18.477  0.00  0.00    +0.000 A 
ATOM      8  N   UNL     1       6.022   4.388  18.717  0.00  0.00    +0.000 NA
ATOM      9  C   UNL     1       5.286   4.032  17.646  0.00  0.00    +0.000 A 
ATOM     10  N   UNL     1       4.010   3.455  17.870  0.00  0.00    +0.000 N 
ATOM     11  C   UNL     1       5.754   4.196  16.332  0.00  0.00    +0.000 A 
ATOM     12  C   UNL     1       5.024   3.874  15.162  0.00  0.00    +0.000 A 
ATOM     13  H   UNL     1       4.033   2.476  17.606  0.00  0.00    +0.000 HD
ENDROOT
BRANCH  10  14
ATOM     14  C   UNL     1       3.184   3.711  18.990  0.00  0.00    +0.000 A 
ATOM     15  C   UNL     1       2.649   2.651  19.733  0.00  0.00    +0.000 A 
ATOM     16  C   UNL     1       1.783   2.895  20.805  0.00  0.00    +0.000 A 
ATOM     17  C   UNL     1       1.418   4.201  21.128  0.00  0.00    +0.000 A 
ATOM     18  C   UNL     1       1.919   5.258  20.375  0.00  0.00    +0.000 A 
ATOM     19 BR   UNL     1       1.408   7.032  20.781  0.00  0.00    +0.000 Br
ATOM     20  C   UNL     1       2.789   5.017  19.313  0.00  0.00    +0.000 A 
ENDBRANCH  10  14
TORSDOF 1
ENDMDL
MODEL 3
REMARK VINA RESULT:      -7.5      1.235      1.579
REMARK  Name = 
REMARK  1 active torsions:
REMARK  status: ('A' for Active; 'I' for Inactive)
REMARK    1  A    between atoms: N_10  and  C_11
REMARK                            x       y       z     vdW  Elec       q    Type
REMARK                         _______ _______ _______ _____ _____    ______ ____
ROOT
ATOM      1  F   UNL     1       5.282   2.713  11.606  0.00  0.00    +0.000 F 
ATOM      2  C   UNL     1       5.841   3.444  12.578  0.00  0.00    +0.000 A 
ATOM      3  C   UNL     1       6.928   4.252  12.289  0.00  0.00    +0.000 A 
ATOM      4  C   UNL     1       7.497   5.018  13.308  0.00  0.00    +0.000 A 
ATOM      5  C   UNL     1       7.003   4.993  14.607  0.00  0.00    +0.000 A 
ATOM      6  N   UNL     1       7.590   5.765  15.523  0.00  0.00    +0.000 NA
ATOM      7  C   UNL     1       7.069   5.738  16.754  0.00  0.00    +0.000 A 
ATOM      8  N   UNL     1       6.022   5.012  17.148  0.00  0.00    +0.000 NA
ATOM      9  C   UNL     1       5.440   4.228  16.220  0.00  0.00    +0.000 A 
ATOM     10  N   UNL     1       4.337   3.427  16.615  0.00  0.00    +0.000 N 
ATOM     11  C   UNL     1       5.903   4.168  14.895  0.00  0.00    +0.000 A 
ATOM     12  C   UNL     1       5.322   3.393  13.864  0.00  0.00    +0.000 A 
ATOM     13  H   UNL     1       4.611   2.450  16.605  0.00  0.00    +0.000 HD
ENDROOT
BRANCH  10  14
ATOM     14  C   UNL     1       3.430   3.742  17.653  0.00  0.00    +0.000 A 
ATOM     15  C   UNL     1       2.575   2.760  18.169  0.00  0.00    +0.000 A 
ATOM     16  C   UNL     1       1.633   3.077  19.155  0.00  0.00    +0.000 A 
ATOM     17  C   UNL     1       1.517   4.388  19.616  0.00  0.00    +0.000 A 
ATOM     18  C   UNL     1       2.342   5.375  19.087  0.00  0.00    +0.000 A 
ATOM     19 BR   UNL     1       2.173   7.163  19.681  0.00  0.00    +0.000 Br
ATOM     20  C   UNL     1       3.285   5.059  18.112  0.00  0.00    +0.000 A 
ENDBRANCH  10  14
TORSDOF 1
ENDMDL
MODEL 4
REMARK VINA RESULT:      -7.2      3.719      5.166
REMARK  Name = 
REMARK  1 active torsions:
REMARK  status: ('A' for Active; 'I' for Inactive)
REMARK    1  A    between atoms: N_10  and  C_11
REMARK                            x       y       z     vdW  Elec       q    Type
REMARK                         _______ _______ _______ _____ _____    ______ ____
ROOT
ATOM      1  F   UNL     1       7.833   7.004  16.788  0.00  0.00    +0.000 F 
ATOM      2  C   UNL     1       6.742   6.240  16.922  0.00  0.00    +0.000 A 
ATOM      3  C   UNL     1       6.828   4.877  16.694  0.00  0.00    +0.000 A 
ATOM      4  C   UNL     1       5.686   4.088  16.847  0.00  0.00    +0.000 A 
ATOM      5  C   UNL     1       4.463   4.633  17.221  0.00  0.00    +0.000 A 
ATOM      6  N   UNL     1       3.420   3.813  17.362  0.00  0.00    +0.000 NA
ATOM      7  C   UNL     1       2.269   4.367  17.752  0.00  0.00    +0.000 A 
ATOM      8  N   UNL     1       2.067   5.660  18.010  0.00  0.00    +0.000 NA
ATOM      9  C   UNL     1       3.122   6.484  17.858  0.00  0.00    +0.000 A 
ATOM     10  N   UNL     1       2.933   7.868  18.104  0.00  0.00    +0.000 N 
ATOM     11  C   UNL     1       4.381   6.017  17.446  0.00  0.00    +0.000 A 
ATOM     12  C   UNL     1       5.538   6.819  17.295  0.00  0.00    +0.000 A 
ATOM     13  H   UNL     1       2.992   8.376  17.227  0.00  0.00    +0.000 HD
ENDROOT
BRANCH  10  14
ATOM     14  C   UNL     1       1.989   8.416  19.003  0.00  0.00    +0.000 A 
ATOM     15  C   UNL     1       1.846   7.885  20.292  0.00  0.00    +0.000 A 
ATOM     16  C   UNL     1       0.873   8.381  21.166  0.00  0.00    +0.000 A 
ATOM     17  C   UNL     1       0.012   9.397  20.753  0.00  0.00    +0.000 A 
ATOM     18  C   UNL     1       0.126   9.909  19.464  0.00  0.00    +0.000 A 
ATOM     19 BR   UNL     1      -1.056  11.263  18.879  0.00  0.00    +0.000 Br
ATOM     20  C   UNL     1       1.100   9.421  18.595  0.00  0.00    +0.000 A 
ENDBRANCH  10  14
TORSDOF 1
ENDMDL
MODEL 5
REMARK VINA RESULT:      -7.2      3.661      5.090
REMARK  Name = 
REMARK  1 active torsions:
REMARK  status: ('A' for Active; 'I' for Inactive)
REMARK    1  A    between atoms: N_10  and  C_11
REMARK                            x       y       z     vdW  Elec       q    Type
REMARK                         _______ _______ _______ _____ _____    ______ ____
ROOT
ATOM      1  F   UNL     1       7.915   7.261  16.948  0.00  0.00    +0.000 F 
ATOM      2  C   UNL     1       6.894   6.453  17.264  0.00  0.00    +0.000 A 
ATOM      3  C   UNL     1       7.122   5.099  17.444  0.00  0.00    +0.000 A 
ATOM      4  C   UNL     1       6.054   4.268  17.783  0.00  0.00    +0.000 A 
ATOM      5  C   UNL     1       4.764   4.762  17.946  0.00  0.00    +0.000 A 
ATOM      6  N   UNL     1       3.797   3.908  18.286  0.00  0.00    +0.000 NA
ATOM      7  C   UNL     1       2.577   4.423  18.464  0.00  0.00    +0.000 A 
ATOM      8  N   UNL     1       2.239   5.706  18.331  0.00  0.00    +0.000 NA
ATOM      9  C   UNL     1       3.218   6.561  17.979  0.00  0.00    +0.000 A 
ATOM     10  N   UNL     1       2.884   7.929  17.808  0.00  0.00    +0.000 N 
ATOM     11  C   UNL     1       4.538   6.135  17.758  0.00  0.00    +0.000 A 
ATOM     12  C   UNL     1       5.620   6.981  17.417  0.00  0.00    +0.000 A 
ATOM     13  H   UNL     1       2.948   8.170  16.824  0.00  0.00    +0.000 HD
ENDROOT
BRANCH  10  14
ATOM     14  C   UNL     1       1.840   8.605  18.482  0.00  0.00    +0.000 A 
ATOM     15  C   UNL     1       0.956   9.429  17.773  0.00  0.00    +0.000 A 
ATOM     16  C   UNL     1      -0.042  10.148  18.440  0.00  0.00    +0.000 A 
ATOM     17  C   UNL     1      -0.151  10.073  19.828  0.00  0.00    +0.000 A 
ATOM     18  C   UNL     1       0.742   9.280  20.542  0.00  0.00    +0.000 A 
ATOM     19 BR   UNL     1       0.626   9.194  22.428  0.00  0.00    +0.000 Br
ATOM     20  C   UNL     1       1.731   8.558  19.879  0.00  0.00    +0.000 A 
ENDBRANCH  10  14
TORSDOF 1
ENDMDL
MODEL 6
REMARK VINA RESULT:      -7.0      3.559      6.664
REMARK  Name = 
REMARK  1 active torsions:
REMARK  status: ('A' for Active; 'I' for Inactive)
REMARK    1  A    between atoms: N_10  and  C_11
REMARK                            x       y       z     vdW  Elec       q    Type
REMARK                         _______ _______ _______ _____ _____    ______ ____
ROOT
ATOM      1  F   UNL     1       1.559   1.654  20.523  0.00  0.00    +0.000 F 
ATOM      2  C   UNL     1       1.783   2.935  20.205  0.00  0.00    +0.000 A 
ATOM      3  C   UNL     1       1.304   3.940  21.029  0.00  0.00    +0.000 A 
ATOM      4  C   UNL     1       1.553   5.272  20.694  0.00  0.00    +0.000 A 
ATOM      5  C   UNL     1       2.269   5.619  19.554  0.00  0.00    +0.000 A 
ATOM      6  N   UNL     1       2.481   6.914  19.309  0.00  0.00    +0.000 NA
ATOM      7  C   UNL     1       3.199   7.209  18.221  0.00  0.00    +0.000 A 
ATOM      8  N   UNL     1       3.720   6.332  17.362  0.00  0.00    +0.000 NA
ATOM      9  C   UNL     1       3.496   5.027  17.611  0.00  0.00    +0.000 A 
ATOM     10  N   UNL     1       4.020   4.071  16.703  0.00  0.00    +0.000 N 
ATOM     11  C   UNL     1       2.750   4.596  18.720  0.00  0.00    +0.000 A 
ATOM     12  C   UNL     1       2.502   3.244  19.059  0.00  0.00    +0.000 A 
ATOM     13  H   UNL     1       3.256   3.635  16.198  0.00  0.00    +0.000 HD
ENDROOT
BRANCH  10  14
ATOM     14  C   UNL     1       5.182   4.244  15.916  0.00  0.00    +0.000 A 
ATOM     15  C   UNL     1       6.276   4.963  16.416  0.00  0.00    +0.000 A 
ATOM     16  C   UNL     1       7.406   5.190  15.622  0.00  0.00    +0.000 A 
ATOM     17  C   UNL     1       7.444   4.725  14.308  0.00  0.00    +0.000 A 
ATOM     18  C   UNL     1       6.349   4.037  13.794  0.00  0.00    +0.000 A 
ATOM     19 BR   UNL     1       6.373   3.429  12.004  0.00  0.00    +0.000 Br
ATOM     20  C   UNL     1       5.227   3.803  14.586  0.00  0.00    +0.000 A 
ENDBRANCH  10  14
TORSDOF 1
ENDMDL
MODEL 7
REMARK VINA RESULT:      -7.0      5.222      7.116
REMARK  Name = 
REMARK  1 active torsions:
REMARK  status: ('A' for Active; 'I' for Inactive)
REMARK    1  A    between atoms: N_10  and  C_11
REMARK                            x       y       z     vdW  Elec       q    Type
REMARK                         _______ _______ _______ _____ _____    ______ ____
ROOT
ATOM      1  F   UNL     1       1.548   2.330  21.847  0.00  0.00    +0.000 F 
ATOM      2  C   UNL     1       1.934   3.179  20.887  0.00  0.00    +0.000 A 
ATOM      3  C   UNL     1       2.464   2.684  19.707  0.00  0.00    +0.000 A 
ATOM      4  C   UNL     1       2.853   3.578  18.708  0.00  0.00    +0.000 A 
ATOM      5  C   UNL     1       2.723   4.954  18.864  0.00  0.00    +0.000 A 
ATOM      6  N   UNL     1       3.102   5.744  17.858  0.00  0.00    +0.000 NA
ATOM      7  C   UNL     1       2.934   7.059  18.031  0.00  0.00    +0.000 A 
ATOM      8  N   UNL     1       2.426   7.650  19.114  0.00  0.00    +0.000 NA
ATOM      9  C   UNL     1       2.053   6.847  20.129  0.00  0.00    +0.000 A 
ATOM     10  N   UNL     1       1.530   7.448  21.302  0.00  0.00    +0.000 N 
ATOM     11  C   UNL     1       2.188   5.450  20.064  0.00  0.00    +0.000 A 
ATOM     12  C   UNL     1       1.790   4.546  21.078  0.00  0.00    +0.000 A 
ATOM     13  H   UNL     1       2.193   7.335  22.062  0.00  0.00    +0.000 HD
ENDROOT
BRANCH  10  14
ATOM     14  C   UNL     1       0.833   8.678  21.348  0.00  0.00    +0.000 A 
ATOM     15  C   UNL     1       0.475   9.244  22.579  0.00  0.00    +0.000 A 
ATOM     16  C   UNL     1      -0.266  10.430  22.631  0.00  0.00    +0.000 A 
ATOM     17  C   UNL     1      -0.682  11.049  21.453  0.00  0.00    +0.000 A 
ATOM     18  C   UNL     1      -0.357  10.477  20.227  0.00  0.00    +0.000 A 
ATOM     19 BR   UNL     1      -0.941  11.289  18.623  0.00  0.00    +0.000 Br
ATOM     20  C   UNL     1       0.388   9.301  20.174  0.00  0.00    +0.000 A 
ENDBRANCH  10  14
TORSDOF 1
ENDMDL
MODEL 8
REMARK VINA RESULT:      -7.0      2.504      3.110
REMARK  Name = 
REMARK  1 active torsions:
REMARK  status: ('A' for Active; 'I' for Inactive)
REMARK    1  A    between atoms: N_10  and  C_11
REMARK                            x       y       z     vdW  Elec       q    Type
REMARK                         _______ _______ _______ _____ _____    ______ ____
ROOT
ATOM      1  F   UNL     1       4.744   4.010  13.177  0.00  0.00    +0.000 F 
ATOM      2  C   UNL     1       5.433   4.321  14.281  0.00  0.00    +0.000 A 
ATOM      3  C   UNL     1       6.817   4.277  14.261  0.00  0.00    +0.000 A 
ATOM      4  C   UNL     1       7.526   4.614  15.415  0.00  0.00    +0.000 A 
ATOM      5  C   UNL     1       6.881   4.993  16.587  0.00  0.00    +0.000 A 
ATOM      6  N   UNL     1       7.627   5.316  17.645  0.00  0.00    +0.000 NA
ATOM      7  C   UNL     1       6.974   5.704  18.744  0.00  0.00    +0.000 A 
ATOM      8  N   UNL     1       5.650   5.796  18.880  0.00  0.00    +0.000 NA
ATOM      9  C   UNL     1       4.903   5.461  17.811  0.00  0.00    +0.000 A 
ATOM     10  N   UNL     1       3.491   5.528  17.932  0.00  0.00    +0.000 N 
ATOM     11  C   UNL     1       5.477   5.031  16.603  0.00  0.00    +0.000 A 
ATOM     12  C   UNL     1       4.755   4.693  15.433  0.00  0.00    +0.000 A 
ATOM     13  H   UNL     1       3.108   4.588  17.920  0.00  0.00    +0.000 HD
ENDROOT
BRANCH  10  14
ATOM     14  C   UNL     1       2.786   6.406  18.788  0.00  0.00    +0.000 A 
ATOM     15  C   UNL     1       2.286   5.951  20.015  0.00  0.00    +0.000 A 
ATOM     16  C   UNL     1       1.536   6.797  20.839  0.00  0.00    +0.000 A 
ATOM     17  C   UNL     1       1.252   8.101  20.433  0.00  0.00    +0.000 A 
ATOM     18  C   UNL     1       1.718   8.551  19.202  0.00  0.00    +0.000 A 
ATOM     19 BR   UNL     1       1.314  10.305  18.624  0.00  0.00    +0.000 Br
ATOM     20  C   UNL     1       2.472   7.712  18.384  0.00  0.00    +0.000 A 
ENDBRANCH  10  14
TORSDOF 1
ENDMDL
MODEL 9
REMARK VINA RESULT:      -7.0      3.493      6.864
REMARK  Name = 
REMARK  1 active torsions:
REMARK  status: ('A' for Active; 'I' for Inactive)
REMARK    1  A    between atoms: N_10  and  C_11
REMARK                            x       y       z     vdW  Elec       q    Type
REMARK                         _______ _______ _______ _____ _____    ______ ____
ROOT
ATOM      1  F   UNL     1       1.652   6.905  20.815  0.00  0.00    +0.000 F 
ATOM      2  C   UNL     1       1.844   5.664  20.352  0.00  0.00    +0.000 A 
ATOM      3  C   UNL     1       0.973   4.653  20.720  0.00  0.00    +0.000 A 
ATOM      4  C   UNL     1       1.176   3.364  20.223  0.00  0.00    +0.000 A 
ATOM      5  C   UNL     1       2.231   3.067  19.367  0.00  0.00    +0.000 A 
ATOM      6  N   UNL     1       2.351   1.815  18.921  0.00  0.00    +0.000 NA
ATOM      7  C   UNL     1       3.358   1.573  18.076  0.00  0.00    +0.000 A 
ATOM      8  N   UNL     1       4.251   2.464  17.642  0.00  0.00    +0.000 NA
ATOM      9  C   UNL     1       4.129   3.724  18.103  0.00  0.00    +0.000 A 
ATOM     10  N   UNL     1       5.077   4.689  17.677  0.00  0.00    +0.000 N 
ATOM     11  C   UNL     1       3.114   4.096  19.000  0.00  0.00    +0.000 A 
ATOM     12  C   UNL     1       2.908   5.404  19.500  0.00  0.00    +0.000 A 
ATOM     13  H   UNL     1       5.668   4.948  18.460  0.00  0.00    +0.000 HD
ENDROOT
BRANCH  10  14
ATOM     14  C   UNL     1       5.765   4.667  16.441  0.00  0.00    +0.000 A 
ATOM     15  C   UNL     1       7.020   5.277  16.318  0.00  0.00    +0.000 A 
ATOM     16  C   UNL     1       7.680   5.311  15.084  0.00  0.00    +0.000 A 
ATOM     17  C   UNL     1       7.080   4.761  13.953  0.00  0.00    +0.000 A 
ATOM     18  C   UNL     1       5.820   4.180  14.060  0.00  0.00    +0.000 A 
ATOM     19 BR   UNL     1       4.981   3.459  12.527  0.00  0.00    +0.000 Br
ATOM     20  C   UNL     1       5.166   4.138  15.289  0.00  0.00    +0.000 A 
ENDBRANCH  10  14
TORSDOF 1
ENDMDL
