MODEL 1
REMARK VINA RESULT:      -7.3      0.000      0.000
REMARK  Name = 
REMARK  8 active torsions:
REMARK  status: ('A' for Active; 'I' for Inactive)
REMARK    1  A    between atoms: C_1  and  N_2
REMARK    2  A    between atoms: N_2  and  C_3
REMARK    3  A    between atoms: C_4  and  C_6
REMARK    4  A    between atoms: N_13  and  C_14
REMARK    5  A    between atoms: C_14  and  C_15
REMARK    6  A    between atoms: C_15  and  O_16
REMARK    7  A    between atoms: O_16  and  C_17
REMARK    8  A    between atoms: C_17  and  C_18
REMARK                            x       y       z     vdW  Elec       q    Type
REMARK                         _______ _______ _______ _____ _____    ______ ____
ROOT
ATOM      1  C   UNL     1       4.664   4.087  18.617  0.00  0.00    +0.000 C 
ATOM      2  C   UNL     1       4.489   2.662  19.140  0.00  0.00    +0.000 C 
ATOM      3  C   UNL     1       3.923   2.657  20.559  0.00  0.00    +0.000 C 
ATOM      4  O   UNL     1       2.733   3.440  20.673  0.00  0.00    +0.000 OA
ATOM      5  C   UNL     1       2.930   4.803  20.294  0.00  0.00    +0.000 C 
ATOM      6  C   UNL     1       1.625   5.586  20.451  0.00  0.00    +0.000 C 
ATOM      7  C   UNL     1       1.778   7.031  19.952  0.00  0.00    +0.000 C 
ATOM      8  N   UNL     1       2.291   7.091  18.576  0.00  0.00    +0.000 NA
ATOM      9  C   UNL     1       3.532   6.331  18.422  0.00  0.00    +0.000 C 
ATOM     10  C   UNL     1       3.362   4.872  18.834  0.00  0.00    +0.000 C 
ENDROOT
BRANCH   1  14
ATOM     11  C   UNL     1       6.586   4.564  15.334  0.00  0.00    +0.000 C 
ATOM     12  N   UNL     1       6.311   4.443  16.759  0.00  0.00    +0.000 N 
ATOM     13  C   UNL     1       7.443   4.603  17.655  0.00  0.00    +0.000 C 
ATOM     14  C   UNL     1       5.028   4.068  17.124  0.00  0.00    +0.000 C 
ATOM     15  O   UNL     1       4.205   3.744  16.269  0.00  0.00    +0.000 OA
ENDBRANCH   1  14
BRANCH   8  16
ATOM     16  C   UNL     1       2.466   8.485  18.113  0.00  0.00    +0.000 C 
BRANCH  16  17
ATOM     17  C   UNL     1       1.540   9.483  18.839  0.00  0.00    +0.000 C 
BRANCH  17  18
ATOM     18  O   UNL     1       0.430   9.846  18.024  0.00  0.00    +0.000 OA
BRANCH  18  19
ATOM     19  C   UNL     1      -0.689  10.184  18.847  0.00  0.00    +0.000 C 
BRANCH  19  20
ATOM     20  C   UNL     1      -1.872  10.450  17.962  0.00  0.00    +0.000 A 
ATOM     21  C   UNL     1      -2.870  11.362  18.342  0.00  0.00    +0.000 A 
ATOM     22  C   UNL     1      -3.969  11.583  17.516  0.00  0.00    +0.000 A 
ATOM     23  C   UNL     1      -4.077  10.904  16.301  0.00  0.00    +0.000 A 
ATOM     24  C   UNL     1      -3.085  10.009  15.908  0.00  0.00    +0.000 A 
ATOM     25  C   UNL     1      -1.985   9.789  16.733  0.00  0.00    +0.000 A 
ENDBRANCH  19  20
ENDBRANCH  18  19
ENDBRANCH  17  18
ENDBRANCH  16  17
ENDBRANCH   8  16
TORSDOF 6
ENDMDL
MODEL 2
REMARK VINA RESULT:      -7.2      1.787      2.814
REMARK  Name = 
REMARK  8 active torsions:
REMARK  status: ('A' for Active; 'I' for Inactive)
REMARK    1  A    between atoms: C_1  and  N_2
REMARK    2  A    between atoms: N_2  and  C_3
REMARK    3  A    between atoms: C_4  and  C_6
REMARK    4  A    between atoms: N_13  and  C_14
REMARK    5  A    between atoms: C_14  and  C_15
REMARK    6  A    between atoms: C_15  and  O_16
REMARK    7  A    between atoms: O_16  and  C_17
REMARK    8  A    between atoms: C_17  and  C_18
REMARK                            x       y       z     vdW  Elec       q    Type
REMARK                         _______ _______ _______ _____ _____    ______ ____
ROOT
ATOM      1  C   UNL     1       4.689   3.978  18.603  0.00  0.00    +0.000 C 
ATOM      2  C   UNL     1       4.444   2.560  19.116  0.00  0.00    +0.000 C 
ATOM      3  C   UNL     1       3.883   2.571  20.537  0.00  0.00    +0.000 C 
ATOM      4  O   UNL     1       2.734   3.413  20.661  0.00  0.00    +0.000 OA
ATOM      5  C   UNL     1       2.998   4.768  20.292  0.00  0.00    +0.000 C 
ATOM      6  C   UNL     1       1.736   5.614  20.460  0.00  0.00    +0.000 C 
ATOM      7  C   UNL     1       1.960   7.053  19.972  0.00  0.00    +0.000 C 
ATOM      8  N   UNL     1       2.471   7.099  18.594  0.00  0.00    +0.000 NA
ATOM      9  C   UNL     1       3.671   6.277  18.430  0.00  0.00    +0.000 C 
ATOM     10  C   UNL     1       3.429   4.826  18.831  0.00  0.00    +0.000 C 
ENDROOT
BRANCH   1  14
ATOM     11  C   UNL     1       6.575   4.485  15.304  0.00  0.00    +0.000 C 
ATOM     12  N   UNL     1       6.312   4.374  16.732  0.00  0.00    +0.000 N 
ATOM     13  C   UNL     1       7.440   4.593  17.620  0.00  0.00    +0.000 C 
ATOM     14  C   UNL     1       5.046   3.952  17.108  0.00  0.00    +0.000 C 
ATOM     15  O   UNL     1       4.233   3.583  16.262  0.00  0.00    +0.000 OA
ENDBRANCH   1  14
BRANCH   8  16
ATOM     16  C   UNL     1       2.714   8.486  18.141  0.00  0.00    +0.000 C 
BRANCH  16  17
ATOM     17  C   UNL     1       1.415   9.246  17.802  0.00  0.00    +0.000 C 
BRANCH  17  18
ATOM     18  O   UNL     1       1.184  10.309  18.720  0.00  0.00    +0.000 OA
BRANCH  18  19
ATOM     19  C   UNL     1      -0.221  10.483  18.920  0.00  0.00    +0.000 C 
BRANCH  19  20
ATOM     20  C   UNL     1      -0.491  10.544  20.396  0.00  0.00    +0.000 A 
ATOM     21  C   UNL     1      -0.076   9.510  21.250  0.00  0.00    +0.000 A 
ATOM     22  C   UNL     1      -0.351   9.576  22.614  0.00  0.00    +0.000 A 
ATOM     23  C   UNL     1      -1.033  10.676  23.137  0.00  0.00    +0.000 A 
ATOM     24  C   UNL     1      -1.436  11.713  22.299  0.00  0.00    +0.000 A 
ATOM     25  C   UNL     1      -1.161  11.648  20.936  0.00  0.00    +0.000 A 
ENDBRANCH  19  20
ENDBRANCH  18  19
ENDBRANCH  17  18
ENDBRANCH  16  17
ENDBRANCH   8  16
TORSDOF 6
ENDMDL
MODEL 3
REMARK VINA RESULT:      -7.1      4.883      8.564
REMARK  Name = 
REMARK  8 active torsions:
REMARK  status: ('A' for Active; 'I' for Inactive)
REMARK    1  A    between atoms: C_1  and  N_2
REMARK    2  A    between atoms: N_2  and  C_3
REMARK    3  A    between atoms: C_4  and  C_6
REMARK    4  A    between atoms: N_13  and  C_14
REMARK    5  A    between atoms: C_14  and  C_15
REMARK    6  A    between atoms: C_15  and  O_16
REMARK    7  A    between atoms: O_16  and  C_17
REMARK    8  A    between atoms: C_17  and  C_18
REMARK                            x       y       z     vdW  Elec       q    Type
REMARK                         _______ _______ _______ _____ _____    ______ ____
ROOT
ATOM      1  C   UNL     1       2.731   5.526  18.080  0.00  0.00    +0.000 C 
ATOM      2  C   UNL     1       2.134   4.132  18.266  0.00  0.00    +0.000 C 
ATOM      3  C   UNL     1       2.632   3.167  17.192  0.00  0.00    +0.000 C 
ATOM      4  O   UNL     1       4.058   3.152  17.093  0.00  0.00    +0.000 OA
ATOM      5  C   UNL     1       4.606   4.439  16.802  0.00  0.00    +0.000 C 
ATOM      6  C   UNL     1       6.129   4.351  16.697  0.00  0.00    +0.000 C 
ATOM      7  C   UNL     1       6.755   5.738  16.488  0.00  0.00    +0.000 C 
ATOM      8  N   UNL     1       6.332   6.698  17.516  0.00  0.00    +0.000 NA
ATOM      9  C   UNL     1       4.875   6.773  17.627  0.00  0.00    +0.000 C 
ATOM     10  C   UNL     1       4.254   5.411  17.922  0.00  0.00    +0.000 C 
ENDROOT
BRANCH   1  14
ATOM     11  C   UNL     1       1.894   8.606  20.206  0.00  0.00    +0.000 C 
ATOM     12  N   UNL     1       2.063   7.744  19.043  0.00  0.00    +0.000 N 
ATOM     13  C   UNL     1       1.746   8.325  17.751  0.00  0.00    +0.000 C 
ATOM     14  C   UNL     1       2.391   6.419  19.285  0.00  0.00    +0.000 C 
ATOM     15  O   UNL     1       2.420   5.982  20.434  0.00  0.00    +0.000 OA
ENDBRANCH   1  14
BRANCH   8  16
ATOM     16  C   UNL     1       6.914   8.040  17.292  0.00  0.00    +0.000 C 
BRANCH  16  17
ATOM     17  C   UNL     1       8.202   8.283  18.106  0.00  0.00    +0.000 C 
BRANCH  17  18
ATOM     18  O   UNL     1       8.579   9.656  18.078  0.00  0.00    +0.000 OA
BRANCH  18  19
ATOM     19  C   UNL     1       9.189  10.018  19.320  0.00  0.00    +0.000 C 
BRANCH  19  20
ATOM     20  C   UNL     1      10.202  11.094  19.059  0.00  0.00    +0.000 A 
ATOM     21  C   UNL     1      10.470  11.536  17.754  0.00  0.00    +0.000 A 
ATOM     22  C   UNL     1      11.426  12.523  17.530  0.00  0.00    +0.000 A 
ATOM     23  C   UNL     1      12.116  13.085  18.606  0.00  0.00    +0.000 A 
ATOM     24  C   UNL     1      11.847  12.664  19.906  0.00  0.00    +0.000 A 
ATOM     25  C   UNL     1      10.890  11.678  20.131  0.00  0.00    +0.000 A 
ENDBRANCH  19  20
ENDBRANCH  18  19
ENDBRANCH  17  18
ENDBRANCH  16  17
ENDBRANCH   8  16
TORSDOF 6
ENDMDL
MODEL 4
REMARK VINA RESULT:      -6.8      4.897      8.581
REMARK  Name = 
REMARK  8 active torsions:
REMARK  status: ('A' for Active; 'I' for Inactive)
REMARK    1  A    between atoms: C_1  and  N_2
REMARK    2  A    between atoms: N_2  and  C_3
REMARK    3  A    between atoms: C_4  and  C_6
REMARK    4  A    between atoms: N_13  and  C_14
REMARK    5  A    between atoms: C_14  and  C_15
REMARK    6  A    between atoms: C_15  and  O_16
REMARK    7  A    between atoms: O_16  and  C_17
REMARK    8  A    between atoms: C_17  and  C_18
REMARK                            x       y       z     vdW  Elec       q    Type
REMARK                         _______ _______ _______ _____ _____    ______ ____
ROOT
ATOM      1  C   UNL     1       2.752   5.764  17.794  0.00  0.00    +0.000 C 
ATOM      2  C   UNL     1       2.040   4.451  18.111  0.00  0.00    +0.000 C 
ATOM      3  C   UNL     1       2.609   3.297  17.288  0.00  0.00    +0.000 C 
ATOM      4  O   UNL     1       4.030   3.198  17.400  0.00  0.00    +0.000 OA
ATOM      5  C   UNL     1       4.702   4.391  16.990  0.00  0.00    +0.000 C 
ATOM      6  C   UNL     1       6.215   4.214  17.122  0.00  0.00    +0.000 C 
ATOM      7  C   UNL     1       6.959   5.515  16.787  0.00  0.00    +0.000 C 
ATOM      8  N   UNL     1       6.470   6.653  17.577  0.00  0.00    +0.000 NA
ATOM      9  C   UNL     1       5.020   6.814  17.462  0.00  0.00    +0.000 C 
ATOM     10  C   UNL     1       4.271   5.552  17.878  0.00  0.00    +0.000 C 
ENDROOT
BRANCH   1  14
ATOM     11  C   UNL     1       1.527   7.523  20.972  0.00  0.00    +0.000 C 
ATOM     12  N   UNL     1       2.083   6.501  20.096  0.00  0.00    +0.000 N 
ATOM     13  C   UNL     1       2.457   5.244  20.718  0.00  0.00    +0.000 C 
ATOM     14  C   UNL     1       2.317   6.862  18.778  0.00  0.00    +0.000 C 
ATOM     15  O   UNL     1       2.165   8.026  18.413  0.00  0.00    +0.000 OA
ENDBRANCH   1  14
BRANCH   8  16
ATOM     16  C   UNL     1       7.170   7.909  17.228  0.00  0.00    +0.000 C 
BRANCH  16  17
ATOM     17  C   UNL     1       8.256   8.299  18.252  0.00  0.00    +0.000 C 
BRANCH  17  18
ATOM     18  O   UNL     1       8.696   9.639  18.053  0.00  0.00    +0.000 OA
BRANCH  18  19
ATOM     19  C   UNL     1       9.135  10.196  19.294  0.00  0.00    +0.000 C 
BRANCH  19  20
ATOM     20  C   UNL     1      10.261  11.151  19.019  0.00  0.00    +0.000 A 
ATOM     21  C   UNL     1      11.139  11.548  20.040  0.00  0.00    +0.000 A 
ATOM     22  C   UNL     1      12.166  12.448  19.770  0.00  0.00    +0.000 A 
ATOM     23  C   UNL     1      12.332  12.953  18.479  0.00  0.00    +0.000 A 
ATOM     24  C   UNL     1      11.475  12.554  17.456  0.00  0.00    +0.000 A 
ATOM     25  C   UNL     1      10.448  11.653  17.725  0.00  0.00    +0.000 A 
ENDBRANCH  19  20
ENDBRANCH  18  19
ENDBRANCH  17  18
ENDBRANCH  16  17
ENDBRANCH   8  16
TORSDOF 6
ENDMDL
MODEL 5
REMARK VINA RESULT:      -6.8      4.561      8.302
REMARK  Name = 
REMARK  8 active torsions:
REMARK  status: ('A' for Active; 'I' for Inactive)
REMARK    1  A    between atoms: C_1  and  N_2
REMARK    2  A    between atoms: N_2  and  C_3
REMARK    3  A    between atoms: C_4  and  C_6
REMARK    4  A    between atoms: N_13  and  C_14
REMARK    5  A    between atoms: C_14  and  C_15
REMARK    6  A    between atoms: C_15  and  O_16
REMARK    7  A    between atoms: O_16  and  C_17
REMARK    8  A    between atoms: C_17  and  C_18
REMARK                            x       y       z     vdW  Elec       q    Type
REMARK                         _______ _______ _______ _____ _____    ______ ____
ROOT
ATOM      1  C   UNL     1       2.458   5.317  18.245  0.00  0.00    +0.000 C 
ATOM      2  C   UNL     1       1.864   3.920  18.412  0.00  0.00    +0.000 C 
ATOM      3  C   UNL     1       2.343   2.977  17.310  0.00  0.00    +0.000 C 
ATOM      4  O   UNL     1       3.767   2.963  17.186  0.00  0.00    +0.000 OA
ATOM      5  C   UNL     1       4.311   4.255  16.913  0.00  0.00    +0.000 C 
ATOM      6  C   UNL     1       5.832   4.168  16.780  0.00  0.00    +0.000 C 
ATOM      7  C   UNL     1       6.456   5.559  16.589  0.00  0.00    +0.000 C 
ATOM      8  N   UNL     1       6.051   6.498  17.644  0.00  0.00    +0.000 NA
ATOM      9  C   UNL     1       4.595   6.571  17.781  0.00  0.00    +0.000 C 
ATOM     10  C   UNL     1       3.979   5.204  18.058  0.00  0.00    +0.000 C 
ENDROOT
BRANCH   1  14
ATOM     11  C   UNL     1       1.760   8.365  20.464  0.00  0.00    +0.000 C 
ATOM     12  N   UNL     1       1.909   7.537  19.274  0.00  0.00    +0.000 N 
ATOM     13  C   UNL     1       1.674   8.186  17.996  0.00  0.00    +0.000 C 
ATOM     14  C   UNL     1       2.140   6.185  19.473  0.00  0.00    +0.000 C 
ATOM     15  O   UNL     1       2.102   5.704  20.604  0.00  0.00    +0.000 OA
ENDBRANCH   1  14
BRANCH   8  16
ATOM     16  C   UNL     1       6.630   7.844  17.438  0.00  0.00    +0.000 C 
BRANCH  16  17
ATOM     17  C   UNL     1       8.172   7.849  17.476  0.00  0.00    +0.000 C 
BRANCH  17  18
ATOM     18  O   UNL     1       8.659   8.650  18.549  0.00  0.00    +0.000 OA
BRANCH  18  19
ATOM     19  C   UNL     1       8.454  10.034  18.255  0.00  0.00    +0.000 C 
BRANCH  19  20
ATOM     20  C   UNL     1       9.575  10.824  18.866  0.00  0.00    +0.000 A 
ATOM     21  C   UNL     1       9.557  11.173  20.226  0.00  0.00    +0.000 A 
ATOM     22  C   UNL     1      10.598  11.922  20.771  0.00  0.00    +0.000 A 
ATOM     23  C   UNL     1      11.667  12.320  19.967  0.00  0.00    +0.000 A 
ATOM     24  C   UNL     1      11.701  11.966  18.620  0.00  0.00    +0.000 A 
ATOM     25  C   UNL     1      10.662  11.217  18.075  0.00  0.00    +0.000 A 
ENDBRANCH  19  20
ENDBRANCH  18  19
ENDBRANCH  17  18
ENDBRANCH  16  17
ENDBRANCH   8  16
TORSDOF 6
ENDMDL
MODEL 6
REMARK VINA RESULT:      -6.7      0.716      1.212
REMARK  Name = 
REMARK  8 active torsions:
REMARK  status: ('A' for Active; 'I' for Inactive)
REMARK    1  A    between atoms: C_1  and  N_2
REMARK    2  A    between atoms: N_2  and  C_3
REMARK    3  A    between atoms: C_4  and  C_6
REMARK    4  A    between atoms: N_13  and  C_14
REMARK    5  A    between atoms: C_14  and  C_15
REMARK    6  A    between atoms: C_15  and  O_16
REMARK    7  A    between atoms: O_16  and  C_17
REMARK    8  A    between atoms: C_17  and  C_18
REMARK                            x       y       z     vdW  Elec       q    Type
REMARK                         _______ _______ _______ _____ _____    ______ ____
ROOT
ATOM      1  C   UNL     1       4.649   4.037  18.770  0.00  0.00    +0.000 C 
ATOM      2  C   UNL     1       4.604   2.546  19.098  0.00  0.00    +0.000 C 
ATOM      3  C   UNL     1       4.055   2.301  20.502  0.00  0.00    +0.000 C 
ATOM      4  O   UNL     1       2.802   2.954  20.718  0.00  0.00    +0.000 OA
ATOM      5  C   UNL     1       2.875   4.368  20.525  0.00  0.00    +0.000 C 
ATOM      6  C   UNL     1       1.509   5.006  20.783  0.00  0.00    +0.000 C 
ATOM      7  C   UNL     1       1.530   6.511  20.483  0.00  0.00    +0.000 C 
ATOM      8  N   UNL     1       2.022   6.800  19.128  0.00  0.00    +0.000 NA
ATOM      9  C   UNL     1       3.323   6.179  18.876  0.00  0.00    +0.000 C 
ATOM     10  C   UNL     1       3.285   4.669  19.088  0.00  0.00    +0.000 C 
ENDROOT
BRANCH   1  14
ATOM     11  C   UNL     1       6.474   5.139  15.584  0.00  0.00    +0.000 C 
ATOM     12  N   UNL     1       6.228   4.807  16.981  0.00  0.00    +0.000 N 
ATOM     13  C   UNL     1       7.344   4.974  17.895  0.00  0.00    +0.000 C 
ATOM     14  C   UNL     1       4.997   4.250  17.288  0.00  0.00    +0.000 C 
ATOM     15  O   UNL     1       4.206   3.950  16.395  0.00  0.00    +0.000 OA
ENDBRANCH   1  14
BRANCH   8  16
ATOM     16  C   UNL     1       2.069   8.253  18.856  0.00  0.00    +0.000 C 
BRANCH  16  17
ATOM     17  C   UNL     1       1.519   9.104  20.020  0.00  0.00    +0.000 C 
BRANCH  17  18
ATOM     18  O   UNL     1       0.210   9.586  19.733  0.00  0.00    +0.000 OA
BRANCH  18  19
ATOM     19  C   UNL     1       0.178  10.156  18.422  0.00  0.00    +0.000 C 
BRANCH  19  20
ATOM     20  C   UNL     1      -1.248  10.467  18.070  0.00  0.00    +0.000 A 
ATOM     21  C   UNL     1      -1.893   9.806  17.013  0.00  0.00    +0.000 A 
ATOM     22  C   UNL     1      -3.211  10.120  16.689  0.00  0.00    +0.000 A 
ATOM     23  C   UNL     1      -3.898  11.089  17.423  0.00  0.00    +0.000 A 
ATOM     24  C   UNL     1      -3.272  11.740  18.483  0.00  0.00    +0.000 A 
ATOM     25  C   UNL     1      -1.955  11.425  18.808  0.00  0.00    +0.000 A 
ENDBRANCH  19  20
ENDBRANCH  18  19
ENDBRANCH  17  18
ENDBRANCH  16  17
ENDBRANCH   8  16
TORSDOF 6
ENDMDL
MODEL 7
REMARK VINA RESULT:      -6.7      3.892      8.762
REMARK  Name = 
REMARK  8 active torsions:
REMARK  status: ('A' for Active; 'I' for Inactive)
REMARK    1  A    between atoms: C_1  and  N_2
REMARK    2  A    between atoms: N_2  and  C_3
REMARK    3  A    between atoms: C_4  and  C_6
REMARK    4  A    between atoms: N_13  and  C_14
REMARK    5  A    between atoms: C_14  and  C_15
REMARK    6  A    between atoms: C_15  and  O_16
REMARK    7  A    between atoms: O_16  and  C_17
REMARK    8  A    between atoms: C_17  and  C_18
REMARK                            x       y       z     vdW  Elec       q    Type
REMARK                         _______ _______ _______ _____ _____    ______ ____
ROOT
ATOM      1  C   UNL     1       0.430  13.709  20.696  0.00  0.00    +0.000 C 
ATOM      2  C   UNL     1       0.181  14.228  22.111  0.00  0.00    +0.000 C 
ATOM      3  C   UNL     1      -0.847  13.369  22.845  0.00  0.00    +0.000 C 
ATOM      4  O   UNL     1      -0.517  11.979  22.814  0.00  0.00    +0.000 OA
ATOM      5  C   UNL     1      -0.399  11.467  21.485  0.00  0.00    +0.000 C 
ATOM      6  C   UNL     1      -0.058   9.977  21.523  0.00  0.00    +0.000 C 
ATOM      7  C   UNL     1       0.177   9.423  20.111  0.00  0.00    +0.000 C 
ATOM      8  N   UNL     1       1.183  10.196  19.371  0.00  0.00    +0.000 NA
ATOM      9  C   UNL     1       0.864  11.625  19.346  0.00  0.00    +0.000 C 
ATOM     10  C   UNL     1       0.716  12.201  20.751  0.00  0.00    +0.000 C 
ENDROOT
BRANCH   1  14
ATOM     11  C   UNL     1       2.484  15.966  18.376  0.00  0.00    +0.000 C 
ATOM     12  N   UNL     1       1.343  15.390  19.074  0.00  0.00    +0.000 N 
ATOM     13  C   UNL     1       0.040  15.950  18.763  0.00  0.00    +0.000 C 
ATOM     14  C   UNL     1       1.615  14.449  20.055  0.00  0.00    +0.000 C 
ATOM     15  O   UNL     1       2.774  14.210  20.387  0.00  0.00    +0.000 OA
ENDBRANCH   1  14
BRANCH   8  16
ATOM     16  C   UNL     1       1.383   9.676  18.000  0.00  0.00    +0.000 C 
BRANCH  16  17
ATOM     17  C   UNL     1       2.562   8.687  17.896  0.00  0.00    +0.000 C 
BRANCH  17  18
ATOM     18  O   UNL     1       2.111   7.337  17.964  0.00  0.00    +0.000 OA
BRANCH  18  19
ATOM     19  C   UNL     1       2.737   6.669  19.062  0.00  0.00    +0.000 C 
BRANCH  19  20
ATOM     20  C   UNL     1       2.091   5.326  19.237  0.00  0.00    +0.000 A 
ATOM     21  C   UNL     1       1.683   4.878  20.503  0.00  0.00    +0.000 A 
ATOM     22  C   UNL     1       1.101   3.621  20.649  0.00  0.00    +0.000 A 
ATOM     23  C   UNL     1       0.915   2.804  19.532  0.00  0.00    +0.000 A 
ATOM     24  C   UNL     1       1.303   3.246  18.269  0.00  0.00    +0.000 A 
ATOM     25  C   UNL     1       1.883   4.503  18.123  0.00  0.00    +0.000 A 
ENDBRANCH  19  20
ENDBRANCH  18  19
ENDBRANCH  17  18
ENDBRANCH  16  17
ENDBRANCH   8  16
TORSDOF 6
ENDMDL
MODEL 8
REMARK VINA RESULT:      -6.6      0.957      1.096
REMARK  Name = 
REMARK  8 active torsions:
REMARK  status: ('A' for Active; 'I' for Inactive)
REMARK    1  A    between atoms: C_1  and  N_2
REMARK    2  A    between atoms: N_2  and  C_3
REMARK    3  A    between atoms: C_4  and  C_6
REMARK    4  A    between atoms: N_13  and  C_14
REMARK    5  A    between atoms: C_14  and  C_15
REMARK    6  A    between atoms: C_15  and  O_16
REMARK    7  A    between atoms: O_16  and  C_17
REMARK    8  A    between atoms: C_17  and  C_18
REMARK                            x       y       z     vdW  Elec       q    Type
REMARK                         _______ _______ _______ _____ _____    ______ ____
ROOT
ATOM      1  C   UNL     1       4.717   4.047  18.885  0.00  0.00    +0.000 C 
ATOM      2  C   UNL     1       4.669   2.537  19.110  0.00  0.00    +0.000 C 
ATOM      3  C   UNL     1       4.044   2.196  20.461  0.00  0.00    +0.000 C 
ATOM      4  O   UNL     1       2.774   2.825  20.647  0.00  0.00    +0.000 OA
ATOM      5  C   UNL     1       2.843   4.249  20.553  0.00  0.00    +0.000 C 
ATOM      6  C   UNL     1       1.457   4.858  20.773  0.00  0.00    +0.000 C 
ATOM      7  C   UNL     1       1.480   6.381  20.575  0.00  0.00    +0.000 C 
ATOM      8  N   UNL     1       2.045   6.762  19.273  0.00  0.00    +0.000 NA
ATOM      9  C   UNL     1       3.365   6.168  19.055  0.00  0.00    +0.000 C 
ATOM     10  C   UNL     1       3.331   4.647  19.165  0.00  0.00    +0.000 C 
ENDROOT
BRANCH   1  14
ATOM     11  C   UNL     1       6.679   5.419  15.890  0.00  0.00    +0.000 C 
ATOM     12  N   UNL     1       6.363   4.997  17.249  0.00  0.00    +0.000 N 
ATOM     13  C   UNL     1       7.408   5.169  18.243  0.00  0.00    +0.000 C 
ATOM     14  C   UNL     1       5.147   4.361  17.443  0.00  0.00    +0.000 C 
ATOM     15  O   UNL     1       4.433   4.071  16.485  0.00  0.00    +0.000 OA
ENDBRANCH   1  14
BRANCH   8  16
ATOM     16  C   UNL     1       2.093   8.231  19.100  0.00  0.00    +0.000 C 
BRANCH  16  17
ATOM     17  C   UNL     1       1.140   8.981  20.054  0.00  0.00    +0.000 C 
BRANCH  17  18
ATOM     18  O   UNL     1       1.134  10.380  19.783  0.00  0.00    +0.000 OA
BRANCH  18  19
ATOM     19  C   UNL     1       0.811  10.607  18.409  0.00  0.00    +0.000 C 
BRANCH  19  20
ATOM     20  C   UNL     1      -0.681  10.710  18.278  0.00  0.00    +0.000 A 
ATOM     21  C   UNL     1      -1.404  11.680  18.989  0.00  0.00    +0.000 A 
ATOM     22  C   UNL     1      -2.790  11.749  18.868  0.00  0.00    +0.000 A 
ATOM     23  C   UNL     1      -3.464  10.857  18.032  0.00  0.00    +0.000 A 
ATOM     24  C   UNL     1      -2.753   9.901  17.310  0.00  0.00    +0.000 A 
ATOM     25  C   UNL     1      -1.368   9.832  17.430  0.00  0.00    +0.000 A 
ENDBRANCH  19  20
ENDBRANCH  18  19
ENDBRANCH  17  18
ENDBRANCH  16  17
ENDBRANCH   8  16
TORSDOF 6
ENDMDL
MODEL 9
REMARK VINA RESULT:      -6.6      1.749      3.384
REMARK  Name = 
REMARK  8 active torsions:
REMARK  status: ('A' for Active; 'I' for Inactive)
REMARK    1  A    between atoms: C_1  and  N_2
REMARK    2  A    between atoms: N_2  and  C_3
REMARK    3  A    between atoms: C_4  and  C_6
REMARK    4  A    between atoms: N_13  and  C_14
REMARK    5  A    between atoms: C_14  and  C_15
REMARK    6  A    between atoms: C_15  and  O_16
REMARK    7  A    between atoms: O_16  and  C_17
REMARK    8  A    between atoms: C_17  and  C_18
REMARK                            x       y       z     vdW  Elec       q    Type
REMARK                         _______ _______ _______ _____ _____    ______ ____
ROOT
ATOM      1  C   UNL     1       3.194   3.887  18.459  0.00  0.00    +0.000 C 
ATOM      2  C   UNL     1       4.322   3.325  17.597  0.00  0.00    +0.000 C 
ATOM      3  C   UNL     1       4.517   4.152  16.328  0.00  0.00    +0.000 C 
ATOM      4  O   UNL     1       4.673   5.545  16.605  0.00  0.00    +0.000 OA
ATOM      5  C   UNL     1       3.560   6.097  17.311  0.00  0.00    +0.000 C 
ATOM      6  C   UNL     1       3.783   7.588  17.564  0.00  0.00    +0.000 C 
ATOM      7  C   UNL     1       2.651   8.186  18.412  0.00  0.00    +0.000 C 
ATOM      8  N   UNL     1       2.443   7.444  19.663  0.00  0.00    +0.000 NA
ATOM      9  C   UNL     1       2.243   6.014  19.422  0.00  0.00    +0.000 C 
ATOM     10  C   UNL     1       3.407   5.396  18.655  0.00  0.00    +0.000 C 
ENDROOT
BRANCH   1  14
ATOM     11  C   UNL     1       1.897   2.272  21.685  0.00  0.00    +0.000 C 
ATOM     12  N   UNL     1       1.921   2.804  20.329  0.00  0.00    +0.000 N 
ATOM     13  C   UNL     1       0.668   2.773  19.596  0.00  0.00    +0.000 C 
ATOM     14  C   UNL     1       3.156   3.177  19.822  0.00  0.00    +0.000 C 
ATOM     15  O   UNL     1       4.185   2.954  20.456  0.00  0.00    +0.000 OA
ENDBRANCH   1  14
BRANCH   8  16
ATOM     16  C   UNL     1       1.331   8.006  20.460  0.00  0.00    +0.000 C 
BRANCH  16  17
ATOM     17  C   UNL     1       1.076   9.500  20.172  0.00  0.00    +0.000 C 
BRANCH  17  18
ATOM     18  O   UNL     1      -0.255   9.718  19.714  0.00  0.00    +0.000 OA
BRANCH  18  19
ATOM     19  C   UNL     1      -0.264  10.742  18.717  0.00  0.00    +0.000 C 
BRANCH  19  20
ATOM     20  C   UNL     1      -1.620  10.770  18.072  0.00  0.00    +0.000 A 
ATOM     21  C   UNL     1      -2.619  11.645  18.527  0.00  0.00    +0.000 A 
ATOM     22  C   UNL     1      -3.877  11.645  17.928  0.00  0.00    +0.000 A 
ATOM     23  C   UNL     1      -4.144  10.779  16.865  0.00  0.00    +0.000 A 
ATOM     24  C   UNL     1      -3.154   9.918  16.397  0.00  0.00    +0.000 A 
ATOM     25  C   UNL     1      -1.897   9.919  16.995  0.00  0.00    +0.000 A 
ENDBRANCH  19  20
ENDBRANCH  18  19
ENDBRANCH  17  18
ENDBRANCH  16  17
ENDBRANCH   8  16
TORSDOF 6
ENDMDL
