MODEL 1
REMARK VINA RESULT:      -8.2      0.000      0.000
REMARK  Name = 
REMARK  8 active torsions:
REMARK  status: ('A' for Active; 'I' for Inactive)
REMARK    1  A    between atoms: C_1  and  C_2
REMARK    2  A    between atoms: C_2  and  C_3
REMARK    3  A    between atoms: C_5  and  N_6
REMARK    4  A    between atoms: C_11  and  N_12
REMARK    5  A    between atoms: N_12  and  C_13
REMARK    6  A    between atoms: C_13  and  C_14
REMARK    7  A    between atoms: C_23  and  C_24
REMARK    8  A    between atoms: C_23  and  C_25
REMARK                            x       y       z     vdW  Elec       q    Type
REMARK                         _______ _______ _______ _____ _____    ______ ____
ROOT
ATOM      1  N   UNL     1       4.376   2.882  17.692  0.00  0.00    +0.000 N 
ATOM      2  C   UNL     1       3.202   2.945  18.432  0.00  0.00    +0.000 A 
ATOM      3  N   UNL     1       2.479   1.822  18.468  0.00  0.00    +0.000 NA
ATOM      4  C   UNL     1       1.319   1.870  19.138  0.00  0.00    +0.000 A 
ATOM      5  C   UNL     1       0.900   2.977  19.829  0.00  0.00    +0.000 A 
ATOM      6  C   UNL     1       1.708   4.090  19.751  0.00  0.00    +0.000 A 
ATOM      7  N   UNL     1       2.855   4.082  19.057  0.00  0.00    +0.000 NA
ATOM      8  H   UNL     1       5.037   2.393  18.288  0.00  0.00    +0.000 HD
ENDROOT
BRANCH   1  13
ATOM      9  C   UNL     1       7.217   4.692  14.114  0.00  0.00    +0.000 C 
ATOM     10  C   UNL     1       6.324   5.148  15.292  0.00  0.00    +0.000 C 
ATOM     11  C   UNL     1       5.331   6.172  14.716  0.00  0.00    +0.000 C 
ATOM     12  C   UNL     1       5.605   3.906  15.829  0.00  0.00    +0.000 C 
ATOM     13  C   UNL     1       4.897   4.147  17.168  0.00  0.00    +0.000 C 
ATOM     14  C   UNL     1       5.932   4.677  18.172  0.00  0.00    +0.000 C 
ATOM     15  C   UNL     1       6.690   5.921  17.669  0.00  0.00    +0.000 C 
ATOM     16  C   UNL     1       7.923   6.138  18.579  0.00  0.00    +0.000 C 
ATOM     17  C   UNL     1       5.830   7.190  17.797  0.00  0.00    +0.000 C 
ATOM     18  N   UNL     1       7.216   5.745  16.302  0.00  0.00    +0.000 NA
ATOM     19  H   UNL     1       8.052   5.159  16.360  0.00  0.00    +0.000 HD
ENDBRANCH   1  13
BRANCH   6  20
ATOM     20  N   UNL     1       1.277   5.248  20.410  0.00  0.00    +0.000 N 
ATOM     21  H   UNL     1       0.694   4.995  21.203  0.00  0.00    +0.000 HD
BRANCH  20  22
ATOM     22  C   UNL     1       2.298   6.222  20.752  0.00  0.00    +0.000 C 
BRANCH  22  23
ATOM     23  C   UNL     1       1.908   7.539  20.110  0.00  0.00    +0.000 A 
ATOM     24  C   UNL     1       1.180   8.505  20.812  0.00  0.00    +0.000 A 
ATOM     25  C   UNL     1       0.788   9.697  20.183  0.00  0.00    +0.000 A 
ATOM     26  C   UNL     1       1.129   9.910  18.854  0.00  0.00    +0.000 A 
ATOM     27  F   UNL     1       0.752  11.047  18.248  0.00  0.00    +0.000 F 
ATOM     28  C   UNL     1       1.845   8.961  18.137  0.00  0.00    +0.000 A 
ATOM     29  C   UNL     1       2.228   7.775  18.762  0.00  0.00    +0.000 A 
ENDBRANCH  22  23
ENDBRANCH  20  22
ENDBRANCH   6  20
TORSDOF 4
ENDMDL
MODEL 2
REMARK VINA RESULT:      -8.1      1.367      1.690
REMARK  Name = 
REMARK  8 active torsions:
REMARK  status: ('A' for Active; 'I' for Inactive)
REMARK    1  A    between atoms: C_1  and  C_2
REMARK    2  A    between atoms: C_2  and  C_3
REMARK    3  A    between atoms: C_5  and  N_6
REMARK    4  A    between atoms: C_11  and  N_12
REMARK    5  A    between atoms: N_12  and  C_13
REMARK    6  A    between atoms: C_13  and  C_14
REMARK    7  A    between atoms: C_23  and  C_24
REMARK    8  A    between atoms: C_23  and  C_25
REMARK                            x       y       z     vdW  Elec       q    Type
REMARK                         _______ _______ _______ _____ _____    ______ ____
ROOT
ATOM      1  N   UNL     1       4.913   3.490  18.718  0.00  0.00    +0.000 N 
ATOM      2  C   UNL     1       3.785   3.640  19.515  0.00  0.00    +0.000 A 
ATOM      3  N   UNL     1       3.204   2.505  19.916  0.00  0.00    +0.000 NA
ATOM      4  C   UNL     1       2.088   2.623  20.649  0.00  0.00    +0.000 A 
ATOM      5  C   UNL     1       1.582   3.831  21.053  0.00  0.00    +0.000 A 
ATOM      6  C   UNL     1       2.248   4.953  20.608  0.00  0.00    +0.000 A 
ATOM      7  N   UNL     1       3.344   4.866  19.842  0.00  0.00    +0.000 NA
ATOM      8  H   UNL     1       5.661   3.252  19.362  0.00  0.00    +0.000 HD
ENDROOT
BRANCH   1  13
ATOM      9  C   UNL     1       7.222   4.497  14.499  0.00  0.00    +0.000 C 
ATOM     10  C   UNL     1       6.392   5.179  15.611  0.00  0.00    +0.000 C 
ATOM     11  C   UNL     1       5.248   5.929  14.906  0.00  0.00    +0.000 C 
ATOM     12  C   UNL     1       5.858   4.072  16.528  0.00  0.00    +0.000 C 
ATOM     13  C   UNL     1       5.248   4.607  17.830  0.00  0.00    +0.000 C 
ATOM     14  C   UNL     1       6.305   5.466  18.540  0.00  0.00    +0.000 C 
ATOM     15  C   UNL     1       6.879   6.586  17.652  0.00  0.00    +0.000 C 
ATOM     16  C   UNL     1       8.157   7.137  18.330  0.00  0.00    +0.000 C 
ATOM     17  C   UNL     1       5.904   7.771  17.544  0.00  0.00    +0.000 C 
ATOM     18  N   UNL     1       7.300   6.093  16.326  0.00  0.00    +0.000 NA
ATOM     19  H   UNL     1       8.195   5.613  16.440  0.00  0.00    +0.000 HD
ENDBRANCH   1  13
BRANCH   6  20
ATOM     20  N   UNL     1       1.722   6.200  20.969  0.00  0.00    +0.000 N 
ATOM     21  H   UNL     1       1.943   6.398  21.940  0.00  0.00    +0.000 HD
BRANCH  20  22
ATOM     22  C   UNL     1       2.021   7.313  20.086  0.00  0.00    +0.000 C 
BRANCH  22  23
ATOM     23  C   UNL     1       1.274   8.525  20.607  0.00  0.00    +0.000 A 
ATOM     24  C   UNL     1       0.907   8.630  21.953  0.00  0.00    +0.000 A 
ATOM     25  C   UNL     1       0.173   9.739  22.406  0.00  0.00    +0.000 A 
ATOM     26  C   UNL     1      -0.187  10.731  21.503  0.00  0.00    +0.000 A 
ATOM     27  F   UNL     1      -0.892  11.791  21.932  0.00  0.00    +0.000 F 
ATOM     28  C   UNL     1       0.162  10.642  20.163  0.00  0.00    +0.000 A 
ATOM     29  C   UNL     1       0.886   9.538  19.715  0.00  0.00    +0.000 A 
ENDBRANCH  22  23
ENDBRANCH  20  22
ENDBRANCH   6  20
TORSDOF 4
ENDMDL
MODEL 3
REMARK VINA RESULT:      -8.1      2.646      5.092
REMARK  Name = 
REMARK  8 active torsions:
REMARK  status: ('A' for Active; 'I' for Inactive)
REMARK    1  A    between atoms: C_1  and  C_2
REMARK    2  A    between atoms: C_2  and  C_3
REMARK    3  A    between atoms: C_5  and  N_6
REMARK    4  A    between atoms: C_11  and  N_12
REMARK    5  A    between atoms: N_12  and  C_13
REMARK    6  A    between atoms: C_13  and  C_14
REMARK    7  A    between atoms: C_23  and  C_24
REMARK    8  A    between atoms: C_23  and  C_25
REMARK                            x       y       z     vdW  Elec       q    Type
REMARK                         _______ _______ _______ _____ _____    ______ ____
ROOT
ATOM      1  N   UNL     1       3.660   7.322  16.737  0.00  0.00    +0.000 N 
ATOM      2  C   UNL     1       2.906   7.582  17.875  0.00  0.00    +0.000 A 
ATOM      3  N   UNL     1       2.361   8.800  17.942  0.00  0.00    +0.000 NA
ATOM      4  C   UNL     1       1.665   9.091  19.051  0.00  0.00    +0.000 A 
ATOM      5  C   UNL     1       1.438   8.183  20.051  0.00  0.00    +0.000 A 
ATOM      6  C   UNL     1       2.025   6.945  19.900  0.00  0.00    +0.000 A 
ATOM      7  N   UNL     1       2.757   6.639  18.820  0.00  0.00    +0.000 NA
ATOM      8  H   UNL     1       2.980   7.134  16.007  0.00  0.00    +0.000 HD
ENDROOT
BRANCH   1  13
ATOM      9  C   UNL     1       8.170   6.546  18.527  0.00  0.00    +0.000 C 
ATOM     10  C   UNL     1       7.015   5.810  17.809  0.00  0.00    +0.000 C 
ATOM     11  C   UNL     1       6.709   4.555  18.645  0.00  0.00    +0.000 C 
ATOM     12  C   UNL     1       5.817   6.766  17.768  0.00  0.00    +0.000 C 
ATOM     13  C   UNL     1       4.689   6.284  16.849  0.00  0.00    +0.000 C 
ATOM     14  C   UNL     1       5.275   6.056  15.447  0.00  0.00    +0.000 C 
ATOM     15  C   UNL     1       6.490   5.108  15.439  0.00  0.00    +0.000 C 
ATOM     16  C   UNL     1       7.198   5.239  14.069  0.00  0.00    +0.000 C 
ATOM     17  C   UNL     1       6.054   3.638  15.561  0.00  0.00    +0.000 C 
ATOM     18  N   UNL     1       7.495   5.474  16.457  0.00  0.00    +0.000 NA
ATOM     19  H   UNL     1       8.017   6.280  16.105  0.00  0.00    +0.000 HD
ENDBRANCH   1  13
BRANCH   6  20
ATOM     20  N   UNL     1       1.846   6.016  20.932  0.00  0.00    +0.000 N 
ATOM     21  H   UNL     1       1.595   6.499  21.790  0.00  0.00    +0.000 HD
BRANCH  20  22
ATOM     22  C   UNL     1       0.977   4.887  20.649  0.00  0.00    +0.000 C 
BRANCH  22  23
ATOM     23  C   UNL     1       1.797   3.856  19.899  0.00  0.00    +0.000 A 
ATOM     24  C   UNL     1       1.364   3.329  18.678  0.00  0.00    +0.000 A 
ATOM     25  C   UNL     1       2.115   2.339  18.023  0.00  0.00    +0.000 A 
ATOM     26  C   UNL     1       3.295   1.887  18.600  0.00  0.00    +0.000 A 
ATOM     27  F   UNL     1       4.014   0.938  17.979  0.00  0.00    +0.000 F 
ATOM     28  C   UNL     1       3.738   2.392  19.814  0.00  0.00    +0.000 A 
ATOM     29  C   UNL     1       2.988   3.370  20.466  0.00  0.00    +0.000 A 
ENDBRANCH  22  23
ENDBRANCH  20  22
ENDBRANCH   6  20
TORSDOF 4
ENDMDL
MODEL 4
REMARK VINA RESULT:      -7.9      1.343      1.898
REMARK  Name = 
REMARK  8 active torsions:
REMARK  status: ('A' for Active; 'I' for Inactive)
REMARK    1  A    between atoms: C_1  and  C_2
REMARK    2  A    between atoms: C_2  and  C_3
REMARK    3  A    between atoms: C_5  and  N_6
REMARK    4  A    between atoms: C_11  and  N_12
REMARK    5  A    between atoms: N_12  and  C_13
REMARK    6  A    between atoms: C_13  and  C_14
REMARK    7  A    between atoms: C_23  and  C_24
REMARK    8  A    between atoms: C_23  and  C_25
REMARK                            x       y       z     vdW  Elec       q    Type
REMARK                         _______ _______ _______ _____ _____    ______ ____
ROOT
ATOM      1  N   UNL     1       4.054   3.375  18.076  0.00  0.00    +0.000 N 
ATOM      2  C   UNL     1       3.011   3.685  18.940  0.00  0.00    +0.000 A 
ATOM      3  N   UNL     1       2.104   2.721  19.123  0.00  0.00    +0.000 NA
ATOM      4  C   UNL     1       1.064   3.011  19.918  0.00  0.00    +0.000 A 
ATOM      5  C   UNL     1       0.943   4.200  20.588  0.00  0.00    +0.000 A 
ATOM      6  C   UNL     1       1.927   5.137  20.355  0.00  0.00    +0.000 A 
ATOM      7  N   UNL     1       2.958   4.888  19.536  0.00  0.00    +0.000 NA
ATOM      8  H   UNL     1       4.682   2.792  18.619  0.00  0.00    +0.000 HD
ENDROOT
BRANCH   1  13
ATOM      9  C   UNL     1       6.996   4.430  14.285  0.00  0.00    +0.000 C 
ATOM     10  C   UNL     1       6.218   5.114  15.433  0.00  0.00    +0.000 C 
ATOM     11  C   UNL     1       5.360   6.214  14.786  0.00  0.00    +0.000 C 
ATOM     12  C   UNL     1       5.350   4.041  16.100  0.00  0.00    +0.000 C 
ATOM     13  C   UNL     1       4.729   4.501  17.424  0.00  0.00    +0.000 C 
ATOM     14  C   UNL     1       5.863   4.964  18.352  0.00  0.00    +0.000 C 
ATOM     15  C   UNL     1       6.771   6.036  17.719  0.00  0.00    +0.000 C 
ATOM     16  C   UNL     1       8.053   6.154  18.578  0.00  0.00    +0.000 C 
ATOM     17  C   UNL     1       6.104   7.422  17.746  0.00  0.00    +0.000 C 
ATOM     18  N   UNL     1       7.220   5.664  16.363  0.00  0.00    +0.000 NA
ATOM     19  H   UNL     1       7.966   4.972  16.459  0.00  0.00    +0.000 HD
ENDBRANCH   1  13
BRANCH   6  20
ATOM     20  N   UNL     1       1.800   6.377  20.992  0.00  0.00    +0.000 N 
ATOM     21  H   UNL     1       2.396   6.405  21.814  0.00  0.00    +0.000 HD
BRANCH  20  22
ATOM     22  C   UNL     1       1.942   7.557  20.156  0.00  0.00    +0.000 C 
BRANCH  22  23
ATOM     23  C   UNL     1       1.073   8.647  20.751  0.00  0.00    +0.000 A 
ATOM     24  C   UNL     1       0.424   9.584  19.941  0.00  0.00    +0.000 A 
ATOM     25  C   UNL     1      -0.338  10.615  20.515  0.00  0.00    +0.000 A 
ATOM     26  C   UNL     1      -0.440  10.696  21.898  0.00  0.00    +0.000 A 
ATOM     27  F   UNL     1      -1.164  11.683  22.451  0.00  0.00    +0.000 F 
ATOM     28  C   UNL     1       0.202   9.780  22.719  0.00  0.00    +0.000 A 
ATOM     29  C   UNL     1       0.962   8.761  22.147  0.00  0.00    +0.000 A 
ENDBRANCH  22  23
ENDBRANCH  20  22
ENDBRANCH   6  20
TORSDOF 4
ENDMDL
MODEL 5
REMARK VINA RESULT:      -7.9      2.669      5.090
REMARK  Name = 
REMARK  8 active torsions:
REMARK  status: ('A' for Active; 'I' for Inactive)
REMARK    1  A    between atoms: C_1  and  C_2
REMARK    2  A    between atoms: C_2  and  C_3
REMARK    3  A    between atoms: C_5  and  N_6
REMARK    4  A    between atoms: C_11  and  N_12
REMARK    5  A    between atoms: N_12  and  C_13
REMARK    6  A    between atoms: C_13  and  C_14
REMARK    7  A    between atoms: C_23  and  C_24
REMARK    8  A    between atoms: C_23  and  C_25
REMARK                            x       y       z     vdW  Elec       q    Type
REMARK                         _______ _______ _______ _____ _____    ______ ____
ROOT
ATOM      1  N   UNL     1       3.574   7.503  17.190  0.00  0.00    +0.000 N 
ATOM      2  C   UNL     1       2.776   7.505  18.327  0.00  0.00    +0.000 A 
ATOM      3  N   UNL     1       1.991   8.575  18.482  0.00  0.00    +0.000 NA
ATOM      4  C   UNL     1       1.244   8.623  19.594  0.00  0.00    +0.000 A 
ATOM      5  C   UNL     1       1.205   7.606  20.512  0.00  0.00    +0.000 A 
ATOM      6  C   UNL     1       2.035   6.532  20.273  0.00  0.00    +0.000 A 
ATOM      7  N   UNL     1       2.820   6.476  19.189  0.00  0.00    +0.000 NA
ATOM      8  H   UNL     1       2.951   7.242  16.432  0.00  0.00    +0.000 HD
ENDROOT
BRANCH   1  13
ATOM      9  C   UNL     1       8.453   7.912  17.607  0.00  0.00    +0.000 C 
ATOM     10  C   UNL     1       7.337   6.846  17.507  0.00  0.00    +0.000 C 
ATOM     11  C   UNL     1       7.538   5.890  18.695  0.00  0.00    +0.000 C 
ATOM     12  C   UNL     1       5.994   7.580  17.597  0.00  0.00    +0.000 C 
ATOM     13  C   UNL     1       4.794   6.694  17.239  0.00  0.00    +0.000 C 
ATOM     14  C   UNL     1       5.026   6.113  15.836  0.00  0.00    +0.000 C 
ATOM     15  C   UNL     1       6.371   5.375  15.695  0.00  0.00    +0.000 C 
ATOM     16  C   UNL     1       6.650   5.159  14.188  0.00  0.00    +0.000 C 
ATOM     17  C   UNL     1       6.311   3.975  16.328  0.00  0.00    +0.000 C 
ATOM     18  N   UNL     1       7.505   6.167  16.211  0.00  0.00    +0.000 NA
ATOM     19  H   UNL     1       7.731   6.882  15.515  0.00  0.00    +0.000 HD
ENDBRANCH   1  13
BRANCH   6  20
ATOM     20  N   UNL     1       2.047   5.502  21.222  0.00  0.00    +0.000 N 
ATOM     21  H   UNL     1       1.886   5.886  22.148  0.00  0.00    +0.000 HD
BRANCH  20  22
ATOM     22  C   UNL     1       1.212   4.347  20.940  0.00  0.00    +0.000 C 
BRANCH  22  23
ATOM     23  C   UNL     1       2.007   3.415  20.048  0.00  0.00    +0.000 A 
ATOM     24  C   UNL     1       3.267   2.941  20.428  0.00  0.00    +0.000 A 
ATOM     25  C   UNL     1       4.007   2.116  19.565  0.00  0.00    +0.000 A 
ATOM     26  C   UNL     1       3.477   1.776  18.328  0.00  0.00    +0.000 A 
ATOM     27  F   UNL     1       4.184   0.990  17.498  0.00  0.00    +0.000 F 
ATOM     28  C   UNL     1       2.232   2.241  17.929  0.00  0.00    +0.000 A 
ATOM     29  C   UNL     1       1.501   3.064  18.785  0.00  0.00    +0.000 A 
ENDBRANCH  22  23
ENDBRANCH  20  22
ENDBRANCH   6  20
TORSDOF 4
ENDMDL
MODEL 6
REMARK VINA RESULT:      -7.8      3.330      5.739
REMARK  Name = 
REMARK  8 active torsions:
REMARK  status: ('A' for Active; 'I' for Inactive)
REMARK    1  A    between atoms: C_1  and  C_2
REMARK    2  A    between atoms: C_2  and  C_3
REMARK    3  A    between atoms: C_5  and  N_6
REMARK    4  A    between atoms: C_11  and  N_12
REMARK    5  A    between atoms: N_12  and  C_13
REMARK    6  A    between atoms: C_13  and  C_14
REMARK    7  A    between atoms: C_23  and  C_24
REMARK    8  A    between atoms: C_23  and  C_25
REMARK                            x       y       z     vdW  Elec       q    Type
REMARK                         _______ _______ _______ _____ _____    ______ ____
ROOT
ATOM      1  N   UNL     1       2.261   7.007  20.939  0.00  0.00    +0.000 N 
ATOM      2  C   UNL     1       1.437   8.119  20.813  0.00  0.00    +0.000 A 
ATOM      3  N   UNL     1       0.898   8.571  21.949  0.00  0.00    +0.000 NA
ATOM      4  C   UNL     1       0.063   9.615  21.849  0.00  0.00    +0.000 A 
ATOM      5  C   UNL     1      -0.189  10.261  20.667  0.00  0.00    +0.000 A 
ATOM      6  C   UNL     1       0.416   9.740  19.543  0.00  0.00    +0.000 A 
ATOM      7  N   UNL     1       1.225   8.674  19.609  0.00  0.00    +0.000 NA
ATOM      8  H   UNL     1       3.141   7.371  21.293  0.00  0.00    +0.000 HD
ENDROOT
BRANCH   1  13
ATOM      9  C   UNL     1       1.330   2.479  19.274  0.00  0.00    +0.000 C 
ATOM     10  C   UNL     1       1.912   3.836  18.815  0.00  0.00    +0.000 C 
ATOM     11  C   UNL     1       1.158   4.223  17.531  0.00  0.00    +0.000 C 
ATOM     12  C   UNL     1       1.662   4.847  19.940  0.00  0.00    +0.000 C 
ATOM     13  C   UNL     1       2.421   6.165  19.751  0.00  0.00    +0.000 C 
ATOM     14  C   UNL     1       3.917   5.843  19.605  0.00  0.00    +0.000 C 
ATOM     15  C   UNL     1       4.216   4.822  18.491  0.00  0.00    +0.000 C 
ATOM     16  C   UNL     1       5.666   4.314  18.675  0.00  0.00    +0.000 C 
ATOM     17  C   UNL     1       4.161   5.477  17.100  0.00  0.00    +0.000 C 
ATOM     18  N   UNL     1       3.350   3.628  18.574  0.00  0.00    +0.000 NA
ATOM     19  H   UNL     1       3.707   3.035  19.327  0.00  0.00    +0.000 HD
ENDBRANCH   1  13
BRANCH   6  20
ATOM     20  N   UNL     1       0.136  10.355  18.317  0.00  0.00    +0.000 N 
ATOM     21  H   UNL     1       0.994  10.718  17.910  0.00  0.00    +0.000 HD
BRANCH  20  22
ATOM     22  C   UNL     1      -0.654   9.588  17.369  0.00  0.00    +0.000 C 
BRANCH  22  23
ATOM     23  C   UNL     1      -1.976  10.306  17.189  0.00  0.00    +0.000 A 
ATOM     24  C   UNL     1      -2.576  11.003  18.243  0.00  0.00    +0.000 A 
ATOM     25  C   UNL     1      -3.825  11.622  18.068  0.00  0.00    +0.000 A 
ATOM     26  C   UNL     1      -4.461  11.535  16.836  0.00  0.00    +0.000 A 
ATOM     27  F   UNL     1      -5.657  12.122  16.666  0.00  0.00    +0.000 F 
ATOM     28  C   UNL     1      -3.885  10.843  15.780  0.00  0.00    +0.000 A 
ATOM     29  C   UNL     1      -2.648  10.224  15.958  0.00  0.00    +0.000 A 
ENDBRANCH  22  23
ENDBRANCH  20  22
ENDBRANCH   6  20
TORSDOF 4
ENDMDL
MODEL 7
REMARK VINA RESULT:      -7.7      1.770      2.314
REMARK  Name = 
REMARK  8 active torsions:
REMARK  status: ('A' for Active; 'I' for Inactive)
REMARK    1  A    between atoms: C_1  and  C_2
REMARK    2  A    between atoms: C_2  and  C_3
REMARK    3  A    between atoms: C_5  and  N_6
REMARK    4  A    between atoms: C_11  and  N_12
REMARK    5  A    between atoms: N_12  and  C_13
REMARK    6  A    between atoms: C_13  and  C_14
REMARK    7  A    between atoms: C_23  and  C_24
REMARK    8  A    between atoms: C_23  and  C_25
REMARK                            x       y       z     vdW  Elec       q    Type
REMARK                         _______ _______ _______ _____ _____    ______ ____
ROOT
ATOM      1  N   UNL     1       3.806   3.432  18.433  0.00  0.00    +0.000 N 
ATOM      2  C   UNL     1       2.805   4.022  19.197  0.00  0.00    +0.000 A 
ATOM      3  N   UNL     1       1.724   3.268  19.416  0.00  0.00    +0.000 NA
ATOM      4  C   UNL     1       0.726   3.830  20.112  0.00  0.00    +0.000 A 
ATOM      5  C   UNL     1       0.806   5.087  20.653  0.00  0.00    +0.000 A 
ATOM      6  C   UNL     1       1.960   5.794  20.392  0.00  0.00    +0.000 A 
ATOM      7  N   UNL     1       2.959   5.271  19.667  0.00  0.00    +0.000 NA
ATOM      8  H   UNL     1       4.287   2.804  19.070  0.00  0.00    +0.000 HD
ENDROOT
BRANCH   1  13
ATOM      9  C   UNL     1       6.255   3.871  14.197  0.00  0.00    +0.000 C 
ATOM     10  C   UNL     1       5.967   4.639  15.507  0.00  0.00    +0.000 C 
ATOM     11  C   UNL     1       5.449   6.028  15.095  0.00  0.00    +0.000 C 
ATOM     12  C   UNL     1       4.903   3.848  16.278  0.00  0.00    +0.000 C 
ATOM     13  C   UNL     1       4.712   4.335  17.719  0.00  0.00    +0.000 C 
ATOM     14  C   UNL     1       6.074   4.287  18.429  0.00  0.00    +0.000 C 
ATOM     15  C   UNL     1       7.178   5.060  17.684  0.00  0.00    +0.000 C 
ATOM     16  C   UNL     1       8.546   4.648  18.280  0.00  0.00    +0.000 C 
ATOM     17  C   UNL     1       7.049   6.577  17.908  0.00  0.00    +0.000 C 
ATOM     18  N   UNL     1       7.237   4.717  16.249  0.00  0.00    +0.000 NA
ATOM     19  H   UNL     1       7.701   3.810  16.163  0.00  0.00    +0.000 HD
ENDBRANCH   1  13
BRANCH   6  20
ATOM     20  N   UNL     1       2.045   7.098  20.895  0.00  0.00    +0.000 N 
ATOM     21  H   UNL     1       2.995   7.286  21.205  0.00  0.00    +0.000 HD
BRANCH  20  22
ATOM     22  C   UNL     1       1.509   8.156  20.056  0.00  0.00    +0.000 C 
BRANCH  22  23
ATOM     23  C   UNL     1       0.787   9.135  20.961  0.00  0.00    +0.000 A 
ATOM     24  C   UNL     1       0.263   8.736  22.195  0.00  0.00    +0.000 A 
ATOM     25  C   UNL     1      -0.444   9.648  22.996  0.00  0.00    +0.000 A 
ATOM     26  C   UNL     1      -0.618  10.952  22.552  0.00  0.00    +0.000 A 
ATOM     27  F   UNL     1      -1.296  11.825  23.314  0.00  0.00    +0.000 F 
ATOM     28  C   UNL     1      -0.110  11.365  21.328  0.00  0.00    +0.000 A 
ATOM     29  C   UNL     1       0.586  10.457  20.532  0.00  0.00    +0.000 A 
ENDBRANCH  22  23
ENDBRANCH  20  22
ENDBRANCH   6  20
TORSDOF 4
ENDMDL
MODEL 8
REMARK VINA RESULT:      -7.7      3.142      5.676
REMARK  Name = 
REMARK  8 active torsions:
REMARK  status: ('A' for Active; 'I' for Inactive)
REMARK    1  A    between atoms: C_1  and  C_2
REMARK    2  A    between atoms: C_2  and  C_3
REMARK    3  A    between atoms: C_5  and  N_6
REMARK    4  A    between atoms: C_11  and  N_12
REMARK    5  A    between atoms: N_12  and  C_13
REMARK    6  A    between atoms: C_13  and  C_14
REMARK    7  A    between atoms: C_23  and  C_24
REMARK    8  A    between atoms: C_23  and  C_25
REMARK                            x       y       z     vdW  Elec       q    Type
REMARK                         _______ _______ _______ _____ _____    ______ ____
ROOT
ATOM      1  N   UNL     1       2.190   6.773  20.953  0.00  0.00    +0.000 N 
ATOM      2  C   UNL     1       1.463   7.951  20.828  0.00  0.00    +0.000 A 
ATOM      3  N   UNL     1       0.852   8.375  21.938  0.00  0.00    +0.000 NA
ATOM      4  C   UNL     1       0.108   9.484  21.834  0.00  0.00    +0.000 A 
ATOM      5  C   UNL     1       0.017  10.218  20.679  0.00  0.00    +0.000 A 
ATOM      6  C   UNL     1       0.687   9.720  19.583  0.00  0.00    +0.000 A 
ATOM      7  N   UNL     1       1.408   8.592  19.649  0.00  0.00    +0.000 NA
ATOM      8  H   UNL     1       3.056   7.045  21.409  0.00  0.00    +0.000 HD
ENDROOT
BRANCH   1  13
ATOM      9  C   UNL     1       1.541   2.271  19.095  0.00  0.00    +0.000 C 
ATOM     10  C   UNL     1       2.038   3.680  18.695  0.00  0.00    +0.000 C 
ATOM     11  C   UNL     1       1.261   4.074  17.426  0.00  0.00    +0.000 C 
ATOM     12  C   UNL     1       1.725   4.624  19.862  0.00  0.00    +0.000 C 
ATOM     13  C   UNL     1       2.402   5.994  19.730  0.00  0.00    +0.000 C 
ATOM     14  C   UNL     1       3.914   5.771  19.575  0.00  0.00    +0.000 C 
ATOM     15  C   UNL     1       4.276   4.819  18.420  0.00  0.00    +0.000 C 
ATOM     16  C   UNL     1       5.755   4.394  18.586  0.00  0.00    +0.000 C 
ATOM     17  C   UNL     1       4.181   5.529  17.058  0.00  0.00    +0.000 C 
ATOM     18  N   UNL     1       3.486   3.572  18.449  0.00  0.00    +0.000 NA
ATOM     19  H   UNL     1       3.879   2.970  19.177  0.00  0.00    +0.000 HD
ENDBRANCH   1  13
BRANCH   6  20
ATOM     20  N   UNL     1       0.570  10.427  18.380  0.00  0.00    +0.000 N 
ATOM     21  H   UNL     1       0.234   9.807  17.648  0.00  0.00    +0.000 HD
BRANCH  20  22
ATOM     22  C   UNL     1      -0.157  11.683  18.431  0.00  0.00    +0.000 C 
BRANCH  22  23
ATOM     23  C   UNL     1      -1.621  11.374  18.185  0.00  0.00    +0.000 A 
ATOM     24  C   UNL     1      -2.017  10.455  17.207  0.00  0.00    +0.000 A 
ATOM     25  C   UNL     1      -3.380  10.219  16.963  0.00  0.00    +0.000 A 
ATOM     26  C   UNL     1      -4.333  10.908  17.702  0.00  0.00    +0.000 A 
ATOM     27  F   UNL     1      -5.637  10.688  17.468  0.00  0.00    +0.000 F 
ATOM     28  C   UNL     1      -3.961  11.828  18.672  0.00  0.00    +0.000 A 
ATOM     29  C   UNL     1      -2.607  12.065  18.909  0.00  0.00    +0.000 A 
ENDBRANCH  22  23
ENDBRANCH  20  22
ENDBRANCH   6  20
TORSDOF 4
ENDMDL
MODEL 9
REMARK VINA RESULT:      -7.4      2.817      4.818
REMARK  Name = 
REMARK  8 active torsions:
REMARK  status: ('A' for Active; 'I' for Inactive)
REMARK    1  A    between atoms: C_1  and  C_2
REMARK    2  A    between atoms: C_2  and  C_3
REMARK    3  A    between atoms: C_5  and  N_6
REMARK    4  A    between atoms: C_11  and  N_12
REMARK    5  A    between atoms: N_12  and  C_13
REMARK    6  A    between atoms: C_13  and  C_14
REMARK    7  A    between atoms: C_23  and  C_24
REMARK    8  A    between atoms: C_23  and  C_25
REMARK                            x       y       z     vdW  Elec       q    Type
REMARK                         _______ _______ _______ _____ _____    ______ ____
ROOT
ATOM      1  N   UNL     1       2.935   6.175  20.408  0.00  0.00    +0.000 N 
ATOM      2  C   UNL     1       2.082   7.270  20.341  0.00  0.00    +0.000 A 
ATOM      3  N   UNL     1       1.411   7.552  21.461  0.00  0.00    +0.000 NA
ATOM      4  C   UNL     1       0.549   8.576  21.409  0.00  0.00    +0.000 A 
ATOM      5  C   UNL     1       0.393   9.367  20.301  0.00  0.00    +0.000 A 
ATOM      6  C   UNL     1       1.131   9.018  19.190  0.00  0.00    +0.000 A 
ATOM      7  N   UNL     1       1.973   7.975  19.203  0.00  0.00    +0.000 NA
ATOM      8  H   UNL     1       3.758   6.512  20.899  0.00  0.00    +0.000 HD
ENDROOT
BRANCH   1  13
ATOM      9  C   UNL     1       3.335   1.700  18.419  0.00  0.00    +0.000 C 
ATOM     10  C   UNL     1       3.421   3.198  18.044  0.00  0.00    +0.000 C 
ATOM     11  C   UNL     1       2.479   3.403  16.845  0.00  0.00    +0.000 C 
ATOM     12  C   UNL     1       2.962   4.003  19.265  0.00  0.00    +0.000 C 
ATOM     13  C   UNL     1       3.251   5.504  19.144  0.00  0.00    +0.000 C 
ATOM     14  C   UNL     1       4.754   5.686  18.883  0.00  0.00    +0.000 C 
ATOM     15  C   UNL     1       5.264   4.885  17.669  0.00  0.00    +0.000 C 
ATOM     16  C   UNL     1       6.811   4.856  17.722  0.00  0.00    +0.000 C 
ATOM     17  C   UNL     1       4.890   5.575  16.346  0.00  0.00    +0.000 C 
ATOM     18  N   UNL     1       4.827   3.475  17.701  0.00  0.00    +0.000 NA
ATOM     19  H   UNL     1       5.413   2.981  18.377  0.00  0.00    +0.000 HD
ENDBRANCH   1  13
BRANCH   6  20
ATOM     20  N   UNL     1       0.953   9.783  18.031  0.00  0.00    +0.000 N 
ATOM     21  H   UNL     1       0.448   9.241  17.335  0.00  0.00    +0.000 HD
BRANCH  20  22
ATOM     22  C   UNL     1       0.405  11.116  18.209  0.00  0.00    +0.000 C 
BRANCH  22  23
ATOM     23  C   UNL     1      -1.099  11.019  18.042  0.00  0.00    +0.000 A 
ATOM     24  C   UNL     1      -1.965  11.873  18.733  0.00  0.00    +0.000 A 
ATOM     25  C   UNL     1      -3.356  11.735  18.601  0.00  0.00    +0.000 A 
ATOM     26  C   UNL     1      -3.866  10.740  17.777  0.00  0.00    +0.000 A 
ATOM     27  F   UNL     1      -5.196  10.603  17.651  0.00  0.00    +0.000 F 
ATOM     28  C   UNL     1      -3.024   9.879  17.088  0.00  0.00    +0.000 A 
ATOM     29  C   UNL     1      -1.643  10.014  17.225  0.00  0.00    +0.000 A 
ENDBRANCH  22  23
ENDBRANCH  20  22
ENDBRANCH   6  20
TORSDOF 4
ENDMDL
