MODEL 1
REMARK VINA RESULT:      -8.1      0.000      0.000
REMARK  Name = 
REMARK  3 active torsions:
REMARK  status: ('A' for Active; 'I' for Inactive)
REMARK    1  A    between atoms: C_2  and  C_11
REMARK    2  A    between atoms: N_3  and  C_4
REMARK    3  A    between atoms: C_22  and  C_23
REMARK                            x       y       z     vdW  Elec       q    Type
REMARK                         _______ _______ _______ _____ _____    ______ ____
ROOT
ATOM      1  C   UNL     1       4.195   3.952  17.771  0.00  0.00    +0.000 A 
ATOM      2  C   UNL     1       4.202   2.575  18.088  0.00  0.00    +0.000 A 
ATOM      3  N   UNL     1       3.522   2.271  19.185  0.00  0.00    +0.000 NA
ATOM      4  N   UNL     1       3.007   3.454  19.606  0.00  0.00    +0.000 N 
ATOM      5  C   UNL     1       3.448   4.518  18.789  0.00  0.00    +0.000 A 
ATOM      6  N   UNL     1       3.019   5.780  19.101  0.00  0.00    +0.000 N 
ATOM      7  C   UNL     1       2.124   6.040  20.142  0.00  0.00    +0.000 C 
ATOM      8  C   UNL     1       1.657   7.233  20.466  0.00  0.00    +0.000 C 
ATOM      9  C   UNL     1       0.784   7.938  21.328  0.00  0.00    +0.000 C 
ATOM     10  C   UNL     1       1.660   8.621  20.228  0.00  0.00    +0.000 C 
ATOM     11  C   UNL     1       1.662   4.894  20.922  0.00  0.00    +0.000 C 
ATOM     12  C   UNL     1       2.111   3.650  20.661  0.00  0.00    +0.000 C 
ATOM     13  H   UNL     1       3.222   6.589  18.521  0.00  0.00    +0.000 HD
ENDROOT
BRANCH   1  15
ATOM     14  O   UNL     1       4.490   5.608  16.177  0.00  0.00    +0.000 OA
ATOM     15  C   UNL     1       4.815   4.496  16.579  0.00  0.00    +0.000 C 
ATOM     16  N   UNL     1       5.693   3.667  15.901  0.00  0.00    +0.000 N 
ATOM     17  H   UNL     1       5.533   2.670  16.013  0.00  0.00    +0.000 HD
BRANCH  16  18
ATOM     18  C   UNL     1       6.303   4.087  14.686  0.00  0.00    +0.000 A 
ATOM     19  C   UNL     1       6.006   3.474  13.465  0.00  0.00    +0.000 A 
ATOM     20  C   UNL     1       6.655   3.889  12.303  0.00  0.00    +0.000 A 
ATOM     21  C   UNL     1       7.587   4.910  12.397  0.00  0.00    +0.000 A 
ATOM     22  N   UNL     1       7.889   5.545  13.549  0.00  0.00    +0.000 NA
ATOM     23  C   UNL     1       7.237   5.123  14.657  0.00  0.00    +0.000 A 
ATOM     24 CL   UNL     1       7.740   5.918  16.099  0.00  0.00    +0.000 Cl
ENDBRANCH  16  18
ENDBRANCH   1  15
BRANCH  12  25
ATOM     25  C   UNL     1       1.666   2.442  21.402  0.00  0.00    +0.000 C 
ATOM     26  F   UNL     1       2.695   1.903  22.110  0.00  0.00    +0.000 F 
ATOM     27  F   UNL     1       0.716   2.762  22.331  0.00  0.00    +0.000 F 
ENDBRANCH  12  25
TORSDOF 3
ENDMDL
MODEL 2
REMARK VINA RESULT:      -8.1      3.472      7.344
REMARK  Name = 
REMARK  3 active torsions:
REMARK  status: ('A' for Active; 'I' for Inactive)
REMARK    1  A    between atoms: C_2  and  C_11
REMARK    2  A    between atoms: N_3  and  C_4
REMARK    3  A    between atoms: C_22  and  C_23
REMARK                            x       y       z     vdW  Elec       q    Type
REMARK                         _______ _______ _______ _____ _____    ______ ____
ROOT
ATOM      1  C   UNL     1       2.082   7.256  19.318  0.00  0.00    +0.000 A 
ATOM      2  C   UNL     1       1.607   6.670  20.513  0.00  0.00    +0.000 A 
ATOM      3  N   UNL     1       2.001   5.416  20.692  0.00  0.00    +0.000 NA
ATOM      4  N   UNL     1       2.791   5.152  19.620  0.00  0.00    +0.000 N 
ATOM      5  C   UNL     1       2.817   6.244  18.727  0.00  0.00    +0.000 A 
ATOM      6  N   UNL     1       3.565   6.118  17.587  0.00  0.00    +0.000 N 
ATOM      7  C   UNL     1       4.343   4.990  17.313  0.00  0.00    +0.000 C 
ATOM      8  C   UNL     1       5.105   4.830  16.245  0.00  0.00    +0.000 C 
ATOM      9  C   UNL     1       6.024   3.970  15.599  0.00  0.00    +0.000 C 
ATOM     10  C   UNL     1       5.562   5.345  15.017  0.00  0.00    +0.000 C 
ATOM     11  C   UNL     1       4.318   3.911  18.298  0.00  0.00    +0.000 C 
ATOM     12  C   UNL     1       3.549   3.996  19.402  0.00  0.00    +0.000 C 
ATOM     13  H   UNL     1       3.704   6.883  16.932  0.00  0.00    +0.000 HD
ENDROOT
BRANCH   1  15
ATOM     14  O   UNL     1       2.472   9.156  18.050  0.00  0.00    +0.000 OA
ATOM     15  C   UNL     1       1.831   8.637  18.958  0.00  0.00    +0.000 C 
ATOM     16  N   UNL     1       0.921   9.330  19.740  0.00  0.00    +0.000 N 
ATOM     17  H   UNL     1       0.822   9.000  20.696  0.00  0.00    +0.000 HD
BRANCH  16  18
ATOM     18  C   UNL     1       0.655  10.707  19.504  0.00  0.00    +0.000 A 
ATOM     19  C   UNL     1       1.334  11.714  20.197  0.00  0.00    +0.000 A 
ATOM     20  C   UNL     1       1.015  13.052  19.967  0.00  0.00    +0.000 A 
ATOM     21  C   UNL     1       0.023  13.344  19.044  0.00  0.00    +0.000 A 
ATOM     22  N   UNL     1      -0.642  12.407  18.337  0.00  0.00    +0.000 NA
ATOM     23  C   UNL     1      -0.305  11.119  18.580  0.00  0.00    +0.000 A 
ATOM     24 CL   UNL     1      -1.257   9.980  17.708  0.00  0.00    +0.000 Cl
ENDBRANCH  16  18
ENDBRANCH   1  15
BRANCH  12  25
ATOM     25  C   UNL     1       3.494   2.945  20.451  0.00  0.00    +0.000 C 
ATOM     26  F   UNL     1       2.361   2.202  20.329  0.00  0.00    +0.000 F 
ATOM     27  F   UNL     1       4.525   2.059  20.308  0.00  0.00    +0.000 F 
ENDBRANCH  12  25
TORSDOF 3
ENDMDL
MODEL 3
REMARK VINA RESULT:      -8.0      4.651      7.252
REMARK  Name = 
REMARK  3 active torsions:
REMARK  status: ('A' for Active; 'I' for Inactive)
REMARK    1  A    between atoms: C_2  and  C_11
REMARK    2  A    between atoms: N_3  and  C_4
REMARK    3  A    between atoms: C_22  and  C_23
REMARK                            x       y       z     vdW  Elec       q    Type
REMARK                         _______ _______ _______ _____ _____    ______ ____
ROOT
ATOM      1  C   UNL     1       1.440   8.585  20.486  0.00  0.00    +0.000 A 
ATOM      2  C   UNL     1       1.699   8.885  21.843  0.00  0.00    +0.000 A 
ATOM      3  N   UNL     1       0.953   9.867  22.329  0.00  0.00    +0.000 NA
ATOM      4  N   UNL     1       0.141  10.220  21.300  0.00  0.00    +0.000 N 
ATOM      5  C   UNL     1       0.453   9.488  20.134  0.00  0.00    +0.000 A 
ATOM      6  N   UNL     1      -0.278   9.747  19.006  0.00  0.00    +0.000 N 
ATOM      7  C   UNL     1      -1.346  10.648  18.985  0.00  0.00    +0.000 C 
ATOM      8  C   UNL     1      -2.100  10.911  17.932  0.00  0.00    +0.000 C 
ATOM      9  C   UNL     1      -3.218  11.643  17.465  0.00  0.00    +0.000 C 
ATOM     10  C   UNL     1      -2.363  10.691  16.567  0.00  0.00    +0.000 C 
ATOM     11  C   UNL     1      -1.656  11.339  20.234  0.00  0.00    +0.000 C 
ATOM     12  C   UNL     1      -0.916  11.134  21.343  0.00  0.00    +0.000 C 
ATOM     13  H   UNL     1      -0.174   9.210  18.149  0.00  0.00    +0.000 HD
ENDROOT
BRANCH   1  15
ATOM     14  O   UNL     1       2.179   7.545  18.552  0.00  0.00    +0.000 OA
ATOM     15  C   UNL     1       2.090   7.503  19.775  0.00  0.00    +0.000 C 
ATOM     16  N   UNL     1       2.502   6.418  20.532  0.00  0.00    +0.000 N 
ATOM     17  H   UNL     1       1.983   6.258  21.390  0.00  0.00    +0.000 HD
BRANCH  16  18
ATOM     18  C   UNL     1       3.093   5.281  19.916  0.00  0.00    +0.000 A 
ATOM     19  C   UNL     1       4.403   5.308  19.426  0.00  0.00    +0.000 A 
ATOM     20  C   UNL     1       4.931   4.184  18.792  0.00  0.00    +0.000 A 
ATOM     21  C   UNL     1       4.130   3.061  18.666  0.00  0.00    +0.000 A 
ATOM     22  N   UNL     1       2.870   2.981  19.142  0.00  0.00    +0.000 NA
ATOM     23  C   UNL     1       2.389   4.087  19.758  0.00  0.00    +0.000 A 
ATOM     24 CL   UNL     1       0.748   3.940  20.257  0.00  0.00    +0.000 Cl
ENDBRANCH  16  18
ENDBRANCH   1  15
BRANCH  12  25
ATOM     25  C   UNL     1      -1.191  11.790  22.648  0.00  0.00    +0.000 C 
ATOM     26  F   UNL     1      -2.016  12.859  22.486  0.00  0.00    +0.000 F 
ATOM     27  F   UNL     1      -1.857  10.942  23.488  0.00  0.00    +0.000 F 
ENDBRANCH  12  25
TORSDOF 3
ENDMDL
MODEL 4
REMARK VINA RESULT:      -7.9      4.928      6.842
REMARK  Name = 
REMARK  3 active torsions:
REMARK  status: ('A' for Active; 'I' for Inactive)
REMARK    1  A    between atoms: C_2  and  C_11
REMARK    2  A    between atoms: N_3  and  C_4
REMARK    3  A    between atoms: C_22  and  C_23
REMARK                            x       y       z     vdW  Elec       q    Type
REMARK                         _______ _______ _______ _____ _____    ______ ____
ROOT
ATOM      1  C   UNL     1       2.039   8.094  18.746  0.00  0.00    +0.000 A 
ATOM      2  C   UNL     1       2.618   8.680  17.598  0.00  0.00    +0.000 A 
ATOM      3  N   UNL     1       2.396   9.982  17.488  0.00  0.00    +0.000 NA
ATOM      4  N   UNL     1       1.684  10.302  18.599  0.00  0.00    +0.000 N 
ATOM      5  C   UNL     1       1.400   9.152  19.367  0.00  0.00    +0.000 A 
ATOM      6  N   UNL     1       0.674   9.317  20.516  0.00  0.00    +0.000 N 
ATOM      7  C   UNL     1       0.267  10.571  20.981  0.00  0.00    +0.000 C 
ATOM      8  C   UNL     1      -0.408  10.788  22.096  0.00  0.00    +0.000 C 
ATOM      9  C   UNL     1      -0.964  11.781  22.937  0.00  0.00    +0.000 C 
ATOM     10  C   UNL     1      -1.051  10.248  23.226  0.00  0.00    +0.000 C 
ATOM     11  C   UNL     1       0.634  11.730  20.171  0.00  0.00    +0.000 C 
ATOM     12  C   UNL     1       1.306  11.583  19.012  0.00  0.00    +0.000 C 
ATOM     13  H   UNL     1       0.494   8.558  21.167  0.00  0.00    +0.000 HD
ENDROOT
BRANCH   1  15
ATOM     14  O   UNL     1       1.970   6.325  20.243  0.00  0.00    +0.000 OA
ATOM     15  C   UNL     1       2.215   6.699  19.100  0.00  0.00    +0.000 C 
ATOM     16  N   UNL     1       2.749   5.872  18.126  0.00  0.00    +0.000 N 
ATOM     17  H   UNL     1       3.340   6.328  17.437  0.00  0.00    +0.000 HD
BRANCH  16  18
ATOM     18  C   UNL     1       3.018   4.502  18.399  0.00  0.00    +0.000 A 
ATOM     19  C   UNL     1       2.073   3.503  18.143  0.00  0.00    +0.000 A 
ATOM     20  C   UNL     1       2.361   2.177  18.463  0.00  0.00    +0.000 A 
ATOM     21  C   UNL     1       3.591   1.887  19.032  0.00  0.00    +0.000 A 
ATOM     22  N   UNL     1       4.540   2.815  19.277  0.00  0.00    +0.000 NA
ATOM     23  C   UNL     1       4.232   4.091  18.949  0.00  0.00    +0.000 A 
ATOM     24 CL   UNL     1       5.455   5.227  19.373  0.00  0.00    +0.000 Cl
ENDBRANCH  16  18
ENDBRANCH   1  15
BRANCH  12  25
ATOM     25  C   UNL     1       1.726  12.721  18.154  0.00  0.00    +0.000 C 
ATOM     26  F   UNL     1       0.863  13.765  18.281  0.00  0.00    +0.000 F 
ATOM     27  F   UNL     1       2.942  13.206  18.547  0.00  0.00    +0.000 F 
ENDBRANCH  12  25
TORSDOF 3
ENDMDL
MODEL 5
REMARK VINA RESULT:      -7.8      3.310      7.357
REMARK  Name = 
REMARK  3 active torsions:
REMARK  status: ('A' for Active; 'I' for Inactive)
REMARK    1  A    between atoms: C_2  and  C_11
REMARK    2  A    between atoms: N_3  and  C_4
REMARK    3  A    between atoms: C_22  and  C_23
REMARK                            x       y       z     vdW  Elec       q    Type
REMARK                         _______ _______ _______ _____ _____    ______ ____
ROOT
ATOM      1  C   UNL     1       2.272   6.380  19.457  0.00  0.00    +0.000 A 
ATOM      2  C   UNL     1       1.843   5.542  20.510  0.00  0.00    +0.000 A 
ATOM      3  N   UNL     1       2.260   4.288  20.404  0.00  0.00    +0.000 NA
ATOM      4  N   UNL     1       3.021   4.276  19.280  0.00  0.00    +0.000 N 
ATOM      5  C   UNL     1       3.003   5.535  18.643  0.00  0.00    +0.000 A 
ATOM      6  N   UNL     1       3.718   5.672  17.483  0.00  0.00    +0.000 N 
ATOM      7  C   UNL     1       4.503   4.645  16.952  0.00  0.00    +0.000 C 
ATOM      8  C   UNL     1       5.235   4.734  15.855  0.00  0.00    +0.000 C 
ATOM      9  C   UNL     1       6.145   4.052  15.013  0.00  0.00    +0.000 C 
ATOM     10  C   UNL     1       5.646   5.510  14.754  0.00  0.00    +0.000 C 
ATOM     11  C   UNL     1       4.524   3.379  17.682  0.00  0.00    +0.000 C 
ATOM     12  C   UNL     1       3.788   3.210  18.799  0.00  0.00    +0.000 C 
ATOM     13  H   UNL     1       3.826   6.562  17.005  0.00  0.00    +0.000 HD
ENDROOT
BRANCH   1  15
ATOM     14  O   UNL     1       2.527   8.501  18.556  0.00  0.00    +0.000 OA
ATOM     15  C   UNL     1       1.990   7.801  19.410  0.00  0.00    +0.000 C 
ATOM     16  N   UNL     1       1.181   8.310  20.412  0.00  0.00    +0.000 N 
ATOM     17  H   UNL     1       1.189   7.796  21.288  0.00  0.00    +0.000 HD
BRANCH  16  18
ATOM     18  C   UNL     1       0.899   9.702  20.486  0.00  0.00    +0.000 A 
ATOM     19  C   UNL     1       1.014  10.535  19.369  0.00  0.00    +0.000 A 
ATOM     20  C   UNL     1       0.769  11.902  19.493  0.00  0.00    +0.000 A 
ATOM     21  C   UNL     1       0.412  12.398  20.738  0.00  0.00    +0.000 A 
ATOM     22  N   UNL     1       0.267  11.629  21.837  0.00  0.00    +0.000 NA
ATOM     23  C   UNL     1       0.507  10.306  21.681  0.00  0.00    +0.000 A 
ATOM     24 CL   UNL     1       0.390   9.406  23.145  0.00  0.00    +0.000 Cl
ENDBRANCH  16  18
ENDBRANCH   1  15
BRANCH  12  25
ATOM     25  C   UNL     1       3.780   1.957  19.597  0.00  0.00    +0.000 C 
ATOM     26  F   UNL     1       3.830   0.867  18.784  0.00  0.00    +0.000 F 
ATOM     27  F   UNL     1       4.894   1.873  20.384  0.00  0.00    +0.000 F 
ENDBRANCH  12  25
TORSDOF 3
ENDMDL
MODEL 6
REMARK VINA RESULT:      -7.6      5.462      7.799
REMARK  Name = 
REMARK  3 active torsions:
REMARK  status: ('A' for Active; 'I' for Inactive)
REMARK    1  A    between atoms: C_2  and  C_11
REMARK    2  A    between atoms: N_3  and  C_4
REMARK    3  A    between atoms: C_22  and  C_23
REMARK                            x       y       z     vdW  Elec       q    Type
REMARK                         _______ _______ _______ _____ _____    ______ ____
ROOT
ATOM      1  C   UNL     1       0.981   9.609  19.015  0.00  0.00    +0.000 A 
ATOM      2  C   UNL     1       1.121  10.189  20.296  0.00  0.00    +0.000 A 
ATOM      3  N   UNL     1       0.170  11.061  20.599  0.00  0.00    +0.000 NA
ATOM      4  N   UNL     1      -0.658  11.050  19.523  0.00  0.00    +0.000 N 
ATOM      5  C   UNL     1      -0.157  10.208  18.507  0.00  0.00    +0.000 A 
ATOM      6  N   UNL     1      -0.882  10.106  17.350  0.00  0.00    +0.000 N 
ATOM      7  C   UNL     1      -2.111  10.745  17.168  0.00  0.00    +0.000 C 
ATOM      8  C   UNL     1      -2.863  10.657  16.085  0.00  0.00    +0.000 C 
ATOM      9  C   UNL     1      -4.089  11.044  15.494  0.00  0.00    +0.000 C 
ATOM     10  C   UNL     1      -3.023  10.151  14.781  0.00  0.00    +0.000 C 
ATOM     11  C   UNL     1      -2.604  11.563  18.274  0.00  0.00    +0.000 C 
ATOM     12  C   UNL     1      -1.882  11.715  19.402  0.00  0.00    +0.000 C 
ATOM     13  H   UNL     1      -0.637   9.463  16.603  0.00  0.00    +0.000 HD
ENDROOT
BRANCH   1  15
ATOM     14  O   UNL     1       2.210   8.597  17.331  0.00  0.00    +0.000 OA
ATOM     15  C   UNL     1       1.868   8.580  18.509  0.00  0.00    +0.000 C 
ATOM     16  N   UNL     1       2.211   7.565  19.388  0.00  0.00    +0.000 N 
ATOM     17  H   UNL     1       1.539   7.376  20.125  0.00  0.00    +0.000 HD
BRANCH  16  18
ATOM     18  C   UNL     1       3.025   6.478  18.965  0.00  0.00    +0.000 A 
ATOM     19  C   UNL     1       4.045   6.647  18.024  0.00  0.00    +0.000 A 
ATOM     20  C   UNL     1       4.794   5.548  17.605  0.00  0.00    +0.000 A 
ATOM     21  C   UNL     1       4.498   4.306  18.143  0.00  0.00    +0.000 A 
ATOM     22  N   UNL     1       3.538   4.099  19.068  0.00  0.00    +0.000 NA
ATOM     23  C   UNL     1       2.834   5.187  19.458  0.00  0.00    +0.000 A 
ATOM     24 CL   UNL     1       1.571   4.830  20.571  0.00  0.00    +0.000 Cl
ENDBRANCH  16  18
ENDBRANCH   1  15
BRANCH  12  25
ATOM     25  C   UNL     1      -2.336  12.515  20.569  0.00  0.00    +0.000 C 
ATOM     26  F   UNL     1      -1.982  13.821  20.424  0.00  0.00    +0.000 F 
ATOM     27  F   UNL     1      -3.699  12.517  20.658  0.00  0.00    +0.000 F 
ENDBRANCH  12  25
TORSDOF 3
ENDMDL
MODEL 7
REMARK VINA RESULT:      -7.6      3.273      7.687
REMARK  Name = 
REMARK  3 active torsions:
REMARK  status: ('A' for Active; 'I' for Inactive)
REMARK    1  A    between atoms: C_2  and  C_11
REMARK    2  A    between atoms: N_3  and  C_4
REMARK    3  A    between atoms: C_22  and  C_23
REMARK                            x       y       z     vdW  Elec       q    Type
REMARK                         _______ _______ _______ _____ _____    ______ ____
ROOT
ATOM      1  C   UNL     1       1.904   6.123  20.169  0.00  0.00    +0.000 A 
ATOM      2  C   UNL     1       1.532   5.020  20.971  0.00  0.00    +0.000 A 
ATOM      3  N   UNL     1       2.017   3.860  20.549  0.00  0.00    +0.000 NA
ATOM      4  N   UNL     1       2.766   4.178  19.463  0.00  0.00    +0.000 N 
ATOM      5  C   UNL     1       2.673   5.556  19.169  0.00  0.00    +0.000 A 
ATOM      6  N   UNL     1       3.369   6.024  18.087  0.00  0.00    +0.000 N 
ATOM      7  C   UNL     1       4.204   5.213  17.314  0.00  0.00    +0.000 C 
ATOM      8  C   UNL     1       4.919   5.620  16.280  0.00  0.00    +0.000 C 
ATOM      9  C   UNL     1       5.858   5.228  15.297  0.00  0.00    +0.000 C 
ATOM     10  C   UNL     1       5.277   6.674  15.417  0.00  0.00    +0.000 C 
ATOM     11  C   UNL     1       4.301   3.806  17.697  0.00  0.00    +0.000 C 
ATOM     12  C   UNL     1       3.586   3.316  18.729  0.00  0.00    +0.000 C 
ATOM     13  H   UNL     1       3.422   7.012  17.853  0.00  0.00    +0.000 HD
ENDROOT
BRANCH   1  15
ATOM     14  O   UNL     1       2.367   8.388  20.334  0.00  0.00    +0.000 OA
ATOM     15  C   UNL     1       1.544   7.491  20.486  0.00  0.00    +0.000 C 
ATOM     16  N   UNL     1       0.290   7.693  21.037  0.00  0.00    +0.000 N 
ATOM     17  H   UNL     1      -0.098   6.906  21.549  0.00  0.00    +0.000 HD
BRANCH  16  18
ATOM     18  C   UNL     1      -0.130   8.991  21.439  0.00  0.00    +0.000 A 
ATOM     19  C   UNL     1      -0.292   9.326  22.787  0.00  0.00    +0.000 A 
ATOM     20  C   UNL     1      -0.744  10.597  23.138  0.00  0.00    +0.000 A 
ATOM     21  C   UNL     1      -1.022  11.501  22.125  0.00  0.00    +0.000 A 
ATOM     22  N   UNL     1      -0.860  11.230  20.813  0.00  0.00    +0.000 NA
ATOM     23  C   UNL     1      -0.414   9.989  20.506  0.00  0.00    +0.000 A 
ATOM     24 CL   UNL     1      -0.318   9.689  18.814  0.00  0.00    +0.000 Cl
ENDBRANCH  16  18
ENDBRANCH   1  15
BRANCH  12  25
ATOM     25  C   UNL     1       3.655   1.902  19.180  0.00  0.00    +0.000 C 
ATOM     26  F   UNL     1       3.801   1.063  18.118  0.00  0.00    +0.000 F 
ATOM     27  F   UNL     1       4.757   1.692  19.961  0.00  0.00    +0.000 F 
ENDBRANCH  12  25
TORSDOF 3
ENDMDL
MODEL 8
REMARK VINA RESULT:      -7.6      4.111      7.511
REMARK  Name = 
REMARK  3 active torsions:
REMARK  status: ('A' for Active; 'I' for Inactive)
REMARK    1  A    between atoms: C_2  and  C_11
REMARK    2  A    between atoms: N_3  and  C_4
REMARK    3  A    between atoms: C_22  and  C_23
REMARK                            x       y       z     vdW  Elec       q    Type
REMARK                         _______ _______ _______ _____ _____    ______ ____
ROOT
ATOM      1  C   UNL     1       2.523   7.867  18.487  0.00  0.00    +0.000 A 
ATOM      2  C   UNL     1       3.398   8.146  17.413  0.00  0.00    +0.000 A 
ATOM      3  N   UNL     1       4.233   7.156  17.128  0.00  0.00    +0.000 NA
ATOM      4  N   UNL     1       3.897   6.167  17.995  0.00  0.00    +0.000 N 
ATOM      5  C   UNL     1       2.885   6.593  18.882  0.00  0.00    +0.000 A 
ATOM      6  N   UNL     1       2.451   5.702  19.828  0.00  0.00    +0.000 N 
ATOM      7  C   UNL     1       2.920   4.388  19.903  0.00  0.00    +0.000 C 
ATOM      8  C   UNL     1       2.514   3.482  20.774  0.00  0.00    +0.000 C 
ATOM      9  C   UNL     1       2.644   2.135  21.187  0.00  0.00    +0.000 C 
ATOM     10  C   UNL     1       1.703   3.171  21.883  0.00  0.00    +0.000 C 
ATOM     11  C   UNL     1       3.931   3.988  18.926  0.00  0.00    +0.000 C 
ATOM     12  C   UNL     1       4.406   4.865  18.019  0.00  0.00    +0.000 C 
ATOM     13  H   UNL     1       1.673   5.898  20.451  0.00  0.00    +0.000 HD
ENDROOT
BRANCH   1  15
ATOM     14  O   UNL     1       1.090   8.748  20.082  0.00  0.00    +0.000 OA
ATOM     15  C   UNL     1       1.484   8.780  18.920  0.00  0.00    +0.000 C 
ATOM     16  N   UNL     1       0.922   9.593  17.948  0.00  0.00    +0.000 N 
ATOM     17  H   UNL     1       0.954   9.230  17.000  0.00  0.00    +0.000 HD
BRANCH  16  18
ATOM     18  C   UNL     1      -0.147  10.476  18.264  0.00  0.00    +0.000 A 
ATOM     19  C   UNL     1      -1.482  10.119  18.049  0.00  0.00    +0.000 A 
ATOM     20  C   UNL     1      -2.499  11.030  18.333  0.00  0.00    +0.000 A 
ATOM     21  C   UNL     1      -2.149  12.276  18.828  0.00  0.00    +0.000 A 
ATOM     22  N   UNL     1      -0.877  12.655  19.072  0.00  0.00    +0.000 NA
ATOM     23  C   UNL     1       0.086  11.747  18.791  0.00  0.00    +0.000 A 
ATOM     24 CL   UNL     1       1.685  12.334  19.043  0.00  0.00    +0.000 Cl
ENDBRANCH  16  18
ENDBRANCH   1  15
BRANCH  12  25
ATOM     25  C   UNL     1       5.417   4.515  16.988  0.00  0.00    +0.000 C 
ATOM     26  F   UNL     1       6.637   4.315  17.556  0.00  0.00    +0.000 F 
ATOM     27  F   UNL     1       5.103   3.334  16.377  0.00  0.00    +0.000 F 
ENDBRANCH  12  25
TORSDOF 3
ENDMDL
MODEL 9
REMARK VINA RESULT:      -7.5      4.897      6.835
REMARK  Name = 
REMARK  3 active torsions:
REMARK  status: ('A' for Active; 'I' for Inactive)
REMARK    1  A    between atoms: C_2  and  C_11
REMARK    2  A    between atoms: N_3  and  C_4
REMARK    3  A    between atoms: C_22  and  C_23
REMARK                            x       y       z     vdW  Elec       q    Type
REMARK                         _______ _______ _______ _____ _____    ______ ____
ROOT
ATOM      1  C   UNL     1       2.305   7.891  18.602  0.00  0.00    +0.000 A 
ATOM      2  C   UNL     1       2.728   8.591  17.449  0.00  0.00    +0.000 A 
ATOM      3  N   UNL     1       2.328   9.854  17.409  0.00  0.00    +0.000 NA
ATOM      4  N   UNL     1       1.651  10.034  18.572  0.00  0.00    +0.000 N 
ATOM      5  C   UNL     1       1.571   8.830  19.304  0.00  0.00    +0.000 A 
ATOM      6  N   UNL     1       0.902   8.854  20.498  0.00  0.00    +0.000 N 
ATOM      7  C   UNL     1       0.362  10.023  21.040  0.00  0.00    +0.000 C 
ATOM      8  C   UNL     1      -0.266  10.107  22.200  0.00  0.00    +0.000 C 
ATOM      9  C   UNL     1      -0.895  10.985  23.114  0.00  0.00    +0.000 C 
ATOM     10  C   UNL     1      -0.759   9.445  23.341  0.00  0.00    +0.000 C 
ATOM     11  C   UNL     1       0.520  11.250  20.262  0.00  0.00    +0.000 C 
ATOM     12  C   UNL     1       1.132  11.237  19.061  0.00  0.00    +0.000 C 
ATOM     13  H   UNL     1       0.866   8.055  21.125  0.00  0.00    +0.000 HD
ENDROOT
BRANCH   1  15
ATOM     14  O   UNL     1       3.533   6.290  19.742  0.00  0.00    +0.000 OA
ATOM     15  C   UNL     1       2.687   6.522  18.884  0.00  0.00    +0.000 C 
ATOM     16  N   UNL     1       2.125   5.540  18.084  0.00  0.00    +0.000 N 
ATOM     17  H   UNL     1       1.848   5.837  17.153  0.00  0.00    +0.000 HD
BRANCH  16  18
ATOM     18  C   UNL     1       2.487   4.174  18.242  0.00  0.00    +0.000 A 
ATOM     19  C   UNL     1       3.416   3.558  17.397  0.00  0.00    +0.000 A 
ATOM     20  C   UNL     1       3.713   2.205  17.560  0.00  0.00    +0.000 A 
ATOM     21  C   UNL     1       3.070   1.506  18.569  0.00  0.00    +0.000 A 
ATOM     22  N   UNL     1       2.184   2.063  19.421  0.00  0.00    +0.000 NA
ATOM     23  C   UNL     1       1.923   3.379  19.240  0.00  0.00    +0.000 A 
ATOM     24 CL   UNL     1       0.719   3.996  20.305  0.00  0.00    +0.000 Cl
ENDBRANCH  16  18
ENDBRANCH   1  15
BRANCH  12  25
ATOM     25  C   UNL     1       1.342  12.452  18.231  0.00  0.00    +0.000 C 
ATOM     26  F   UNL     1       0.463  13.431  18.578  0.00  0.00    +0.000 F 
ATOM     27  F   UNL     1       2.581  12.983  18.450  0.00  0.00    +0.000 F 
ENDBRANCH  12  25
TORSDOF 3
ENDMDL
