MODEL 1
REMARK VINA RESULT:      -8.4      0.000      0.000
REMARK  Name = 
REMARK  5 active torsions:
REMARK  status: ('A' for Active; 'I' for Inactive)
REMARK    1  A    between atoms: C_1  and  C_2
REMARK    2  A    between atoms: C_6  and  N_7
REMARK    3  A    between atoms: N_10  and  C_11
REMARK    4  A    between atoms: C_14  and  N_15
REMARK    5  A    between atoms: C_16  and  C_18
REMARK                            x       y       z     vdW  Elec       q    Type
REMARK                         _______ _______ _______ _____ _____    ______ ____
ROOT
ATOM      1  C   UNL     1       7.050   6.220  18.071  0.00  0.00    +0.000 A 
ATOM      2  C   UNL     1       8.063   6.533  18.974  0.00  0.00    +0.000 A 
ATOM      3  C   UNL     1       8.650   7.801  18.973  0.00  0.00    +0.000 A 
ATOM      4  C   UNL     1       8.249   8.783  18.066  0.00  0.00    +0.000 A 
ATOM      5  C   UNL     1       7.207   8.477  17.179  0.00  0.00    +0.000 A 
ATOM      6  C   UNL     1       6.635   7.191  17.158  0.00  0.00    +0.000 A 
ENDROOT
BRANCH   1  10
ATOM      7  N   UNL     1       4.769   3.442  18.606  0.00  0.00    +0.000 N 
ATOM      8  C   UNL     1       5.184   4.765  18.663  0.00  0.00    +0.000 C 
ATOM      9  O   UNL     1       4.524   5.678  19.146  0.00  0.00    +0.000 OA
ATOM     10  N   UNL     1       6.431   4.947  18.079  0.00  0.00    +0.000 N 
ATOM     11  H   UNL     1       5.507   2.753  18.627  0.00  0.00    +0.000 HD
ATOM     12  H   UNL     1       6.618   4.340  17.294  0.00  0.00    +0.000 HD
BRANCH   7  18
ATOM     13  C   UNL     1       1.384   2.485  22.091  0.00  0.00    +0.000 C 
ATOM     14  C   UNL     1       1.792   2.528  20.648  0.00  0.00    +0.000 A 
ATOM     15  C   UNL     1       0.868   2.198  19.650  0.00  0.00    +0.000 A 
ATOM     16  C   UNL     1       1.240   2.247  18.311  0.00  0.00    +0.000 A 
ATOM     17  C   UNL     1       2.527   2.644  17.958  0.00  0.00    +0.000 A 
ATOM     18  C   UNL     1       3.460   3.007  18.935  0.00  0.00    +0.000 A 
ATOM     19  C   UNL     1       3.094   2.914  20.283  0.00  0.00    +0.000 A 
ENDBRANCH   7  18
ENDBRANCH   1  10
BRANCH   4  20
ATOM     20  N   UNL     1       8.857  10.064  17.995  0.00  0.00    +0.000 N 
ATOM     21  C   UNL     1       9.439  10.722  19.068  0.00  0.00    +0.000 C 
ATOM     22  O   UNL     1       9.494  10.273  20.211  0.00  0.00    +0.000 OA
ATOM     23  H   UNL     1       9.009  10.445  17.071  0.00  0.00    +0.000 HD
BRANCH  21  24
ATOM     24  C   UNL     1      10.067  12.017  18.787  0.00  0.00    +0.000 A 
ATOM     25  C   UNL     1      10.894  12.278  17.708  0.00  0.00    +0.000 A 
ATOM     26  S   UNL     1      11.302  13.934  17.575  0.00  0.00    +0.000 S 
ATOM     27  C   UNL     1      10.396  14.333  18.959  0.00  0.00    +0.000 A 
ATOM     28  N   UNL     1      10.310  15.611  19.366  0.00  0.00    +0.000 NA
ATOM     29  C   UNL     1       9.571  15.742  20.470  0.00  0.00    +0.000 A 
ATOM     30  N   UNL     1       8.976  14.770  21.174  0.00  0.00    +0.000 NA
ATOM     31  C   UNL     1       9.092  13.501  20.743  0.00  0.00    +0.000 A 
ATOM     32  N   UNL     1       8.488  12.535  21.536  0.00  0.00    +0.000 N 
ATOM     33  C   UNL     1       9.808  13.230  19.557  0.00  0.00    +0.000 A 
ATOM     34  H   UNL     1       7.791  12.949  22.141  0.00  0.00    +0.000 HD
ATOM     35  H   UNL     1       8.168  11.715  21.013  0.00  0.00    +0.000 HD
ENDBRANCH  21  24
ENDBRANCH   4  20
TORSDOF 4
ENDMDL
MODEL 2
REMARK VINA RESULT:      -8.3     10.124     11.279
REMARK  Name = 
REMARK  5 active torsions:
REMARK  status: ('A' for Active; 'I' for Inactive)
REMARK    1  A    between atoms: C_1  and  C_2
REMARK    2  A    between atoms: C_6  and  N_7
REMARK    3  A    between atoms: N_10  and  C_11
REMARK    4  A    between atoms: C_14  and  N_15
REMARK    5  A    between atoms: C_16  and  C_18
REMARK                            x       y       z     vdW  Elec       q    Type
REMARK                         _______ _______ _______ _____ _____    ______ ____
ROOT
ATOM      1  C   UNL     1       0.778   9.677  21.873  0.00  0.00    +0.000 A 
ATOM      2  C   UNL     1      -0.013   9.582  23.016  0.00  0.00    +0.000 A 
ATOM      3  C   UNL     1      -0.885  10.615  23.365  0.00  0.00    +0.000 A 
ATOM      4  C   UNL     1      -0.985  11.771  22.589  0.00  0.00    +0.000 A 
ATOM      5  C   UNL     1      -0.213  11.851  21.422  0.00  0.00    +0.000 A 
ATOM      6  C   UNL     1       0.691  10.825  21.085  0.00  0.00    +0.000 A 
ENDROOT
BRANCH   1  10
ATOM      7  N   UNL     1       2.154   6.495  20.784  0.00  0.00    +0.000 N 
ATOM      8  C   UNL     1       1.145   7.405  21.065  0.00  0.00    +0.000 C 
ATOM      9  O   UNL     1      -0.052   7.178  20.926  0.00  0.00    +0.000 OA
ATOM     10  N   UNL     1       1.648   8.625  21.497  0.00  0.00    +0.000 N 
ATOM     11  H   UNL     1       2.995   6.595  21.333  0.00  0.00    +0.000 HD
ATOM     12  H   UNL     1       2.530   8.885  21.080  0.00  0.00    +0.000 HD
BRANCH   7  18
ATOM     13  C   UNL     1       2.932   3.601  16.841  0.00  0.00    +0.000 C 
ATOM     14  C   UNL     1       2.317   3.827  18.191  0.00  0.00    +0.000 A 
ATOM     15  C   UNL     1       1.599   2.798  18.813  0.00  0.00    +0.000 A 
ATOM     16  C   UNL     1       1.038   3.000  20.069  0.00  0.00    +0.000 A 
ATOM     17  C   UNL     1       1.205   4.219  20.720  0.00  0.00    +0.000 A 
ATOM     18  C   UNL     1       1.942   5.253  20.133  0.00  0.00    +0.000 A 
ATOM     19  C   UNL     1       2.469   5.059  18.851  0.00  0.00    +0.000 A 
ENDBRANCH   7  18
ENDBRANCH   1  10
BRANCH   4  20
ATOM     20  N   UNL     1      -1.817  12.867  22.938  0.00  0.00    +0.000 N 
ATOM     21  C   UNL     1      -3.052  12.753  23.562  0.00  0.00    +0.000 C 
ATOM     22  O   UNL     1      -3.571  11.687  23.883  0.00  0.00    +0.000 OA
ATOM     23  H   UNL     1      -1.410  13.789  22.865  0.00  0.00    +0.000 HD
BRANCH  21  24
ATOM     24  C   UNL     1      -3.742  14.004  23.892  0.00  0.00    +0.000 A 
ATOM     25  C   UNL     1      -3.203  15.029  24.652  0.00  0.00    +0.000 A 
ATOM     26  S   UNL     1      -4.200  16.418  24.688  0.00  0.00    +0.000 S 
ATOM     27  C   UNL     1      -5.374  15.678  23.703  0.00  0.00    +0.000 A 
ATOM     28  N   UNL     1      -6.474  16.357  23.334  0.00  0.00    +0.000 NA
ATOM     29  C   UNL     1      -7.290  15.624  22.575  0.00  0.00    +0.000 A 
ATOM     30  N   UNL     1      -7.131  14.348  22.201  0.00  0.00    +0.000 NA
ATOM     31  C   UNL     1      -6.023  13.696  22.596  0.00  0.00    +0.000 A 
ATOM     32  N   UNL     1      -5.933  12.365  22.212  0.00  0.00    +0.000 N 
ATOM     33  C   UNL     1      -5.052  14.373  23.366  0.00  0.00    +0.000 A 
ATOM     34  H   UNL     1      -6.552  12.172  21.435  0.00  0.00    +0.000 HD
ATOM     35  H   UNL     1      -4.972  12.037  22.085  0.00  0.00    +0.000 HD
ENDBRANCH  21  24
ENDBRANCH   4  20
TORSDOF 4
ENDMDL
MODEL 3
REMARK VINA RESULT:      -8.2      8.785     11.396
REMARK  Name = 
REMARK  5 active torsions:
REMARK  status: ('A' for Active; 'I' for Inactive)
REMARK    1  A    between atoms: C_1  and  C_2
REMARK    2  A    between atoms: C_6  and  N_7
REMARK    3  A    between atoms: N_10  and  C_11
REMARK    4  A    between atoms: C_14  and  N_15
REMARK    5  A    between atoms: C_16  and  C_18
REMARK                            x       y       z     vdW  Elec       q    Type
REMARK                         _______ _______ _______ _____ _____    ______ ____
ROOT
ATOM      1  C   UNL     1      -0.824  11.848  18.747  0.00  0.00    +0.000 A 
ATOM      2  C   UNL     1       0.547  12.006  18.931  0.00  0.00    +0.000 A 
ATOM      3  C   UNL     1       1.431  10.970  18.621  0.00  0.00    +0.000 A 
ATOM      4  C   UNL     1       0.968   9.748  18.129  0.00  0.00    +0.000 A 
ATOM      5  C   UNL     1      -0.409   9.601  17.914  0.00  0.00    +0.000 A 
ATOM      6  C   UNL     1      -1.304  10.633  18.255  0.00  0.00    +0.000 A 
ENDROOT
BRANCH   1  10
ATOM      7  N   UNL     1      -3.167  14.100  20.373  0.00  0.00    +0.000 N 
ATOM      8  C   UNL     1      -2.279  13.036  20.303  0.00  0.00    +0.000 C 
ATOM      9  O   UNL     1      -1.989  12.312  21.249  0.00  0.00    +0.000 OA
ATOM     10  N   UNL     1      -1.726  12.900  19.036  0.00  0.00    +0.000 N 
ATOM     11  H   UNL     1      -3.660  14.313  19.517  0.00  0.00    +0.000 HD
ATOM     12  H   UNL     1      -1.590  13.771  18.543  0.00  0.00    +0.000 HD
BRANCH   7  18
ATOM     13  C   UNL     1      -6.785  13.946  23.750  0.00  0.00    +0.000 C 
ATOM     14  C   UNL     1      -5.498  14.529  23.245  0.00  0.00    +0.000 A 
ATOM     15  C   UNL     1      -4.830  15.505  23.995  0.00  0.00    +0.000 A 
ATOM     16  C   UNL     1      -3.632  16.039  23.534  0.00  0.00    +0.000 A 
ATOM     17  C   UNL     1      -3.083  15.591  22.336  0.00  0.00    +0.000 A 
ATOM     18  C   UNL     1      -3.716  14.597  21.583  0.00  0.00    +0.000 A 
ATOM     19  C   UNL     1      -4.943  14.093  22.029  0.00  0.00    +0.000 A 
ENDBRANCH   7  18
ENDBRANCH   1  10
BRANCH   4  20
ATOM     20  N   UNL     1       1.827   8.651  17.854  0.00  0.00    +0.000 N 
ATOM     21  C   UNL     1       2.343   7.793  18.813  0.00  0.00    +0.000 C 
ATOM     22  O   UNL     1       2.118   7.882  20.018  0.00  0.00    +0.000 OA
ATOM     23  H   UNL     1       1.940   8.394  16.883  0.00  0.00    +0.000 HD
BRANCH  21  24
ATOM     24  C   UNL     1       3.171   6.683  18.329  0.00  0.00    +0.000 A 
ATOM     25  C   UNL     1       4.113   6.780  17.320  0.00  0.00    +0.000 A 
ATOM     26  S   UNL     1       5.029   5.348  17.133  0.00  0.00    +0.000 S 
ATOM     27  C   UNL     1       4.181   4.566  18.384  0.00  0.00    +0.000 A 
ATOM     28  N   UNL     1       4.507   3.313  18.744  0.00  0.00    +0.000 NA
ATOM     29  C   UNL     1       3.735   2.853  19.730  0.00  0.00    +0.000 A 
ATOM     30  N   UNL     1       2.714   3.479  20.327  0.00  0.00    +0.000 NA
ATOM     31  C   UNL     1       2.407   4.729  19.935  0.00  0.00    +0.000 A 
ATOM     32  N   UNL     1       1.314   5.310  20.562  0.00  0.00    +0.000 N 
ATOM     33  C   UNL     1       3.179   5.353  18.931  0.00  0.00    +0.000 A 
ATOM     34  H   UNL     1       1.105   4.839  21.433  0.00  0.00    +0.000 HD
ATOM     35  H   UNL     1       1.373   6.330  20.630  0.00  0.00    +0.000 HD
ENDBRANCH  21  24
ENDBRANCH   4  20
TORSDOF 4
ENDMDL
MODEL 4
REMARK VINA RESULT:      -8.1      9.720     10.764
REMARK  Name = 
REMARK  5 active torsions:
REMARK  status: ('A' for Active; 'I' for Inactive)
REMARK    1  A    between atoms: C_1  and  C_2
REMARK    2  A    between atoms: C_6  and  N_7
REMARK    3  A    between atoms: N_10  and  C_11
REMARK    4  A    between atoms: C_14  and  N_15
REMARK    5  A    between atoms: C_16  and  C_18
REMARK                            x       y       z     vdW  Elec       q    Type
REMARK                         _______ _______ _______ _____ _____    ______ ____
ROOT
ATOM      1  C   UNL     1       0.615  10.606  18.899  0.00  0.00    +0.000 A 
ATOM      2  C   UNL     1      -0.778  10.606  18.880  0.00  0.00    +0.000 A 
ATOM      3  C   UNL     1      -1.501  11.479  19.697  0.00  0.00    +0.000 A 
ATOM      4  C   UNL     1      -0.853  12.366  20.558  0.00  0.00    +0.000 A 
ATOM      5  C   UNL     1       0.549  12.388  20.553  0.00  0.00    +0.000 A 
ATOM      6  C   UNL     1       1.279  11.488  19.753  0.00  0.00    +0.000 A 
ENDROOT
BRANCH   1  10
ATOM      7  N   UNL     1       2.655   7.899  17.592  0.00  0.00    +0.000 N 
ATOM      8  C   UNL     1       1.938   8.586  18.561  0.00  0.00    +0.000 C 
ATOM      9  O   UNL     1       1.806   8.211  19.721  0.00  0.00    +0.000 OA
ATOM     10  N   UNL     1       1.357   9.742  18.058  0.00  0.00    +0.000 N 
ATOM     11  H   UNL     1       3.071   8.470  16.870  0.00  0.00    +0.000 HD
ATOM     12  H   UNL     1       1.066   9.679  17.093  0.00  0.00    +0.000 HD
BRANCH   7  18
ATOM     13  C   UNL     1       1.805   3.056  18.184  0.00  0.00    +0.000 C 
ATOM     14  C   UNL     1       2.761   4.206  18.067  0.00  0.00    +0.000 A 
ATOM     15  C   UNL     1       4.142   3.972  18.073  0.00  0.00    +0.000 A 
ATOM     16  C   UNL     1       5.030   5.035  17.954  0.00  0.00    +0.000 A 
ATOM     17  C   UNL     1       4.549   6.333  17.807  0.00  0.00    +0.000 A 
ATOM     18  C   UNL     1       3.175   6.591  17.768  0.00  0.00    +0.000 A 
ATOM     19  C   UNL     1       2.285   5.523  17.932  0.00  0.00    +0.000 A 
ENDBRANCH   7  18
ENDBRANCH   1  10
BRANCH   4  20
ATOM     20  N   UNL     1      -1.550  13.230  21.444  0.00  0.00    +0.000 N 
ATOM     21  C   UNL     1      -2.121  12.835  22.645  0.00  0.00    +0.000 C 
ATOM     22  O   UNL     1      -2.092  11.688  23.084  0.00  0.00    +0.000 OA
ATOM     23  H   UNL     1      -1.488  14.221  21.255  0.00  0.00    +0.000 HD
BRANCH  21  24
ATOM     24  C   UNL     1      -2.753  13.884  23.451  0.00  0.00    +0.000 A 
ATOM     25  C   UNL     1      -2.074  14.778  24.262  0.00  0.00    +0.000 A 
ATOM     26  S   UNL     1      -3.095  15.985  24.914  0.00  0.00    +0.000 S 
ATOM     27  C   UNL     1      -4.463  15.335  24.139  0.00  0.00    +0.000 A 
ATOM     28  N   UNL     1      -5.661  15.931  24.267  0.00  0.00    +0.000 NA
ATOM     29  C   UNL     1      -6.622  15.284  23.605  0.00  0.00    +0.000 A 
ATOM     30  N   UNL     1      -6.506  14.152  22.898  0.00  0.00    +0.000 NA
ATOM     31  C   UNL     1      -5.295  13.577  22.799  0.00  0.00    +0.000 A 
ATOM     32  N   UNL     1      -5.245  12.385  22.089  0.00  0.00    +0.000 N 
ATOM     33  C   UNL     1      -4.181  14.188  23.415  0.00  0.00    +0.000 A 
ATOM     34  H   UNL     1      -6.055  12.289  21.490  0.00  0.00    +0.000 HD
ATOM     35  H   UNL     1      -4.348  12.219  21.626  0.00  0.00    +0.000 HD
ENDBRANCH  21  24
ENDBRANCH   4  20
TORSDOF 4
ENDMDL
MODEL 5
REMARK VINA RESULT:      -8.1      9.590     10.716
REMARK  Name = 
REMARK  5 active torsions:
REMARK  status: ('A' for Active; 'I' for Inactive)
REMARK    1  A    between atoms: C_1  and  C_2
REMARK    2  A    between atoms: C_6  and  N_7
REMARK    3  A    between atoms: N_10  and  C_11
REMARK    4  A    between atoms: C_14  and  N_15
REMARK    5  A    between atoms: C_16  and  C_18
REMARK                            x       y       z     vdW  Elec       q    Type
REMARK                         _______ _______ _______ _____ _____    ______ ____
ROOT
ATOM      1  C   UNL     1       0.898   9.285  21.561  0.00  0.00    +0.000 A 
ATOM      2  C   UNL     1       0.922  10.361  20.677  0.00  0.00    +0.000 A 
ATOM      3  C   UNL     1       0.041  11.434  20.837  0.00  0.00    +0.000 A 
ATOM      4  C   UNL     1      -0.890  11.456  21.877  0.00  0.00    +0.000 A 
ATOM      5  C   UNL     1      -0.891  10.388  22.785  0.00  0.00    +0.000 A 
ATOM      6  C   UNL     1      -0.027   9.291  22.607  0.00  0.00    +0.000 A 
ENDROOT
BRANCH   1  10
ATOM      7  N   UNL     1       2.809   6.465  20.300  0.00  0.00    +0.000 N 
ATOM      8  C   UNL     1       1.901   7.511  20.223  0.00  0.00    +0.000 C 
ATOM      9  O   UNL     1       1.275   7.813  19.212  0.00  0.00    +0.000 OA
ATOM     10  N   UNL     1       1.802   8.205  21.422  0.00  0.00    +0.000 N 
ATOM     11  H   UNL     1       2.902   6.035  21.209  0.00  0.00    +0.000 HD
ATOM     12  H   UNL     1       2.661   8.253  21.950  0.00  0.00    +0.000 HD
BRANCH   7  18
ATOM     13  C   UNL     1       2.630   2.294  17.637  0.00  0.00    +0.000 C 
ATOM     14  C   UNL     1       3.182   3.669  17.868  0.00  0.00    +0.000 A 
ATOM     15  C   UNL     1       4.085   4.223  16.952  0.00  0.00    +0.000 A 
ATOM     16  C   UNL     1       4.590   5.502  17.158  0.00  0.00    +0.000 A 
ATOM     17  C   UNL     1       4.184   6.243  18.264  0.00  0.00    +0.000 A 
ATOM     18  C   UNL     1       3.262   5.724  19.178  0.00  0.00    +0.000 A 
ATOM     19  C   UNL     1       2.789   4.420  18.990  0.00  0.00    +0.000 A 
ENDBRANCH   7  18
ENDBRANCH   1  10
BRANCH   4  20
ATOM     20  N   UNL     1      -1.838  12.500  22.042  0.00  0.00    +0.000 N 
ATOM     21  C   UNL     1      -1.733  13.522  22.974  0.00  0.00    +0.000 C 
ATOM     22  O   UNL     1      -0.804  13.643  23.769  0.00  0.00    +0.000 OA
ATOM     23  H   UNL     1      -2.552  12.582  21.331  0.00  0.00    +0.000 HD
BRANCH  21  24
ATOM     24  C   UNL     1      -2.787  14.541  22.958  0.00  0.00    +0.000 A 
ATOM     25  C   UNL     1      -2.636  15.829  22.471  0.00  0.00    +0.000 A 
ATOM     26  S   UNL     1      -4.110  16.695  22.430  0.00  0.00    +0.000 S 
ATOM     27  C   UNL     1      -4.976  15.378  23.070  0.00  0.00    +0.000 A 
ATOM     28  N   UNL     1      -6.305  15.464  23.251  0.00  0.00    +0.000 NA
ATOM     29  C   UNL     1      -6.818  14.348  23.771  0.00  0.00    +0.000 A 
ATOM     30  N   UNL     1      -6.162  13.237  24.130  0.00  0.00    +0.000 NA
ATOM     31  C   UNL     1      -4.831  13.189  23.944  0.00  0.00    +0.000 A 
ATOM     32  N   UNL     1      -4.201  12.029  24.373  0.00  0.00    +0.000 N 
ATOM     33  C   UNL     1      -4.169  14.288  23.356  0.00  0.00    +0.000 A 
ATOM     34  H   UNL     1      -4.865  11.272  24.470  0.00  0.00    +0.000 HD
ATOM     35  H   UNL     1      -3.361  11.794  23.837  0.00  0.00    +0.000 HD
ENDBRANCH  21  24
ENDBRANCH   4  20
TORSDOF 4
ENDMDL
MODEL 6
REMARK VINA RESULT:      -8.1      9.159     10.344
REMARK  Name = 
REMARK  5 active torsions:
REMARK  status: ('A' for Active; 'I' for Inactive)
REMARK    1  A    between atoms: C_1  and  C_2
REMARK    2  A    between atoms: C_6  and  N_7
REMARK    3  A    between atoms: N_10  and  C_11
REMARK    4  A    between atoms: C_14  and  N_15
REMARK    5  A    between atoms: C_16  and  C_18
REMARK                            x       y       z     vdW  Elec       q    Type
REMARK                         _______ _______ _______ _____ _____    ______ ____
ROOT
ATOM      1  C   UNL     1       0.980   8.677  21.273  0.00  0.00    +0.000 A 
ATOM      2  C   UNL     1       0.896   9.576  20.213  0.00  0.00    +0.000 A 
ATOM      3  C   UNL     1       0.094  10.716  20.309  0.00  0.00    +0.000 A 
ATOM      4  C   UNL     1      -0.650  10.982  21.461  0.00  0.00    +0.000 A 
ATOM      5  C   UNL     1      -0.538  10.094  22.538  0.00  0.00    +0.000 A 
ATOM      6  C   UNL     1       0.244   8.928  22.432  0.00  0.00    +0.000 A 
ENDROOT
BRANCH   1  10
ATOM      7  N   UNL     1       3.038   5.922  20.100  0.00  0.00    +0.000 N 
ATOM      8  C   UNL     1       2.280   7.077  19.970  0.00  0.00    +0.000 C 
ATOM      9  O   UNL     1       2.068   7.651  18.908  0.00  0.00    +0.000 OA
ATOM     10  N   UNL     1       1.808   7.531  21.195  0.00  0.00    +0.000 N 
ATOM     11  H   UNL     1       2.779   5.315  20.864  0.00  0.00    +0.000 HD
ATOM     12  H   UNL     1       2.428   7.359  21.972  0.00  0.00    +0.000 HD
BRANCH   7  18
ATOM     13  C   UNL     1       7.496   5.075  18.118  0.00  0.00    +0.000 C 
ATOM     14  C   UNL     1       6.003   4.945  18.069  0.00  0.00    +0.000 A 
ATOM     15  C   UNL     1       5.397   4.225  17.032  0.00  0.00    +0.000 A 
ATOM     16  C   UNL     1       4.014   4.093  16.989  0.00  0.00    +0.000 A 
ATOM     17  C   UNL     1       3.228   4.659  17.989  0.00  0.00    +0.000 A 
ATOM     18  C   UNL     1       3.810   5.358  19.052  0.00  0.00    +0.000 A 
ATOM     19  C   UNL     1       5.199   5.525  19.067  0.00  0.00    +0.000 A 
ENDBRANCH   7  18
ENDBRANCH   1  10
BRANCH   4  20
ATOM     20  N   UNL     1      -1.519  12.099  21.578  0.00  0.00    +0.000 N 
ATOM     21  C   UNL     1      -1.351  13.138  22.481  0.00  0.00    +0.000 C 
ATOM     22  O   UNL     1      -0.429  13.213  23.290  0.00  0.00    +0.000 OA
ATOM     23  H   UNL     1      -2.212  12.214  20.851  0.00  0.00    +0.000 HD
BRANCH  21  24
ATOM     24  C   UNL     1      -2.325  14.233  22.416  0.00  0.00    +0.000 A 
ATOM     25  C   UNL     1      -2.104  15.453  21.799  0.00  0.00    +0.000 A 
ATOM     26  S   UNL     1      -3.508  16.428  21.743  0.00  0.00    +0.000 S 
ATOM     27  C   UNL     1      -4.434  15.251  22.550  0.00  0.00    +0.000 A 
ATOM     28  N   UNL     1      -5.741  15.461  22.786  0.00  0.00    +0.000 NA
ATOM     29  C   UNL     1      -6.308  14.443  23.436  0.00  0.00    +0.000 A 
ATOM     30  N   UNL     1      -5.719  13.322  23.870  0.00  0.00    +0.000 NA
ATOM     31  C   UNL     1      -4.407  13.149  23.627  0.00  0.00    +0.000 A 
ATOM     32  N   UNL     1      -3.844  11.987  24.137  0.00  0.00    +0.000 N 
ATOM     33  C   UNL     1      -3.697  14.131  22.903  0.00  0.00    +0.000 A 
ATOM     34  H   UNL     1      -4.558  11.299  24.339  0.00  0.00    +0.000 HD
ATOM     35  H   UNL     1      -3.055  11.636  23.586  0.00  0.00    +0.000 HD
ENDBRANCH  21  24
ENDBRANCH   4  20
TORSDOF 4
ENDMDL
MODEL 7
REMARK VINA RESULT:      -8.1      9.828     10.895
REMARK  Name = 
REMARK  5 active torsions:
REMARK  status: ('A' for Active; 'I' for Inactive)
REMARK    1  A    between atoms: C_1  and  C_2
REMARK    2  A    between atoms: C_6  and  N_7
REMARK    3  A    between atoms: N_10  and  C_11
REMARK    4  A    between atoms: C_14  and  N_15
REMARK    5  A    between atoms: C_16  and  C_18
REMARK                            x       y       z     vdW  Elec       q    Type
REMARK                         _______ _______ _______ _____ _____    ______ ____
ROOT
ATOM      1  C   UNL     1       0.642   9.487  21.638  0.00  0.00    +0.000 A 
ATOM      2  C   UNL     1       0.012   9.616  22.873  0.00  0.00    +0.000 A 
ATOM      3  C   UNL     1      -0.924  10.630  23.092  0.00  0.00    +0.000 A 
ATOM      4  C   UNL     1      -1.246  11.546  22.089  0.00  0.00    +0.000 A 
ATOM      5  C   UNL     1      -0.635  11.395  20.836  0.00  0.00    +0.000 A 
ATOM      6  C   UNL     1       0.331  10.394  20.623  0.00  0.00    +0.000 A 
ENDROOT
BRANCH   1  10
ATOM      7  N   UNL     1       2.204   6.287  20.916  0.00  0.00    +0.000 N 
ATOM      8  C   UNL     1       1.144   7.169  21.070  0.00  0.00    +0.000 C 
ATOM      9  O   UNL     1      -0.034   6.871  20.913  0.00  0.00    +0.000 OA
ATOM     10  N   UNL     1       1.574   8.449  21.398  0.00  0.00    +0.000 N 
ATOM     11  H   UNL     1       3.018   6.481  21.482  0.00  0.00    +0.000 HD
ATOM     12  H   UNL     1       2.459   8.711  20.989  0.00  0.00    +0.000 HD
BRANCH   7  18
ATOM     13  C   UNL     1       2.684   3.231  17.049  0.00  0.00    +0.000 C 
ATOM     14  C   UNL     1       2.304   3.471  18.481  0.00  0.00    +0.000 A 
ATOM     15  C   UNL     1       1.888   2.402  19.283  0.00  0.00    +0.000 A 
ATOM     16  C   UNL     1       1.546   2.621  20.613  0.00  0.00    +0.000 A 
ATOM     17  C   UNL     1       1.636   3.899  21.156  0.00  0.00    +0.000 A 
ATOM     18  C   UNL     1       2.076   4.979  20.383  0.00  0.00    +0.000 A 
ATOM     19  C   UNL     1       2.378   4.762  19.034  0.00  0.00    +0.000 A 
ENDBRANCH   7  18
ENDBRANCH   1  10
BRANCH   4  20
ATOM     20  N   UNL     1      -2.149  12.623  22.287  0.00  0.00    +0.000 N 
ATOM     21  C   UNL     1      -1.959  13.655  23.195  0.00  0.00    +0.000 C 
ATOM     22  O   UNL     1      -0.985  13.757  23.937  0.00  0.00    +0.000 OA
ATOM     23  H   UNL     1      -2.897  12.720  21.615  0.00  0.00    +0.000 HD
BRANCH  21  24
ATOM     24  C   UNL     1      -2.978  14.709  23.219  0.00  0.00    +0.000 A 
ATOM     25  C   UNL     1      -2.761  16.028  22.855  0.00  0.00    +0.000 A 
ATOM     26  S   UNL     1      -4.203  16.948  22.821  0.00  0.00    +0.000 S 
ATOM     27  C   UNL     1      -5.142  15.612  23.300  0.00  0.00    +0.000 A 
ATOM     28  N   UNL     1      -6.475  15.730  23.426  0.00  0.00    +0.000 NA
ATOM     29  C   UNL     1      -7.049  14.592  23.820  0.00  0.00    +0.000 A 
ATOM     30  N   UNL     1      -6.448  13.432  24.110  0.00  0.00    +0.000 NA
ATOM     31  C   UNL     1      -5.111  13.351  23.984  0.00  0.00    +0.000 A 
ATOM     32  N   UNL     1      -4.540  12.137  24.339  0.00  0.00    +0.000 N 
ATOM     33  C   UNL     1      -4.385  14.473  23.528  0.00  0.00    +0.000 A 
ATOM     34  H   UNL     1      -5.233  11.399  24.337  0.00  0.00    +0.000 HD
ATOM     35  H   UNL     1      -3.683  11.919  23.824  0.00  0.00    +0.000 HD
ENDBRANCH  21  24
ENDBRANCH   4  20
TORSDOF 4
ENDMDL
MODEL 8
REMARK VINA RESULT:      -8.1      8.819     11.863
REMARK  Name = 
REMARK  5 active torsions:
REMARK  status: ('A' for Active; 'I' for Inactive)
REMARK    1  A    between atoms: C_1  and  C_2
REMARK    2  A    between atoms: C_6  and  N_7
REMARK    3  A    between atoms: N_10  and  C_11
REMARK    4  A    between atoms: C_14  and  N_15
REMARK    5  A    between atoms: C_16  and  C_18
REMARK                            x       y       z     vdW  Elec       q    Type
REMARK                         _______ _______ _______ _____ _____    ______ ____
ROOT
ATOM      1  C   UNL     1      -0.510  10.635  22.342  0.00  0.00    +0.000 A 
ATOM      2  C   UNL     1       0.341  11.194  21.392  0.00  0.00    +0.000 A 
ATOM      3  C   UNL     1       1.024  10.382  20.483  0.00  0.00    +0.000 A 
ATOM      4  C   UNL     1       0.881   8.993  20.504  0.00  0.00    +0.000 A 
ATOM      5  C   UNL     1      -0.001   8.435  21.440  0.00  0.00    +0.000 A 
ATOM      6  C   UNL     1      -0.665   9.248  22.378  0.00  0.00    +0.000 A 
ENDROOT
BRANCH   1  10
ATOM      7  N   UNL     1      -2.815  13.002  23.853  0.00  0.00    +0.000 N 
ATOM      8  C   UNL     1      -2.273  12.250  22.820  0.00  0.00    +0.000 C 
ATOM      9  O   UNL     1      -2.682  12.263  21.664  0.00  0.00    +0.000 OA
ATOM     10  N   UNL     1      -1.224  11.450  23.253  0.00  0.00    +0.000 N 
ATOM     11  H   UNL     1      -2.171  13.265  24.585  0.00  0.00    +0.000 HD
ATOM     12  H   UNL     1      -1.321  11.108  24.198  0.00  0.00    +0.000 HD
BRANCH   7  18
ATOM     13  C   UNL     1      -7.767  13.046  23.845  0.00  0.00    +0.000 C 
ATOM     14  C   UNL     1      -6.458  13.770  23.734  0.00  0.00    +0.000 A 
ATOM     15  C   UNL     1      -6.438  15.162  23.587  0.00  0.00    +0.000 A 
ATOM     16  C   UNL     1      -5.226  15.836  23.495  0.00  0.00    +0.000 A 
ATOM     17  C   UNL     1      -4.028  15.132  23.570  0.00  0.00    +0.000 A 
ATOM     18  C   UNL     1      -4.020  13.744  23.745  0.00  0.00    +0.000 A 
ATOM     19  C   UNL     1      -5.242  13.065  23.794  0.00  0.00    +0.000 A 
ENDBRANCH   7  18
ENDBRANCH   1  10
BRANCH   4  20
ATOM     20  N   UNL     1       1.597   8.130  19.635  0.00  0.00    +0.000 N 
ATOM     21  C   UNL     1       2.069   6.873  19.983  0.00  0.00    +0.000 C 
ATOM     22  O   UNL     1       1.923   6.358  21.090  0.00  0.00    +0.000 OA
ATOM     23  H   UNL     1       1.627   8.390  18.658  0.00  0.00    +0.000 HD
BRANCH  21  24
ATOM     24  C   UNL     1       2.742   6.105  18.930  0.00  0.00    +0.000 A 
ATOM     25  C   UNL     1       3.698   6.614  18.068  0.00  0.00    +0.000 A 
ATOM     26  S   UNL     1       4.411   5.407  17.088  0.00  0.00    +0.000 S 
ATOM     27  C   UNL     1       3.453   4.186  17.784  0.00  0.00    +0.000 A 
ATOM     28  N   UNL     1       3.602   2.906  17.401  0.00  0.00    +0.000 NA
ATOM     29  C   UNL     1       2.765   2.086  18.039  0.00  0.00    +0.000 A 
ATOM     30  N   UNL     1       1.833   2.412  18.943  0.00  0.00    +0.000 NA
ATOM     31  C   UNL     1       1.704   3.703  19.296  0.00  0.00    +0.000 A 
ATOM     32  N   UNL     1       0.695   3.985  20.207  0.00  0.00    +0.000 N 
ATOM     33  C   UNL     1       2.563   4.670  18.730  0.00  0.00    +0.000 A 
ATOM     34  H   UNL     1       0.416   3.150  20.705  0.00  0.00    +0.000 HD
ATOM     35  H   UNL     1       0.892   4.793  20.803  0.00  0.00    +0.000 HD
ENDBRANCH  21  24
ENDBRANCH   4  20
TORSDOF 4
ENDMDL
MODEL 9
REMARK VINA RESULT:      -8.1      8.777     11.393
REMARK  Name = 
REMARK  5 active torsions:
REMARK  status: ('A' for Active; 'I' for Inactive)
REMARK    1  A    between atoms: C_1  and  C_2
REMARK    2  A    between atoms: C_6  and  N_7
REMARK    3  A    between atoms: N_10  and  C_11
REMARK    4  A    between atoms: C_14  and  N_15
REMARK    5  A    between atoms: C_16  and  C_18
REMARK                            x       y       z     vdW  Elec       q    Type
REMARK                         _______ _______ _______ _____ _____    ______ ____
ROOT
ATOM      1  C   UNL     1      -0.760  11.864  18.791  0.00  0.00    +0.000 A 
ATOM      2  C   UNL     1       0.607  11.968  19.041  0.00  0.00    +0.000 A 
ATOM      3  C   UNL     1       1.470  10.917  18.722  0.00  0.00    +0.000 A 
ATOM      4  C   UNL     1       0.992   9.735  18.154  0.00  0.00    +0.000 A 
ATOM      5  C   UNL     1      -0.378   9.644  17.873  0.00  0.00    +0.000 A 
ATOM      6  C   UNL     1      -1.255  10.689  18.223  0.00  0.00    +0.000 A 
ENDROOT
BRANCH   1  10
ATOM      7  N   UNL     1      -3.194  14.055  20.364  0.00  0.00    +0.000 N 
ATOM      8  C   UNL     1      -2.359  12.950  20.277  0.00  0.00    +0.000 C 
ATOM      9  O   UNL     1      -2.243  12.099  21.152  0.00  0.00    +0.000 OA
ATOM     10  N   UNL     1      -1.640  12.931  19.089  0.00  0.00    +0.000 N 
ATOM     11  H   UNL     1      -3.550  14.402  19.484  0.00  0.00    +0.000 HD
ATOM     12  H   UNL     1      -1.392  13.844  18.736  0.00  0.00    +0.000 HD
BRANCH   7  18
ATOM     13  C   UNL     1      -3.035  16.033  24.900  0.00  0.00    +0.000 C 
ATOM     14  C   UNL     1      -3.809  15.405  23.780  0.00  0.00    +0.000 A 
ATOM     15  C   UNL     1      -5.198  15.258  23.885  0.00  0.00    +0.000 A 
ATOM     16  C   UNL     1      -5.919  14.686  22.843  0.00  0.00    +0.000 A 
ATOM     17  C   UNL     1      -5.266  14.276  21.684  0.00  0.00    +0.000 A 
ATOM     18  C   UNL     1      -3.884  14.437  21.543  0.00  0.00    +0.000 A 
ATOM     19  C   UNL     1      -3.156  14.974  22.611  0.00  0.00    +0.000 A 
ENDBRANCH   7  18
ENDBRANCH   1  10
BRANCH   4  20
ATOM     20  N   UNL     1       1.827   8.624  17.865  0.00  0.00    +0.000 N 
ATOM     21  C   UNL     1       2.349   7.760  18.817  0.00  0.00    +0.000 C 
ATOM     22  O   UNL     1       2.149   7.857  20.026  0.00  0.00    +0.000 OA
ATOM     23  H   UNL     1       1.917   8.362  16.893  0.00  0.00    +0.000 HD
BRANCH  21  24
ATOM     24  C   UNL     1       3.148   6.635  18.321  0.00  0.00    +0.000 A 
ATOM     25  C   UNL     1       4.093   6.721  17.312  0.00  0.00    +0.000 A 
ATOM     26  S   UNL     1       4.973   5.268  17.109  0.00  0.00    +0.000 S 
ATOM     27  C   UNL     1       4.105   4.494  18.351  0.00  0.00    +0.000 A 
ATOM     28  N   UNL     1       4.400   3.229  18.697  0.00  0.00    +0.000 NA
ATOM     29  C   UNL     1       3.617   2.776  19.677  0.00  0.00    +0.000 A 
ATOM     30  N   UNL     1       2.611   3.421  20.282  0.00  0.00    +0.000 NA
ATOM     31  C   UNL     1       2.336   4.682  19.904  0.00  0.00    +0.000 A 
ATOM     32  N   UNL     1       1.257   5.284  20.537  0.00  0.00    +0.000 N 
ATOM     33  C   UNL     1       3.124   5.299  18.907  0.00  0.00    +0.000 A 
ATOM     34  H   UNL     1       1.037   4.809  21.403  0.00  0.00    +0.000 HD
ATOM     35  H   UNL     1       1.342   6.301  20.617  0.00  0.00    +0.000 HD
ENDBRANCH  21  24
ENDBRANCH   4  20
TORSDOF 4
ENDMDL
