MODEL 1
REMARK VINA RESULT:      -7.6      0.000      0.000
REMARK  Name = 
REMARK  6 active torsions:
REMARK  status: ('A' for Active; 'I' for Inactive)
REMARK    1  A    between atoms: C_1  and  O_2
REMARK    2  A    between atoms: O_2  and  C_3
REMARK    3  A    between atoms: C_8  and  O_9
REMARK    4  A    between atoms: O_9  and  C_10
REMARK    5  A    between atoms: N_17  and  C_18
REMARK    6  A    between atoms: C_18  and  C_19
REMARK                            x       y       z     vdW  Elec       q    Type
REMARK                         _______ _______ _______ _____ _____    ______ ____
ROOT
ATOM      1  C   UNL     1       5.801   4.308  17.171  0.00  0.00    +0.000 A 
ATOM      2  N   UNL     1       5.550   3.806  15.982  0.00  0.00    +0.000 NA
ATOM      3  C   UNL     1       6.531   4.370  15.212  0.00  0.00    +0.000 A 
ATOM      4  N   UNL     1       6.531   4.293  13.758  0.00  0.00    +0.000 N 
ATOM      5  O   UNL     1       5.585   3.694  13.223  0.00  0.00    +0.000 OA
ATOM      6  O   UNL     1       7.453   4.859  13.148  0.00  0.00    +0.000 OA
ATOM      7  N   UNL     1       7.438   5.119  15.868  0.00  0.00    +0.000 NA
ATOM      8  N   UNL     1       6.956   5.042  17.133  0.00  0.00    +0.000 N 
ENDROOT
BRANCH   1   9
ATOM      9  O   UNL     1       5.080   4.152  18.277  0.00  0.00    +0.000 OA
BRANCH   9  15
ATOM     10  C   UNL     1       2.644   4.531  18.069  0.00  0.00    +0.000 A 
ATOM     11  C   UNL     1       1.367   3.969  18.212  0.00  0.00    +0.000 A 
ATOM     12  C   UNL     1       1.210   2.613  18.501  0.00  0.00    +0.000 A 
ATOM     13  C   UNL     1       2.328   1.799  18.654  0.00  0.00    +0.000 A 
ATOM     14  C   UNL     1       3.605   2.349  18.535  0.00  0.00    +0.000 A 
ATOM     15  C   UNL     1       3.773   3.712  18.247  0.00  0.00    +0.000 A 
BRANCH  10  17
ATOM     16  C   UNL     1       2.687   6.706  18.991  0.00  0.00    +0.000 C 
ATOM     17  O   UNL     1       2.825   5.873  17.840  0.00  0.00    +0.000 OA
ENDBRANCH  10  17
ENDBRANCH   9  15
ENDBRANCH   1   9
BRANCH   8  18
ATOM     18  C   UNL     1       7.639   5.716  18.219  0.00  0.00    +0.000 C 
BRANCH  18  19
ATOM     19  C   UNL     1       7.829   7.205  18.024  0.00  0.00    +0.000 C 
ATOM     20  N   UNL     1       7.186   7.833  17.000  0.00  0.00    +0.000 N 
ATOM     21  O   UNL     1       8.557   7.862  18.773  0.00  0.00    +0.000 OA
ATOM     22  H   UNL     1       6.913   7.303  16.177  0.00  0.00    +0.000 HD
ATOM     23  H   UNL     1       7.430   8.804  16.848  0.00  0.00    +0.000 HD
ENDBRANCH  18  19
ENDBRANCH   8  18
TORSDOF 5
ENDMDL
MODEL 2
REMARK VINA RESULT:      -7.5      1.568      4.027
REMARK  Name = 
REMARK  6 active torsions:
REMARK  status: ('A' for Active; 'I' for Inactive)
REMARK    1  A    between atoms: C_1  and  O_2
REMARK    2  A    between atoms: O_2  and  C_3
REMARK    3  A    between atoms: C_8  and  O_9
REMARK    4  A    between atoms: O_9  and  C_10
REMARK    5  A    between atoms: N_17  and  C_18
REMARK    6  A    between atoms: C_18  and  C_19
REMARK                            x       y       z     vdW  Elec       q    Type
REMARK                         _______ _______ _______ _____ _____    ______ ____
ROOT
ATOM      1  C   UNL     1       5.425   4.273  17.493  0.00  0.00    +0.000 A 
ATOM      2  N   UNL     1       5.934   4.528  18.679  0.00  0.00    +0.000 NA
ATOM      3  C   UNL     1       6.817   5.538  18.410  0.00  0.00    +0.000 A 
ATOM      4  N   UNL     1       7.795   6.005  19.381  0.00  0.00    +0.000 N 
ATOM      5  O   UNL     1       7.812   5.440  20.485  0.00  0.00    +0.000 OA
ATOM      6  O   UNL     1       8.571   6.911  19.032  0.00  0.00    +0.000 OA
ATOM      7  N   UNL     1       6.822   5.995  17.143  0.00  0.00    +0.000 NA
ATOM      8  N   UNL     1       5.898   5.178  16.580  0.00  0.00    +0.000 N 
ENDROOT
BRANCH   1   9
ATOM      9  O   UNL     1       4.574   3.304  17.175  0.00  0.00    +0.000 OA
BRANCH   9  15
ATOM     10  C   UNL     1       3.156   2.153  18.844  0.00  0.00    +0.000 A 
ATOM     11  C   UNL     1       1.854   1.978  19.336  0.00  0.00    +0.000 A 
ATOM     12  C   UNL     1       0.800   2.766  18.869  0.00  0.00    +0.000 A 
ATOM     13  C   UNL     1       1.033   3.737  17.901  0.00  0.00    +0.000 A 
ATOM     14  C   UNL     1       2.319   3.908  17.387  0.00  0.00    +0.000 A 
ATOM     15  C   UNL     1       3.384   3.120  17.849  0.00  0.00    +0.000 A 
BRANCH  10  17
ATOM     16  C   UNL     1       4.777   1.705  20.504  0.00  0.00    +0.000 C 
ATOM     17  O   UNL     1       4.197   1.354  19.246  0.00  0.00    +0.000 OA
ENDBRANCH  10  17
ENDBRANCH   9  15
ENDBRANCH   1   9
BRANCH   8  18
ATOM     18  C   UNL     1       5.558   5.313  15.177  0.00  0.00    +0.000 C 
BRANCH  18  19
ATOM     19  C   UNL     1       6.577   4.736  14.218  0.00  0.00    +0.000 C 
ATOM     20  N   UNL     1       6.338   3.528  13.636  0.00  0.00    +0.000 N 
ATOM     21  O   UNL     1       7.621   5.337  13.953  0.00  0.00    +0.000 OA
ATOM     22  H   UNL     1       5.725   2.860  14.096  0.00  0.00    +0.000 HD
ATOM     23  H   UNL     1       7.096   3.138  13.088  0.00  0.00    +0.000 HD
ENDBRANCH  18  19
ENDBRANCH   8  18
TORSDOF 5
ENDMDL
MODEL 3
REMARK VINA RESULT:      -7.5      1.206      1.462
REMARK  Name = 
REMARK  6 active torsions:
REMARK  status: ('A' for Active; 'I' for Inactive)
REMARK    1  A    between atoms: C_1  and  O_2
REMARK    2  A    between atoms: O_2  and  C_3
REMARK    3  A    between atoms: C_8  and  O_9
REMARK    4  A    between atoms: O_9  and  C_10
REMARK    5  A    between atoms: N_17  and  C_18
REMARK    6  A    between atoms: C_18  and  C_19
REMARK                            x       y       z     vdW  Elec       q    Type
REMARK                         _______ _______ _______ _____ _____    ______ ____
ROOT
ATOM      1  C   UNL     1       6.195   4.419  16.743  0.00  0.00    +0.000 A 
ATOM      2  N   UNL     1       6.257   3.884  15.543  0.00  0.00    +0.000 NA
ATOM      3  C   UNL     1       7.030   4.784  14.860  0.00  0.00    +0.000 A 
ATOM      4  N   UNL     1       7.193   4.741  13.414  0.00  0.00    +0.000 N 
ATOM      5  O   UNL     1       6.586   3.848  12.802  0.00  0.00    +0.000 OA
ATOM      6  O   UNL     1       7.895   5.617  12.884  0.00  0.00    +0.000 OA
ATOM      7  N   UNL     1       7.534   5.799  15.587  0.00  0.00    +0.000 NA
ATOM      8  N   UNL     1       7.000   5.525  16.802  0.00  0.00    +0.000 N 
ENDROOT
BRANCH   1   9
ATOM      9  O   UNL     1       5.483   3.987  17.779  0.00  0.00    +0.000 OA
BRANCH   9  15
ATOM     10  C   UNL     1       3.217   4.981  17.734  0.00  0.00    +0.000 A 
ATOM     11  C   UNL     1       1.841   4.734  17.843  0.00  0.00    +0.000 A 
ATOM     12  C   UNL     1       1.352   3.429  17.927  0.00  0.00    +0.000 A 
ATOM     13  C   UNL     1       2.233   2.353  17.906  0.00  0.00    +0.000 A 
ATOM     14  C   UNL     1       3.606   2.584  17.819  0.00  0.00    +0.000 A 
ATOM     15  C   UNL     1       4.107   3.892  17.737  0.00  0.00    +0.000 A 
BRANCH  10  17
ATOM     16  C   UNL     1       2.871   7.260  18.253  0.00  0.00    +0.000 C 
ATOM     17  O   UNL     1       3.727   6.255  17.707  0.00  0.00    +0.000 OA
ENDBRANCH  10  17
ENDBRANCH   9  15
ENDBRANCH   1   9
BRANCH   8  18
ATOM     18  C   UNL     1       7.284   6.381  17.937  0.00  0.00    +0.000 C 
BRANCH  18  19
ATOM     19  C   UNL     1       7.377   5.663  19.266  0.00  0.00    +0.000 C 
ATOM     20  N   UNL     1       8.595   5.256  19.724  0.00  0.00    +0.000 N 
ATOM     21  O   UNL     1       6.372   5.437  19.945  0.00  0.00    +0.000 OA
ATOM     22  H   UNL     1       9.347   5.078  19.062  0.00  0.00    +0.000 HD
ATOM     23  H   UNL     1       8.590   4.688  20.562  0.00  0.00    +0.000 HD
ENDBRANCH  18  19
ENDBRANCH   8  18
TORSDOF 5
ENDMDL
MODEL 4
REMARK VINA RESULT:      -7.5      3.287      6.275
REMARK  Name = 
REMARK  6 active torsions:
REMARK  status: ('A' for Active; 'I' for Inactive)
REMARK    1  A    between atoms: C_1  and  O_2
REMARK    2  A    between atoms: O_2  and  C_3
REMARK    3  A    between atoms: C_8  and  O_9
REMARK    4  A    between atoms: O_9  and  C_10
REMARK    5  A    between atoms: N_17  and  C_18
REMARK    6  A    between atoms: C_18  and  C_19
REMARK                            x       y       z     vdW  Elec       q    Type
REMARK                         _______ _______ _______ _____ _____    ______ ____
ROOT
ATOM      1  C   UNL     1       3.572   4.819  18.646  0.00  0.00    +0.000 A 
ATOM      2  N   UNL     1       3.458   6.095  18.348  0.00  0.00    +0.000 NA
ATOM      3  C   UNL     1       2.686   6.568  19.374  0.00  0.00    +0.000 A 
ATOM      4  N   UNL     1       2.095   7.899  19.363  0.00  0.00    +0.000 N 
ATOM      5  O   UNL     1       2.310   8.606  18.366  0.00  0.00    +0.000 OA
ATOM      6  O   UNL     1       1.388   8.227  20.330  0.00  0.00    +0.000 OA
ATOM      7  N   UNL     1       2.390   5.684  20.345  0.00  0.00    +0.000 NA
ATOM      8  N   UNL     1       2.994   4.571  19.862  0.00  0.00    +0.000 N 
ENDROOT
BRANCH   1   9
ATOM      9  O   UNL     1       4.155   3.873  17.917  0.00  0.00    +0.000 OA
BRANCH   9  15
ATOM     10  C   UNL     1       6.494   4.513  17.426  0.00  0.00    +0.000 A 
ATOM     11  C   UNL     1       7.403   4.913  16.435  0.00  0.00    +0.000 A 
ATOM     12  C   UNL     1       7.035   4.927  15.089  0.00  0.00    +0.000 A 
ATOM     13  C   UNL     1       5.751   4.543  14.714  0.00  0.00    +0.000 A 
ATOM     14  C   UNL     1       4.829   4.164  15.690  0.00  0.00    +0.000 A 
ATOM     15  C   UNL     1       5.190   4.149  17.047  0.00  0.00    +0.000 A 
BRANCH  10  17
ATOM     16  C   UNL     1       7.582   5.676  19.171  0.00  0.00    +0.000 C 
ATOM     17  O   UNL     1       6.814   4.544  18.760  0.00  0.00    +0.000 OA
ENDBRANCH  10  17
ENDBRANCH   9  15
ENDBRANCH   1   9
BRANCH   8  18
ATOM     18  C   UNL     1       2.941   3.327  20.604  0.00  0.00    +0.000 C 
BRANCH  18  19
ATOM     19  C   UNL     1       1.570   2.956  21.127  0.00  0.00    +0.000 C 
ATOM     20  N   UNL     1       0.474   3.179  20.348  0.00  0.00    +0.000 N 
ATOM     21  O   UNL     1       1.423   2.458  22.246  0.00  0.00    +0.000 OA
ATOM     22  H   UNL     1       0.503   3.902  19.634  0.00  0.00    +0.000 HD
ATOM     23  H   UNL     1      -0.425   3.014  20.784  0.00  0.00    +0.000 HD
ENDBRANCH  18  19
ENDBRANCH   8  18
TORSDOF 5
ENDMDL
MODEL 5
REMARK VINA RESULT:      -7.4      1.260      2.217
REMARK  Name = 
REMARK  6 active torsions:
REMARK  status: ('A' for Active; 'I' for Inactive)
REMARK    1  A    between atoms: C_1  and  O_2
REMARK    2  A    between atoms: O_2  and  C_3
REMARK    3  A    between atoms: C_8  and  O_9
REMARK    4  A    between atoms: O_9  and  C_10
REMARK    5  A    between atoms: N_17  and  C_18
REMARK    6  A    between atoms: C_18  and  C_19
REMARK                            x       y       z     vdW  Elec       q    Type
REMARK                         _______ _______ _______ _____ _____    ______ ____
ROOT
ATOM      1  C   UNL     1       6.384   4.514  17.629  0.00  0.00    +0.000 A 
ATOM      2  N   UNL     1       6.158   3.931  16.471  0.00  0.00    +0.000 NA
ATOM      3  C   UNL     1       6.875   4.712  15.605  0.00  0.00    +0.000 A 
ATOM      4  N   UNL     1       6.752   4.597  14.159  0.00  0.00    +0.000 N 
ATOM      5  O   UNL     1       5.950   3.756  13.724  0.00  0.00    +0.000 OA
ATOM      6  O   UNL     1       7.426   5.369  13.457  0.00  0.00    +0.000 OA
ATOM      7  N   UNL     1       7.611   5.691  16.165  0.00  0.00    +0.000 NA
ATOM      8  N   UNL     1       7.294   5.524  17.472  0.00  0.00    +0.000 N 
ENDROOT
BRANCH   1   9
ATOM      9  O   UNL     1       5.842   4.204  18.802  0.00  0.00    +0.000 OA
BRANCH   9  15
ATOM     10  C   UNL     1       3.539   3.599  19.472  0.00  0.00    +0.000 A 
ATOM     11  C   UNL     1       2.218   4.048  19.619  0.00  0.00    +0.000 A 
ATOM     12  C   UNL     1       1.897   5.395  19.442  0.00  0.00    +0.000 A 
ATOM     13  C   UNL     1       2.891   6.311  19.115  0.00  0.00    +0.000 A 
ATOM     14  C   UNL     1       4.205   5.875  18.945  0.00  0.00    +0.000 A 
ATOM     15  C   UNL     1       4.538   4.523  19.118  0.00  0.00    +0.000 A 
BRANCH  10  17
ATOM     16  C   UNL     1       3.597   1.480  18.429  0.00  0.00    +0.000 C 
ATOM     17  O   UNL     1       3.871   2.271  19.585  0.00  0.00    +0.000 OA
ENDBRANCH  10  17
ENDBRANCH   9  15
ENDBRANCH   1   9
BRANCH   8  18
ATOM     18  C   UNL     1       7.878   6.384  18.483  0.00  0.00    +0.000 C 
BRANCH  18  19
ATOM     19  C   UNL     1       7.904   7.855  18.128  0.00  0.00    +0.000 C 
ATOM     20  N   UNL     1       7.043   8.332  17.186  0.00  0.00    +0.000 N 
ATOM     21  O   UNL     1       8.691   8.632  18.674  0.00  0.00    +0.000 OA
ATOM     22  H   UNL     1       6.678   7.704  16.474  0.00  0.00    +0.000 HD
ATOM     23  H   UNL     1       7.173   9.297  16.909  0.00  0.00    +0.000 HD
ENDBRANCH  18  19
ENDBRANCH   8  18
TORSDOF 5
ENDMDL
MODEL 6
REMARK VINA RESULT:      -7.4      1.346      3.553
REMARK  Name = 
REMARK  6 active torsions:
REMARK  status: ('A' for Active; 'I' for Inactive)
REMARK    1  A    between atoms: C_1  and  O_2
REMARK    2  A    between atoms: O_2  and  C_3
REMARK    3  A    between atoms: C_8  and  O_9
REMARK    4  A    between atoms: O_9  and  C_10
REMARK    5  A    between atoms: N_17  and  C_18
REMARK    6  A    between atoms: C_18  and  C_19
REMARK                            x       y       z     vdW  Elec       q    Type
REMARK                         _______ _______ _______ _____ _____    ______ ____
ROOT
ATOM      1  C   UNL     1       5.303   4.241  17.522  0.00  0.00    +0.000 A 
ATOM      2  N   UNL     1       5.822   4.499  18.702  0.00  0.00    +0.000 NA
ATOM      3  C   UNL     1       6.747   5.466  18.411  0.00  0.00    +0.000 A 
ATOM      4  N   UNL     1       7.745   5.912  19.373  0.00  0.00    +0.000 N 
ATOM      5  O   UNL     1       7.739   5.370  20.489  0.00  0.00    +0.000 OA
ATOM      6  O   UNL     1       8.558   6.776  19.005  0.00  0.00    +0.000 OA
ATOM      7  N   UNL     1       6.770   5.895  17.135  0.00  0.00    +0.000 NA
ATOM      8  N   UNL     1       5.813   5.105  16.590  0.00  0.00    +0.000 N 
ENDROOT
BRANCH   1   9
ATOM      9  O   UNL     1       4.411   3.302  17.225  0.00  0.00    +0.000 OA
BRANCH   9  15
ATOM     10  C   UNL     1       2.324   4.244  18.161  0.00  0.00    +0.000 A 
ATOM     11  C   UNL     1       1.216   4.010  18.989  0.00  0.00    +0.000 A 
ATOM     12  C   UNL     1       0.978   2.744  19.527  0.00  0.00    +0.000 A 
ATOM     13  C   UNL     1       1.846   1.695  19.246  0.00  0.00    +0.000 A 
ATOM     14  C   UNL     1       2.964   1.917  18.442  0.00  0.00    +0.000 A 
ATOM     15  C   UNL     1       3.213   3.186  17.898  0.00  0.00    +0.000 A 
BRANCH  10  17
ATOM     16  C   UNL     1       2.654   6.533  18.642  0.00  0.00    +0.000 C 
ATOM     17  O   UNL     1       2.610   5.492  17.666  0.00  0.00    +0.000 OA
ENDBRANCH  10  17
ENDBRANCH   9  15
ENDBRANCH   1   9
BRANCH   8  18
ATOM     18  C   UNL     1       5.478   5.225  15.184  0.00  0.00    +0.000 C 
BRANCH  18  19
ATOM     19  C   UNL     1       6.554   4.751  14.232  0.00  0.00    +0.000 C 
ATOM     20  N   UNL     1       7.741   5.419  14.177  0.00  0.00    +0.000 N 
ATOM     21  O   UNL     1       6.380   3.772  13.502  0.00  0.00    +0.000 OA
ATOM     22  H   UNL     1       7.780   6.399  14.449  0.00  0.00    +0.000 HD
ATOM     23  H   UNL     1       8.383   5.130  13.450  0.00  0.00    +0.000 HD
ENDBRANCH  18  19
ENDBRANCH   8  18
TORSDOF 5
ENDMDL
MODEL 7
REMARK VINA RESULT:      -7.3      0.894      1.917
REMARK  Name = 
REMARK  6 active torsions:
REMARK  status: ('A' for Active; 'I' for Inactive)
REMARK    1  A    between atoms: C_1  and  O_2
REMARK    2  A    between atoms: O_2  and  C_3
REMARK    3  A    between atoms: C_8  and  O_9
REMARK    4  A    between atoms: O_9  and  C_10
REMARK    5  A    between atoms: N_17  and  C_18
REMARK    6  A    between atoms: C_18  and  C_19
REMARK                            x       y       z     vdW  Elec       q    Type
REMARK                         _______ _______ _______ _____ _____    ______ ____
ROOT
ATOM      1  C   UNL     1       5.315   4.798  17.023  0.00  0.00    +0.000 A 
ATOM      2  N   UNL     1       4.957   4.268  15.874  0.00  0.00    +0.000 NA
ATOM      3  C   UNL     1       6.110   4.352  15.139  0.00  0.00    +0.000 A 
ATOM      4  N   UNL     1       6.149   4.094  13.707  0.00  0.00    +0.000 N 
ATOM      5  O   UNL     1       5.077   3.798  13.155  0.00  0.00    +0.000 OA
ATOM      6  O   UNL     1       7.239   4.221  13.126  0.00  0.00    +0.000 OA
ATOM      7  N   UNL     1       7.192   4.815  15.792  0.00  0.00    +0.000 NA
ATOM      8  N   UNL     1       6.657   5.073  17.011  0.00  0.00    +0.000 N 
ENDROOT
BRANCH   1   9
ATOM      9  O   UNL     1       4.536   5.045  18.070  0.00  0.00    +0.000 OA
BRANCH   9  15
ATOM     10  C   UNL     1       3.620   3.030  19.174  0.00  0.00    +0.000 A 
ATOM     11  C   UNL     1       2.498   2.202  19.330  0.00  0.00    +0.000 A 
ATOM     12  C   UNL     1       1.266   2.554  18.776  0.00  0.00    +0.000 A 
ATOM     13  C   UNL     1       1.140   3.736  18.055  0.00  0.00    +0.000 A 
ATOM     14  C   UNL     1       2.252   4.559  17.873  0.00  0.00    +0.000 A 
ATOM     15  C   UNL     1       3.495   4.213  18.425  0.00  0.00    +0.000 A 
BRANCH  10  17
ATOM     16  C   UNL     1       4.838   1.701  20.702  0.00  0.00    +0.000 C 
ATOM     17  O   UNL     1       4.854   2.679  19.662  0.00  0.00    +0.000 OA
ENDBRANCH  10  17
ENDBRANCH   9  15
ENDBRANCH   1   9
BRANCH   8  18
ATOM     18  C   UNL     1       7.484   5.601  18.078  0.00  0.00    +0.000 C 
BRANCH  18  19
ATOM     19  C   UNL     1       7.796   7.078  17.969  0.00  0.00    +0.000 C 
ATOM     20  N   UNL     1       7.266   7.800  16.943  0.00  0.00    +0.000 N 
ATOM     21  O   UNL     1       8.523   7.642  18.791  0.00  0.00    +0.000 OA
ATOM     22  H   UNL     1       7.005   7.331  16.079  0.00  0.00    +0.000 HD
ATOM     23  H   UNL     1       7.590   8.755  16.854  0.00  0.00    +0.000 HD
ENDBRANCH  18  19
ENDBRANCH   8  18
TORSDOF 5
ENDMDL
MODEL 8
REMARK VINA RESULT:      -7.2      2.304      4.799
REMARK  Name = 
REMARK  6 active torsions:
REMARK  status: ('A' for Active; 'I' for Inactive)
REMARK    1  A    between atoms: C_1  and  O_2
REMARK    2  A    between atoms: O_2  and  C_3
REMARK    3  A    between atoms: C_8  and  O_9
REMARK    4  A    between atoms: O_9  and  C_10
REMARK    5  A    between atoms: N_17  and  C_18
REMARK    6  A    between atoms: C_18  and  C_19
REMARK                            x       y       z     vdW  Elec       q    Type
REMARK                         _______ _______ _______ _____ _____    ______ ____
ROOT
ATOM      1  C   UNL     1       3.986   4.930  17.788  0.00  0.00    +0.000 A 
ATOM      2  N   UNL     1       4.907   5.391  16.970  0.00  0.00    +0.000 NA
ATOM      3  C   UNL     1       6.013   4.673  17.339  0.00  0.00    +0.000 A 
ATOM      4  N   UNL     1       7.351   4.995  16.866  0.00  0.00    +0.000 N 
ATOM      5  O   UNL     1       7.465   5.970  16.108  0.00  0.00    +0.000 OA
ATOM      6  O   UNL     1       8.294   4.299  17.278  0.00  0.00    +0.000 OA
ATOM      7  N   UNL     1       5.815   3.724  18.273  0.00  0.00    +0.000 NA
ATOM      8  N   UNL     1       4.494   3.896  18.528  0.00  0.00    +0.000 N 
ENDROOT
BRANCH   1   9
ATOM      9  O   UNL     1       2.735   5.362  17.914  0.00  0.00    +0.000 OA
BRANCH   9  15
ATOM     10  C   UNL     1       2.085   6.651  19.923  0.00  0.00    +0.000 A 
ATOM     11  C   UNL     1       1.644   7.889  20.413  0.00  0.00    +0.000 A 
ATOM     12  C   UNL     1       1.566   9.004  19.577  0.00  0.00    +0.000 A 
ATOM     13  C   UNL     1       1.926   8.896  18.238  0.00  0.00    +0.000 A 
ATOM     14  C   UNL     1       2.345   7.666  17.730  0.00  0.00    +0.000 A 
ATOM     15  C   UNL     1       2.425   6.539  18.563  0.00  0.00    +0.000 A 
BRANCH  10  17
ATOM     16  C   UNL     1       0.998   4.653  20.562  0.00  0.00    +0.000 C 
ATOM     17  O   UNL     1       2.117   5.527  20.711  0.00  0.00    +0.000 OA
ENDBRANCH  10  17
ENDBRANCH   9  15
ENDBRANCH   1   9
BRANCH   8  18
ATOM     18  C   UNL     1       3.820   3.059  19.500  0.00  0.00    +0.000 C 
BRANCH  18  19
ATOM     19  C   UNL     1       3.166   1.820  18.927  0.00  0.00    +0.000 C 
ATOM     20  N   UNL     1       3.939   0.872  18.326  0.00  0.00    +0.000 N 
ATOM     21  O   UNL     1       1.946   1.650  18.991  0.00  0.00    +0.000 OA
ATOM     22  H   UNL     1       4.836   1.135  17.923  0.00  0.00    +0.000 HD
ATOM     23  H   UNL     1       3.445   0.118  17.865  0.00  0.00    +0.000 HD
ENDBRANCH  18  19
ENDBRANCH   8  18
TORSDOF 5
ENDMDL
MODEL 9
REMARK VINA RESULT:      -7.2      1.685      2.338
REMARK  Name = 
REMARK  6 active torsions:
REMARK  status: ('A' for Active; 'I' for Inactive)
REMARK    1  A    between atoms: C_1  and  O_2
REMARK    2  A    between atoms: O_2  and  C_3
REMARK    3  A    between atoms: C_8  and  O_9
REMARK    4  A    between atoms: O_9  and  C_10
REMARK    5  A    between atoms: N_17  and  C_18
REMARK    6  A    between atoms: C_18  and  C_19
REMARK                            x       y       z     vdW  Elec       q    Type
REMARK                         _______ _______ _______ _____ _____    ______ ____
ROOT
ATOM      1  C   UNL     1       5.983   4.018  16.088  0.00  0.00    +0.000 A 
ATOM      2  N   UNL     1       6.035   3.775  14.797  0.00  0.00    +0.000 NA
ATOM      3  C   UNL     1       7.035   4.612  14.379  0.00  0.00    +0.000 A 
ATOM      4  N   UNL     1       7.308   4.869  12.973  0.00  0.00    +0.000 N 
ATOM      5  O   UNL     1       6.584   4.300  12.142  0.00  0.00    +0.000 OA
ATOM      6  O   UNL     1       8.221   5.664  12.696  0.00  0.00    +0.000 OA
ATOM      7  N   UNL     1       7.675   5.293  15.348  0.00  0.00    +0.000 NA
ATOM      8  N   UNL     1       6.993   4.873  16.441  0.00  0.00    +0.000 N 
ENDROOT
BRANCH   1   9
ATOM      9  O   UNL     1       5.110   3.530  16.963  0.00  0.00    +0.000 OA
BRANCH   9  15
ATOM     10  C   UNL     1       4.365   4.153  19.238  0.00  0.00    +0.000 A 
ATOM     11  C   UNL     1       3.505   4.961  19.995  0.00  0.00    +0.000 A 
ATOM     12  C   UNL     1       2.734   5.953  19.387  0.00  0.00    +0.000 A 
ATOM     13  C   UNL     1       2.810   6.149  18.012  0.00  0.00    +0.000 A 
ATOM     14  C   UNL     1       3.646   5.339  17.243  0.00  0.00    +0.000 A 
ATOM     15  C   UNL     1       4.423   4.338  17.845  0.00  0.00    +0.000 A 
BRANCH  10  17
ATOM     16  C   UNL     1       4.314   2.066  20.343  0.00  0.00    +0.000 C 
ATOM     17  O   UNL     1       5.092   3.135  19.805  0.00  0.00    +0.000 OA
ENDBRANCH  10  17
ENDBRANCH   9  15
ENDBRANCH   1   9
BRANCH   8  18
ATOM     18  C   UNL     1       7.351   5.358  17.760  0.00  0.00    +0.000 C 
BRANCH  18  19
ATOM     19  C   UNL     1       7.521   6.859  17.861  0.00  0.00    +0.000 C 
ATOM     20  N   UNL     1       6.772   7.672  17.064  0.00  0.00    +0.000 N 
ATOM     21  O   UNL     1       8.325   7.362  18.649  0.00  0.00    +0.000 OA
ATOM     22  H   UNL     1       6.411   7.319  16.181  0.00  0.00    +0.000 HD
ATOM     23  H   UNL     1       6.999   8.658  17.093  0.00  0.00    +0.000 HD
ENDBRANCH  18  19
ENDBRANCH   8  18
TORSDOF 5
ENDMDL
