MODEL 1
REMARK VINA RESULT:      -6.6      0.000      0.000
REMARK  Name = 
REMARK  11 active torsions:
REMARK  status: ('A' for Active; 'I' for Inactive)
REMARK    1  A    between atoms: C_1  and  O_2
REMARK    2  A    between atoms: O_2  and  C_3
REMARK    3  A    between atoms: C_9  and  O_10
REMARK    4  A    between atoms: O_10  and  C_11
REMARK    5  A    between atoms: C_11  and  C_12
REMARK    6  A    between atoms: N_15  and  C_16
REMARK    7  A    between atoms: C_16  and  C_17
REMARK    8  A    between atoms: C_21  and  O_22
REMARK    9  A    between atoms: O_22  and  C_23
REMARK   10  A    between atoms: C_24  and  O_25
REMARK   11  A    between atoms: O_25  and  C_26
REMARK                            x       y       z     vdW  Elec       q    Type
REMARK                         _______ _______ _______ _____ _____    ______ ____
ROOT
ATOM      1  C   UNL     1       0.862  10.342  18.691  0.00  0.00    +0.000 C 
ATOM      2  C   UNL     1       2.104  11.264  18.694  0.00  0.00    +0.000 C 
ATOM      3  C   UNL     1       0.453  10.095  20.142  0.00  0.00    +0.000 C 
ATOM      4  C   UNL     1       1.221   8.839  20.517  0.00  0.00    +0.000 C 
ATOM      5  N   UNL     1       1.353   8.049  19.283  0.00  0.00    +0.000 NA
ATOM      6  C   UNL     1       1.308   8.980  18.136  0.00  0.00    +0.000 C 
ENDROOT
BRANCH   1   7
ATOM      7  O   UNL     1      -0.096  11.047  17.900  0.00  0.00    +0.000 OA
BRANCH   7  14
ATOM      8  C   UNL     1      -2.223  12.020  18.829  0.00  0.00    +0.000 A 
ATOM      9  C   UNL     1      -3.622  11.900  18.820  0.00  0.00    +0.000 A 
ATOM     10  C   UNL     1      -4.247  10.882  18.105  0.00  0.00    +0.000 A 
ATOM     11 CL   UNL     1      -5.963  10.758  18.115  0.00  0.00    +0.000 Cl
ATOM     12  C   UNL     1      -3.491   9.972  17.380  0.00  0.00    +0.000 A 
ATOM     13  C   UNL     1      -2.101  10.102  17.370  0.00  0.00    +0.000 A 
ATOM     14  C   UNL     1      -1.445  11.123  18.076  0.00  0.00    +0.000 A 
BRANCH   8  16
ATOM     15  C   UNL     1      -1.730  13.035  20.927  0.00  0.00    +0.000 C 
ATOM     16  O   UNL     1      -1.610  13.027  19.513  0.00  0.00    +0.000 OA
ENDBRANCH   8  16
ENDBRANCH   7  14
ENDBRANCH   1   7
BRANCH   5  17
ATOM     17  C   UNL     1       2.550   7.199  19.319  0.00  0.00    +0.000 C 
BRANCH  17  18
ATOM     18  C   UNL     1       2.302   5.711  19.489  0.00  0.00    +0.000 A 
ATOM     19  C   UNL     1       1.618   5.234  20.621  0.00  0.00    +0.000 A 
ATOM     20  C   UNL     1       1.264   3.894  20.740  0.00  0.00    +0.000 A 
ATOM     21  C   UNL     1       1.619   3.001  19.735  0.00  0.00    +0.000 A 
ATOM     22  C   UNL     1       2.345   3.433  18.619  0.00  0.00    +0.000 A 
ATOM     23  C   UNL     1       2.737   4.780  18.520  0.00  0.00    +0.000 A 
BRANCH  22  24
ATOM     24  O   UNL     1       2.618   2.428  17.727  0.00  0.00    +0.000 OA
ATOM     25  C   UNL     1       3.613   1.494  18.128  0.00  0.00    +0.000 C 
ENDBRANCH  22  24
BRANCH  23  26
ATOM     26  O   UNL     1       3.432   5.213  17.416  0.00  0.00    +0.000 OA
ATOM     27  C   UNL     1       4.846   5.044  17.544  0.00  0.00    +0.000 C 
ENDBRANCH  23  26
ENDBRANCH  17  18
ENDBRANCH   5  17
TORSDOF 7
ENDMDL
MODEL 2
REMARK VINA RESULT:      -6.5      3.622      8.851
REMARK  Name = 
REMARK  11 active torsions:
REMARK  status: ('A' for Active; 'I' for Inactive)
REMARK    1  A    between atoms: C_1  and  O_2
REMARK    2  A    between atoms: O_2  and  C_3
REMARK    3  A    between atoms: C_9  and  O_10
REMARK    4  A    between atoms: O_10  and  C_11
REMARK    5  A    between atoms: C_11  and  C_12
REMARK    6  A    between atoms: N_15  and  C_16
REMARK    7  A    between atoms: C_16  and  C_17
REMARK    8  A    between atoms: C_21  and  O_22
REMARK    9  A    between atoms: O_22  and  C_23
REMARK   10  A    between atoms: C_24  and  O_25
REMARK   11  A    between atoms: O_25  and  C_26
REMARK                            x       y       z     vdW  Elec       q    Type
REMARK                         _______ _______ _______ _____ _____    ______ ____
ROOT
ATOM      1  C   UNL     1       2.907   6.155  19.022  0.00  0.00    +0.000 C 
ATOM      2  C   UNL     1       2.047   5.526  17.901  0.00  0.00    +0.000 C 
ATOM      3  C   UNL     1       2.673   5.353  20.302  0.00  0.00    +0.000 C 
ATOM      4  C   UNL     1       1.515   6.078  20.966  0.00  0.00    +0.000 C 
ATOM      5  N   UNL     1       1.638   7.494  20.585  0.00  0.00    +0.000 NA
ATOM      6  C   UNL     1       2.348   7.561  19.291  0.00  0.00    +0.000 C 
ENDROOT
BRANCH   1   7
ATOM      7  O   UNL     1       4.239   6.108  18.509  0.00  0.00    +0.000 OA
BRANCH   7  14
ATOM      8  C   UNL     1       4.895   4.035  17.241  0.00  0.00    +0.000 A 
ATOM      9  C   UNL     1       5.369   3.566  16.006  0.00  0.00    +0.000 A 
ATOM     10  C   UNL     1       5.692   4.452  14.981  0.00  0.00    +0.000 A 
ATOM     11 CL   UNL     1       6.275   3.847  13.480  0.00  0.00    +0.000 Cl
ATOM     12  C   UNL     1       5.539   5.817  15.166  0.00  0.00    +0.000 A 
ATOM     13  C   UNL     1       5.046   6.286  16.385  0.00  0.00    +0.000 A 
ATOM     14  C   UNL     1       4.706   5.415  17.433  0.00  0.00    +0.000 A 
BRANCH   8  16
ATOM     15  C   UNL     1       3.564   2.195  17.962  0.00  0.00    +0.000 C 
ATOM     16  O   UNL     1       4.560   3.169  18.238  0.00  0.00    +0.000 OA
ENDBRANCH   8  16
ENDBRANCH   7  14
ENDBRANCH   1   7
BRANCH   5  17
ATOM     17  C   UNL     1       0.329   8.163  20.587  0.00  0.00    +0.000 C 
BRANCH  17  18
ATOM     18  C   UNL     1       0.345   9.651  20.287  0.00  0.00    +0.000 A 
ATOM     19  C   UNL     1       0.115  10.110  18.979  0.00  0.00    +0.000 A 
ATOM     20  C   UNL     1      -0.004  11.468  18.700  0.00  0.00    +0.000 A 
ATOM     21  C   UNL     1       0.137  12.393  19.729  0.00  0.00    +0.000 A 
ATOM     22  C   UNL     1       0.416  11.971  21.034  0.00  0.00    +0.000 A 
ATOM     23  C   UNL     1       0.577  10.601  21.307  0.00  0.00    +0.000 A 
BRANCH  22  24
ATOM     24  O   UNL     1       0.530  13.007  21.926  0.00  0.00    +0.000 OA
ATOM     25  C   UNL     1      -0.691  13.606  22.342  0.00  0.00    +0.000 C 
ENDBRANCH  22  24
BRANCH  23  26
ATOM     26  O   UNL     1       0.832  10.181  22.590  0.00  0.00    +0.000 OA
ATOM     27  C   UNL     1      -0.357   9.904  23.334  0.00  0.00    +0.000 C 
ENDBRANCH  23  26
ENDBRANCH  17  18
ENDBRANCH   5  17
TORSDOF 7
ENDMDL
MODEL 3
REMARK VINA RESULT:      -6.4      3.832      8.936
REMARK  Name = 
REMARK  11 active torsions:
REMARK  status: ('A' for Active; 'I' for Inactive)
REMARK    1  A    between atoms: C_1  and  O_2
REMARK    2  A    between atoms: O_2  and  C_3
REMARK    3  A    between atoms: C_9  and  O_10
REMARK    4  A    between atoms: O_10  and  C_11
REMARK    5  A    between atoms: C_11  and  C_12
REMARK    6  A    between atoms: N_15  and  C_16
REMARK    7  A    between atoms: C_16  and  C_17
REMARK    8  A    between atoms: C_21  and  O_22
REMARK    9  A    between atoms: O_22  and  C_23
REMARK   10  A    between atoms: C_24  and  O_25
REMARK   11  A    between atoms: O_25  and  C_26
REMARK                            x       y       z     vdW  Elec       q    Type
REMARK                         _______ _______ _______ _____ _____    ______ ____
ROOT
ATOM      1  C   UNL     1       3.170   5.684  18.340  0.00  0.00    +0.000 C 
ATOM      2  C   UNL     1       2.012   4.767  17.879  0.00  0.00    +0.000 C 
ATOM      3  C   UNL     1       2.937   6.038  19.808  0.00  0.00    +0.000 C 
ATOM      4  C   UNL     1       2.125   7.320  19.737  0.00  0.00    +0.000 C 
ATOM      5  N   UNL     1       2.553   8.015  18.513  0.00  0.00    +0.000 NA
ATOM      6  C   UNL     1       3.045   7.002  17.559  0.00  0.00    +0.000 C 
ENDROOT
BRANCH   1   7
ATOM      7  O   UNL     1       4.348   4.919  18.077  0.00  0.00    +0.000 OA
BRANCH   7  14
ATOM      8  C   UNL     1       6.401   5.785  16.907  0.00  0.00    +0.000 A 
ATOM      9  C   UNL     1       7.143   5.711  15.718  0.00  0.00    +0.000 A 
ATOM     10  C   UNL     1       6.702   4.937  14.648  0.00  0.00    +0.000 A 
ATOM     11 CL   UNL     1       7.631   4.869  13.201  0.00  0.00    +0.000 Cl
ATOM     12  C   UNL     1       5.521   4.218  14.748  0.00  0.00    +0.000 A 
ATOM     13  C   UNL     1       4.791   4.272  15.937  0.00  0.00    +0.000 A 
ATOM     14  C   UNL     1       5.217   5.039  17.034  0.00  0.00    +0.000 A 
BRANCH   8  16
ATOM     15  C   UNL     1       7.678   7.640  17.686  0.00  0.00    +0.000 C 
ATOM     16  O   UNL     1       6.841   6.527  17.963  0.00  0.00    +0.000 OA
ENDBRANCH   8  16
ENDBRANCH   7  14
ENDBRANCH   1   7
BRANCH   5  17
ATOM     17  C   UNL     1       1.480   8.869  17.982  0.00  0.00    +0.000 C 
BRANCH  17  18
ATOM     18  C   UNL     1       1.460  10.300  18.489  0.00  0.00    +0.000 A 
ATOM     19  C   UNL     1       2.395  11.233  18.008  0.00  0.00    +0.000 A 
ATOM     20  C   UNL     1       2.318  12.578  18.356  0.00  0.00    +0.000 A 
ATOM     21  C   UNL     1       1.316  13.004  19.221  0.00  0.00    +0.000 A 
ATOM     22  C   UNL     1       0.400  12.092  19.758  0.00  0.00    +0.000 A 
ATOM     23  C   UNL     1       0.504  10.727  19.437  0.00  0.00    +0.000 A 
BRANCH  22  24
ATOM     24  O   UNL     1      -0.517  12.674  20.595  0.00  0.00    +0.000 OA
ATOM     25  C   UNL     1       0.016  13.504  21.620  0.00  0.00    +0.000 C 
ENDBRANCH  22  24
BRANCH  23  26
ATOM     26  O   UNL     1      -0.405   9.831  19.946  0.00  0.00    +0.000 OA
ATOM     27  C   UNL     1      -0.153   9.494  21.312  0.00  0.00    +0.000 C 
ENDBRANCH  23  26
ENDBRANCH  17  18
ENDBRANCH   5  17
TORSDOF 7
ENDMDL
MODEL 4
REMARK VINA RESULT:      -6.4      3.521      8.837
REMARK  Name = 
REMARK  11 active torsions:
REMARK  status: ('A' for Active; 'I' for Inactive)
REMARK    1  A    between atoms: C_1  and  O_2
REMARK    2  A    between atoms: O_2  and  C_3
REMARK    3  A    between atoms: C_9  and  O_10
REMARK    4  A    between atoms: O_10  and  C_11
REMARK    5  A    between atoms: C_11  and  C_12
REMARK    6  A    between atoms: N_15  and  C_16
REMARK    7  A    between atoms: C_16  and  C_17
REMARK    8  A    between atoms: C_21  and  O_22
REMARK    9  A    between atoms: O_22  and  C_23
REMARK   10  A    between atoms: C_24  and  O_25
REMARK   11  A    between atoms: O_25  and  C_26
REMARK                            x       y       z     vdW  Elec       q    Type
REMARK                         _______ _______ _______ _____ _____    ______ ____
ROOT
ATOM      1  C   UNL     1       3.005   4.787  18.422  0.00  0.00    +0.000 C 
ATOM      2  C   UNL     1       1.792   4.196  17.664  0.00  0.00    +0.000 C 
ATOM      3  C   UNL     1       2.684   4.767  19.915  0.00  0.00    +0.000 C 
ATOM      4  C   UNL     1       2.042   6.122  20.157  0.00  0.00    +0.000 C 
ATOM      5  N   UNL     1       2.658   7.051  19.197  0.00  0.00    +0.000 NA
ATOM      6  C   UNL     1       3.110   6.269  18.028  0.00  0.00    +0.000 C 
ENDROOT
BRANCH   1   7
ATOM      7  O   UNL     1       4.101   3.963  18.023  0.00  0.00    +0.000 OA
BRANCH   7  14
ATOM      8  C   UNL     1       6.455   4.557  17.359  0.00  0.00    +0.000 A 
ATOM      9  C   UNL     1       7.297   4.792  16.261  0.00  0.00    +0.000 A 
ATOM     10  C   UNL     1       6.799   4.766  14.961  0.00  0.00    +0.000 A 
ATOM     11 CL   UNL     1       7.854   5.062  13.634  0.00  0.00    +0.000 Cl
ATOM     12  C   UNL     1       5.458   4.497  14.733  0.00  0.00    +0.000 A 
ATOM     13  C   UNL     1       4.622   4.241  15.821  0.00  0.00    +0.000 A 
ATOM     14  C   UNL     1       5.100   4.253  17.142  0.00  0.00    +0.000 A 
BRANCH   8  16
ATOM     15  C   UNL     1       7.560   5.753  19.098  0.00  0.00    +0.000 C 
ATOM     16  O   UNL     1       6.945   4.562  18.631  0.00  0.00    +0.000 OA
ENDBRANCH   8  16
ENDBRANCH   7  14
ENDBRANCH   1   7
BRANCH   5  17
ATOM     17  C   UNL     1       1.748   8.156  18.864  0.00  0.00    +0.000 C 
BRANCH  17  18
ATOM     18  C   UNL     1       1.150   8.901  20.044  0.00  0.00    +0.000 A 
ATOM     19  C   UNL     1       1.342   8.423  21.352  0.00  0.00    +0.000 A 
ATOM     20  C   UNL     1       0.917   9.152  22.458  0.00  0.00    +0.000 A 
ATOM     21  C   UNL     1       0.261  10.363  22.267  0.00  0.00    +0.000 A 
ATOM     22  C   UNL     1       0.009  10.843  20.976  0.00  0.00    +0.000 A 
ATOM     23  C   UNL     1       0.403  10.086  19.859  0.00  0.00    +0.000 A 
BRANCH  22  24
ATOM     24  O   UNL     1      -0.650  12.046  20.965  0.00  0.00    +0.000 OA
ATOM     25  C   UNL     1      -0.658  12.763  22.193  0.00  0.00    +0.000 C 
ENDBRANCH  22  24
BRANCH  23  26
ATOM     26  O   UNL     1       0.175  10.562  18.591  0.00  0.00    +0.000 OA
ATOM     27  C   UNL     1      -1.146  10.290  18.121  0.00  0.00    +0.000 C 
ENDBRANCH  23  26
ENDBRANCH  17  18
ENDBRANCH   5  17
TORSDOF 7
ENDMDL
MODEL 5
REMARK VINA RESULT:      -6.4      3.879      8.789
REMARK  Name = 
REMARK  11 active torsions:
REMARK  status: ('A' for Active; 'I' for Inactive)
REMARK    1  A    between atoms: C_1  and  O_2
REMARK    2  A    between atoms: O_2  and  C_3
REMARK    3  A    between atoms: C_9  and  O_10
REMARK    4  A    between atoms: O_10  and  C_11
REMARK    5  A    between atoms: C_11  and  C_12
REMARK    6  A    between atoms: N_15  and  C_16
REMARK    7  A    between atoms: C_16  and  C_17
REMARK    8  A    between atoms: C_21  and  O_22
REMARK    9  A    between atoms: O_22  and  C_23
REMARK   10  A    between atoms: C_24  and  O_25
REMARK   11  A    between atoms: O_25  and  C_26
REMARK                            x       y       z     vdW  Elec       q    Type
REMARK                         _______ _______ _______ _____ _____    ______ ____
ROOT
ATOM      1  C   UNL     1       3.142   3.490  18.429  0.00  0.00    +0.000 C 
ATOM      2  C   UNL     1       1.797   2.752  18.226  0.00  0.00    +0.000 C 
ATOM      3  C   UNL     1       3.647   3.173  19.836  0.00  0.00    +0.000 C 
ATOM      4  C   UNL     1       3.058   4.289  20.682  0.00  0.00    +0.000 C 
ATOM      5  N   UNL     1       2.966   5.468  19.807  0.00  0.00    +0.000 NA
ATOM      6  C   UNL     1       2.841   4.997  18.413  0.00  0.00    +0.000 C 
ENDROOT
BRANCH   1   7
ATOM      7  O   UNL     1       3.966   3.013  17.364  0.00  0.00    +0.000 OA
BRANCH   7  14
ATOM      8  C   UNL     1       6.108   4.324  17.188  0.00  0.00    +0.000 A 
ATOM      9  C   UNL     1       7.005   4.911  16.282  0.00  0.00    +0.000 A 
ATOM     10  C   UNL     1       6.753   4.891  14.913  0.00  0.00    +0.000 A 
ATOM     11 CL   UNL     1       7.869   5.623  13.827  0.00  0.00    +0.000 Cl
ATOM     12  C   UNL     1       5.609   4.279  14.423  0.00  0.00    +0.000 A 
ATOM     13  C   UNL     1       4.726   3.675  15.320  0.00  0.00    +0.000 A 
ATOM     14  C   UNL     1       4.960   3.673  16.705  0.00  0.00    +0.000 A 
BRANCH   8  16
ATOM     15  C   UNL     1       6.844   5.527  19.108  0.00  0.00    +0.000 C 
ATOM     16  O   UNL     1       6.363   4.325  18.527  0.00  0.00    +0.000 OA
ENDBRANCH   8  16
ENDBRANCH   7  14
ENDBRANCH   1   7
BRANCH   5  17
ATOM     17  C   UNL     1       1.885   6.368  20.236  0.00  0.00    +0.000 C 
BRANCH  17  18
ATOM     18  C   UNL     1       1.848   7.728  19.562  0.00  0.00    +0.000 A 
ATOM     19  C   UNL     1       2.525   7.933  18.347  0.00  0.00    +0.000 A 
ATOM     20  C   UNL     1       2.402   9.127  17.645  0.00  0.00    +0.000 A 
ATOM     21  C   UNL     1       1.620  10.151  18.168  0.00  0.00    +0.000 A 
ATOM     22  C   UNL     1       0.973   9.998  19.400  0.00  0.00    +0.000 A 
ATOM     23  C   UNL     1       1.131   8.805  20.128  0.00  0.00    +0.000 A 
BRANCH  22  24
ATOM     24  O   UNL     1       0.249  11.101  19.772  0.00  0.00    +0.000 OA
ATOM     25  C   UNL     1       0.988  12.159  20.369  0.00  0.00    +0.000 C 
ENDBRANCH  22  24
BRANCH  23  26
ATOM     26  O   UNL     1       0.482   8.643  21.328  0.00  0.00    +0.000 OA
ATOM     27  C   UNL     1       1.243   9.113  22.443  0.00  0.00    +0.000 C 
ENDBRANCH  23  26
ENDBRANCH  17  18
ENDBRANCH   5  17
TORSDOF 7
ENDMDL
MODEL 6
REMARK VINA RESULT:      -6.3      0.997      1.033
REMARK  Name = 
REMARK  11 active torsions:
REMARK  status: ('A' for Active; 'I' for Inactive)
REMARK    1  A    between atoms: C_1  and  O_2
REMARK    2  A    between atoms: O_2  and  C_3
REMARK    3  A    between atoms: C_9  and  O_10
REMARK    4  A    between atoms: O_10  and  C_11
REMARK    5  A    between atoms: C_11  and  C_12
REMARK    6  A    between atoms: N_15  and  C_16
REMARK    7  A    between atoms: C_16  and  C_17
REMARK    8  A    between atoms: C_21  and  O_22
REMARK    9  A    between atoms: O_22  and  C_23
REMARK   10  A    between atoms: C_24  and  O_25
REMARK   11  A    between atoms: O_25  and  C_26
REMARK                            x       y       z     vdW  Elec       q    Type
REMARK                         _______ _______ _______ _____ _____    ______ ____
ROOT
ATOM      1  C   UNL     1       0.256  10.930  19.430  0.00  0.00    +0.000 C 
ATOM      2  C   UNL     1       1.375  11.957  19.725  0.00  0.00    +0.000 C 
ATOM      3  C   UNL     1      -0.309  10.450  20.767  0.00  0.00    +0.000 C 
ATOM      4  C   UNL     1       0.540   9.233  21.093  0.00  0.00    +0.000 C 
ATOM      5  N   UNL     1       0.920   8.635  19.804  0.00  0.00    +0.000 NA
ATOM      6  C   UNL     1       0.921   9.704  18.785  0.00  0.00    +0.000 C 
ENDROOT
BRANCH   1   7
ATOM      7  O   UNL     1      -0.663  11.642  18.601  0.00  0.00    +0.000 OA
BRANCH   7  14
ATOM      8  C   UNL     1      -2.939  12.321  19.434  0.00  0.00    +0.000 A 
ATOM      9  C   UNL     1      -4.317  12.132  19.245  0.00  0.00    +0.000 A 
ATOM     10  C   UNL     1      -4.790  11.226  18.299  0.00  0.00    +0.000 A 
ATOM     11 CL   UNL     1      -6.485  11.013  18.092  0.00  0.00    +0.000 Cl
ATOM     12  C   UNL     1      -3.901  10.501  17.521  0.00  0.00    +0.000 A 
ATOM     13  C   UNL     1      -2.530  10.703  17.691  0.00  0.00    +0.000 A 
ATOM     14  C   UNL     1      -2.025  11.615  18.632  0.00  0.00    +0.000 A 
BRANCH   8  16
ATOM     15  C   UNL     1      -3.228  13.410  21.533  0.00  0.00    +0.000 C 
ATOM     16  O   UNL     1      -2.473  13.221  20.346  0.00  0.00    +0.000 OA
ENDBRANCH   8  16
ENDBRANCH   7  14
ENDBRANCH   1   7
BRANCH   5  17
ATOM     17  C   UNL     1       2.191   7.904  19.909  0.00  0.00    +0.000 C 
BRANCH  17  18
ATOM     18  C   UNL     1       2.102   6.395  19.769  0.00  0.00    +0.000 A 
ATOM     19  C   UNL     1       1.534   5.623  20.797  0.00  0.00    +0.000 A 
ATOM     20  C   UNL     1       1.322   4.257  20.642  0.00  0.00    +0.000 A 
ATOM     21  C   UNL     1       1.707   3.635  19.459  0.00  0.00    +0.000 A 
ATOM     22  C   UNL     1       2.322   4.366  18.435  0.00  0.00    +0.000 A 
ATOM     23  C   UNL     1       2.572   5.739  18.610  0.00  0.00    +0.000 A 
BRANCH  22  24
ATOM     24  O   UNL     1       2.642   3.602  17.342  0.00  0.00    +0.000 OA
ATOM     25  C   UNL     1       3.808   2.797  17.466  0.00  0.00    +0.000 C 
ENDBRANCH  22  24
BRANCH  23  26
ATOM     26  O   UNL     1       3.157   6.464  17.600  0.00  0.00    +0.000 OA
ATOM     27  C   UNL     1       4.585   6.447  17.655  0.00  0.00    +0.000 C 
ENDBRANCH  23  26
ENDBRANCH  17  18
ENDBRANCH   5  17
TORSDOF 7
ENDMDL
MODEL 7
REMARK VINA RESULT:      -6.3      2.242      3.414
REMARK  Name = 
REMARK  11 active torsions:
REMARK  status: ('A' for Active; 'I' for Inactive)
REMARK    1  A    between atoms: C_1  and  O_2
REMARK    2  A    between atoms: O_2  and  C_3
REMARK    3  A    between atoms: C_9  and  O_10
REMARK    4  A    between atoms: O_10  and  C_11
REMARK    5  A    between atoms: C_11  and  C_12
REMARK    6  A    between atoms: N_15  and  C_16
REMARK    7  A    between atoms: C_16  and  C_17
REMARK    8  A    between atoms: C_21  and  O_22
REMARK    9  A    between atoms: O_22  and  C_23
REMARK   10  A    between atoms: C_24  and  O_25
REMARK   11  A    between atoms: O_25  and  C_26
REMARK                            x       y       z     vdW  Elec       q    Type
REMARK                         _______ _______ _______ _____ _____    ______ ____
ROOT
ATOM      1  C   UNL     1       0.952  10.166  19.500  0.00  0.00    +0.000 C 
ATOM      2  C   UNL     1      -0.524  10.144  19.038  0.00  0.00    +0.000 C 
ATOM      3  C   UNL     1       1.812  10.607  18.316  0.00  0.00    +0.000 C 
ATOM      4  C   UNL     1       2.181   9.297  17.640  0.00  0.00    +0.000 C 
ATOM      5  N   UNL     1       2.247   8.285  18.705  0.00  0.00    +0.000 NA
ATOM      6  C   UNL     1       1.357   8.715  19.803  0.00  0.00    +0.000 C 
ENDROOT
BRANCH   1   7
ATOM      7  O   UNL     1       0.955  11.054  20.618  0.00  0.00    +0.000 OA
BRANCH   7  14
ATOM      8  C   UNL     1      -0.873  12.708  21.125  0.00  0.00    +0.000 A 
ATOM      9  C   UNL     1      -1.959  12.970  21.976  0.00  0.00    +0.000 A 
ATOM     10  C   UNL     1      -2.267  12.111  23.027  0.00  0.00    +0.000 A 
ATOM     11 CL   UNL     1      -3.601  12.461  24.055  0.00  0.00    +0.000 Cl
ATOM     12  C   UNL     1      -1.506  10.972  23.243  0.00  0.00    +0.000 A 
ATOM     13  C   UNL     1      -0.439  10.696  22.386  0.00  0.00    +0.000 A 
ATOM     14  C   UNL     1      -0.111  11.542  21.313  0.00  0.00    +0.000 A 
BRANCH   8  16
ATOM     15  C   UNL     1      -1.064  14.871  20.146  0.00  0.00    +0.000 C 
ATOM     16  O   UNL     1      -0.582  13.537  20.084  0.00  0.00    +0.000 OA
ENDBRANCH   8  16
ENDBRANCH   7  14
ENDBRANCH   1   7
BRANCH   5  17
ATOM     17  C   UNL     1       1.954   6.942  18.185  0.00  0.00    +0.000 C 
BRANCH  17  18
ATOM     18  C   UNL     1       3.072   5.923  18.311  0.00  0.00    +0.000 A 
ATOM     19  C   UNL     1       4.396   6.286  18.007  0.00  0.00    +0.000 A 
ATOM     20  C   UNL     1       5.456   5.414  18.237  0.00  0.00    +0.000 A 
ATOM     21  C   UNL     1       5.199   4.146  18.749  0.00  0.00    +0.000 A 
ATOM     22  C   UNL     1       3.888   3.736  19.016  0.00  0.00    +0.000 A 
ATOM     23  C   UNL     1       2.815   4.604  18.745  0.00  0.00    +0.000 A 
BRANCH  22  24
ATOM     24  O   UNL     1       3.809   2.459  19.511  0.00  0.00    +0.000 OA
ATOM     25  C   UNL     1       3.606   1.431  18.550  0.00  0.00    +0.000 C 
ENDBRANCH  22  24
BRANCH  23  26
ATOM     26  O   UNL     1       1.527   4.212  19.023  0.00  0.00    +0.000 OA
ATOM     27  C   UNL     1       1.208   4.291  20.414  0.00  0.00    +0.000 C 
ENDBRANCH  23  26
ENDBRANCH  17  18
ENDBRANCH   5  17
TORSDOF 7
ENDMDL
MODEL 8
REMARK VINA RESULT:      -6.2      3.790      9.022
REMARK  Name = 
REMARK  11 active torsions:
REMARK  status: ('A' for Active; 'I' for Inactive)
REMARK    1  A    between atoms: C_1  and  O_2
REMARK    2  A    between atoms: O_2  and  C_3
REMARK    3  A    between atoms: C_9  and  O_10
REMARK    4  A    between atoms: O_10  and  C_11
REMARK    5  A    between atoms: C_11  and  C_12
REMARK    6  A    between atoms: N_15  and  C_16
REMARK    7  A    between atoms: C_16  and  C_17
REMARK    8  A    between atoms: C_21  and  O_22
REMARK    9  A    between atoms: O_22  and  C_23
REMARK   10  A    between atoms: C_24  and  O_25
REMARK   11  A    between atoms: O_25  and  C_26
REMARK                            x       y       z     vdW  Elec       q    Type
REMARK                         _______ _______ _______ _____ _____    ______ ____
ROOT
ATOM      1  C   UNL     1       2.690   6.318  19.161  0.00  0.00    +0.000 C 
ATOM      2  C   UNL     1       1.789   5.604  18.125  0.00  0.00    +0.000 C 
ATOM      3  C   UNL     1       2.123   6.038  20.552  0.00  0.00    +0.000 C 
ATOM      4  C   UNL     1       1.167   7.195  20.784  0.00  0.00    +0.000 C 
ATOM      5  N   UNL     1       1.724   8.346  20.056  0.00  0.00    +0.000 NA
ATOM      6  C   UNL     1       2.536   7.830  18.935  0.00  0.00    +0.000 C 
ENDROOT
BRANCH   1   7
ATOM      7  O   UNL     1       3.993   5.786  18.917  0.00  0.00    +0.000 OA
BRANCH   7  14
ATOM      8  C   UNL     1       4.607   3.861  17.415  0.00  0.00    +0.000 A 
ATOM      9  C   UNL     1       5.109   3.530  16.147  0.00  0.00    +0.000 A 
ATOM     10  C   UNL     1       5.509   4.522  15.256  0.00  0.00    +0.000 A 
ATOM     11 CL   UNL     1       6.124   4.085  13.709  0.00  0.00    +0.000 Cl
ATOM     12  C   UNL     1       5.408   5.859  15.608  0.00  0.00    +0.000 A 
ATOM     13  C   UNL     1       4.889   6.193  16.861  0.00  0.00    +0.000 A 
ATOM     14  C   UNL     1       4.471   5.213  17.776  0.00  0.00    +0.000 A 
BRANCH   8  16
ATOM     15  C   UNL     1       3.070   2.112  17.916  0.00  0.00    +0.000 C 
ATOM     16  O   UNL     1       4.197   2.893  18.282  0.00  0.00    +0.000 OA
ENDBRANCH   8  16
ENDBRANCH   7  14
ENDBRANCH   1   7
BRANCH   5  17
ATOM     17  C   UNL     1       0.668   9.284  19.651  0.00  0.00    +0.000 C 
BRANCH  17  18
ATOM     18  C   UNL     1       1.037  10.756  19.692  0.00  0.00    +0.000 A 
ATOM     19  C   UNL     1       1.473  11.408  18.525  0.00  0.00    +0.000 A 
ATOM     20  C   UNL     1       1.694  12.781  18.505  0.00  0.00    +0.000 A 
ATOM     21  C   UNL     1       1.508  13.521  19.667  0.00  0.00    +0.000 A 
ATOM     22  C   UNL     1       1.122  12.896  20.858  0.00  0.00    +0.000 A 
ATOM     23  C   UNL     1       0.939  11.501  20.888  0.00  0.00    +0.000 A 
BRANCH  22  24
ATOM     24  O   UNL     1       0.989  13.766  21.910  0.00  0.00    +0.000 OA
ATOM     25  C   UNL     1       1.347  15.117  21.647  0.00  0.00    +0.000 C 
ENDBRANCH  22  24
BRANCH  23  26
ATOM     26  O   UNL     1       0.542  10.886  22.050  0.00  0.00    +0.000 OA
ATOM     27  C   UNL     1      -0.849  11.064  22.330  0.00  0.00    +0.000 C 
ENDBRANCH  23  26
ENDBRANCH  17  18
ENDBRANCH   5  17
TORSDOF 7
ENDMDL
MODEL 9
REMARK VINA RESULT:      -6.2      1.135      1.975
REMARK  Name = 
REMARK  11 active torsions:
REMARK  status: ('A' for Active; 'I' for Inactive)
REMARK    1  A    between atoms: C_1  and  O_2
REMARK    2  A    between atoms: O_2  and  C_3
REMARK    3  A    between atoms: C_9  and  O_10
REMARK    4  A    between atoms: O_10  and  C_11
REMARK    5  A    between atoms: C_11  and  C_12
REMARK    6  A    between atoms: N_15  and  C_16
REMARK    7  A    between atoms: C_16  and  C_17
REMARK    8  A    between atoms: C_21  and  O_22
REMARK    9  A    between atoms: O_22  and  C_23
REMARK   10  A    between atoms: C_24  and  O_25
REMARK   11  A    between atoms: O_25  and  C_26
REMARK                            x       y       z     vdW  Elec       q    Type
REMARK                         _______ _______ _______ _____ _____    ______ ____
ROOT
ATOM      1  C   UNL     1       0.356  11.092  19.338  0.00  0.00    +0.000 C 
ATOM      2  C   UNL     1       1.447  12.075  19.824  0.00  0.00    +0.000 C 
ATOM      3  C   UNL     1      -0.276  10.442  20.568  0.00  0.00    +0.000 C 
ATOM      4  C   UNL     1       0.566   9.195  20.781  0.00  0.00    +0.000 C 
ATOM      5  N   UNL     1       1.021   8.770  19.449  0.00  0.00    +0.000 NA
ATOM      6  C   UNL     1       1.068   9.961  18.577  0.00  0.00    +0.000 C 
ENDROOT
BRANCH   1   7
ATOM      7  O   UNL     1      -0.523  11.903  18.558  0.00  0.00    +0.000 OA
BRANCH   7  14
ATOM      8  C   UNL     1      -2.726  11.332  17.482  0.00  0.00    +0.000 A 
ATOM      9  C   UNL     1      -4.118  11.366  17.663  0.00  0.00    +0.000 A 
ATOM     10  C   UNL     1      -4.675  11.935  18.805  0.00  0.00    +0.000 A 
ATOM     11 CL   UNL     1      -6.385  11.966  18.998  0.00  0.00    +0.000 Cl
ATOM     12  C   UNL     1      -3.857  12.471  19.788  0.00  0.00    +0.000 A 
ATOM     13  C   UNL     1      -2.472  12.419  19.621  0.00  0.00    +0.000 A 
ATOM     14  C   UNL     1      -1.883  11.844  18.483  0.00  0.00    +0.000 A 
BRANCH   8  16
ATOM     15  C   UNL     1      -2.956   9.804  15.668  0.00  0.00    +0.000 C 
ATOM     16  O   UNL     1      -2.177  10.758  16.374  0.00  0.00    +0.000 OA
ENDBRANCH   8  16
ENDBRANCH   7  14
ENDBRANCH   1   7
BRANCH   5  17
ATOM     17  C   UNL     1       2.292   8.035  19.529  0.00  0.00    +0.000 C 
BRANCH  17  18
ATOM     18  C   UNL     1       2.183   6.521  19.536  0.00  0.00    +0.000 A 
ATOM     19  C   UNL     1       1.562   5.862  20.612  0.00  0.00    +0.000 A 
ATOM     20  C   UNL     1       1.334   4.490  20.585  0.00  0.00    +0.000 A 
ATOM     21  C   UNL     1       1.754   3.749  19.486  0.00  0.00    +0.000 A 
ATOM     22  C   UNL     1       2.420   4.365  18.420  0.00  0.00    +0.000 A 
ATOM     23  C   UNL     1       2.686   5.746  18.468  0.00  0.00    +0.000 A 
BRANCH  22  24
ATOM     24  O   UNL     1       2.770   3.493  17.422  0.00  0.00    +0.000 OA
ATOM     25  C   UNL     1       2.858   2.123  17.796  0.00  0.00    +0.000 C 
ENDBRANCH  22  24
BRANCH  23  26
ATOM     26  O   UNL     1       3.322   6.359  17.415  0.00  0.00    +0.000 OA
ATOM     27  C   UNL     1       4.746   6.255  17.485  0.00  0.00    +0.000 C 
ENDBRANCH  23  26
ENDBRANCH  17  18
ENDBRANCH   5  17
TORSDOF 7
ENDMDL
