MODEL 1
REMARK VINA RESULT:      -8.1      0.000      0.000
REMARK  Name = 
REMARK  4 active torsions:
REMARK  status: ('A' for Active; 'I' for Inactive)
REMARK    1  A    between atoms: C_2  and  C_3
REMARK    2  A    between atoms: C_8  and  O_9
REMARK    3  A    between atoms: O_9  and  C_10
REMARK    4  A    between atoms: C_20  and  O_21
REMARK                            x       y       z     vdW  Elec       q    Type
REMARK                         _______ _______ _______ _____ _____    ______ ____
ROOT
ATOM      1  C   UNL     1       3.772   3.760  18.598  0.00  0.00    +0.000 A 
ATOM      2  C   UNL     1       3.215   2.628  17.989  0.00  0.00    +0.000 A 
ATOM      3  C   UNL     1       1.857   2.348  18.150  0.00  0.00    +0.000 A 
ATOM      4  C   UNL     1       1.108   3.208  18.932  0.00  0.00    +0.000 A 
ATOM      5  N   UNL     1       1.607   4.325  19.499  0.00  0.00    +0.000 NA
ATOM      6  C   UNL     1       2.918   4.615  19.276  0.00  0.00    +0.000 A 
ENDROOT
BRANCH   1   8
ATOM      7  O   UNL     1       5.918   4.081  19.420  0.00  0.00    +0.000 OA
ATOM      8  C   UNL     1       5.212   4.032  18.413  0.00  0.00    +0.000 C 
ATOM      9  N   UNL     1       5.707   4.274  17.140  0.00  0.00    +0.000 N 
ATOM     10  C   UNL     1       7.125   4.549  16.950  0.00  0.00    +0.000 C 
ATOM     11  C   UNL     1       7.236   5.198  15.574  0.00  0.00    +0.000 C 
ATOM     12  C   UNL     1       6.003   4.698  14.833  0.00  0.00    +0.000 C 
ATOM     13  C   UNL     1       4.949   4.606  15.935  0.00  0.00    +0.000 C 
BRANCH  12  14
ATOM     14  O   UNL     1       6.258   3.421  14.249  0.00  0.00    +0.000 OA
ATOM     15  H   UNL     1       6.270   2.756  14.962  0.00  0.00    +0.000 HD
ENDBRANCH  12  14
ENDBRANCH   1   8
BRANCH   6  16
ATOM     16  O   UNL     1       3.413   5.842  19.718  0.00  0.00    +0.000 OA
BRANCH  16  17
ATOM     17  C   UNL     1       2.667   6.965  19.445  0.00  0.00    +0.000 A 
ATOM     18  C   UNL     1       2.653   7.444  18.136  0.00  0.00    +0.000 A 
ATOM     19  C   UNL     1       1.924   8.602  17.837  0.00  0.00    +0.000 A 
ATOM     20  C   UNL     1       1.214   9.255  18.839  0.00  0.00    +0.000 A 
ATOM     21 CL   UNL     1       0.364  10.709  18.488  0.00  0.00    +0.000 Cl
ATOM     22  C   UNL     1       1.189   8.744  20.137  0.00  0.00    +0.000 A 
ATOM     23  C   UNL     1       1.898   7.585  20.433  0.00  0.00    +0.000 A 
ENDBRANCH  16  17
ENDBRANCH   6  16
TORSDOF 4
ENDMDL
MODEL 2
REMARK VINA RESULT:      -8.1      0.072      1.035
REMARK  Name = 
REMARK  4 active torsions:
REMARK  status: ('A' for Active; 'I' for Inactive)
REMARK    1  A    between atoms: C_2  and  C_3
REMARK    2  A    between atoms: C_8  and  O_9
REMARK    3  A    between atoms: O_9  and  C_10
REMARK    4  A    between atoms: C_20  and  O_21
REMARK                            x       y       z     vdW  Elec       q    Type
REMARK                         _______ _______ _______ _____ _____    ______ ____
ROOT
ATOM      1  C   UNL     1       3.742   3.724  18.618  0.00  0.00    +0.000 A 
ATOM      2  C   UNL     1       3.193   2.599  17.989  0.00  0.00    +0.000 A 
ATOM      3  C   UNL     1       1.834   2.313  18.136  0.00  0.00    +0.000 A 
ATOM      4  C   UNL     1       1.077   3.160  18.925  0.00  0.00    +0.000 A 
ATOM      5  N   UNL     1       1.569   4.270  19.511  0.00  0.00    +0.000 NA
ATOM      6  C   UNL     1       2.881   4.567  19.301  0.00  0.00    +0.000 A 
ENDROOT
BRANCH   1   8
ATOM      7  O   UNL     1       5.880   4.044  19.459  0.00  0.00    +0.000 OA
ATOM      8  C   UNL     1       5.182   4.003  18.446  0.00  0.00    +0.000 C 
ATOM      9  N   UNL     1       5.686   4.258  17.180  0.00  0.00    +0.000 N 
ATOM     10  C   UNL     1       7.106   4.540  17.004  0.00  0.00    +0.000 C 
ATOM     11  C   UNL     1       7.225   5.202  15.635  0.00  0.00    +0.000 C 
ATOM     12  C   UNL     1       5.999   4.705  14.879  0.00  0.00    +0.000 C 
ATOM     13  C   UNL     1       4.937   4.599  15.972  0.00  0.00    +0.000 C 
BRANCH  12  14
ATOM     14  O   UNL     1       6.264   3.435  14.285  0.00  0.00    +0.000 OA
ATOM     15  H   UNL     1       6.997   3.017  14.772  0.00  0.00    +0.000 HD
ENDBRANCH  12  14
ENDBRANCH   1   8
BRANCH   6  16
ATOM     16  O   UNL     1       3.369   5.790  19.763  0.00  0.00    +0.000 OA
BRANCH  16  17
ATOM     17  C   UNL     1       2.662   6.922  19.435  0.00  0.00    +0.000 A 
ATOM     18  C   UNL     1       1.949   7.569  20.442  0.00  0.00    +0.000 A 
ATOM     19  C   UNL     1       1.197   8.709  20.128  0.00  0.00    +0.000 A 
ATOM     20  C   UNL     1       1.178   9.191  18.823  0.00  0.00    +0.000 A 
ATOM     21 CL   UNL     1       0.211  10.556  18.422  0.00  0.00    +0.000 Cl
ATOM     22  C   UNL     1       1.933   8.571  17.828  0.00  0.00    +0.000 A 
ATOM     23  C   UNL     1       2.694   7.450  18.141  0.00  0.00    +0.000 A 
ENDBRANCH  16  17
ENDBRANCH   6  16
TORSDOF 4
ENDMDL
MODEL 3
REMARK VINA RESULT:      -8.0      1.572      1.967
REMARK  Name = 
REMARK  4 active torsions:
REMARK  status: ('A' for Active; 'I' for Inactive)
REMARK    1  A    between atoms: C_2  and  C_3
REMARK    2  A    between atoms: C_8  and  O_9
REMARK    3  A    between atoms: O_9  and  C_10
REMARK    4  A    between atoms: C_20  and  O_21
REMARK                            x       y       z     vdW  Elec       q    Type
REMARK                         _______ _______ _______ _____ _____    ______ ____
ROOT
ATOM      1  C   UNL     1       3.947   4.325  18.664  0.00  0.00    +0.000 A 
ATOM      2  C   UNL     1       3.753   3.332  17.694  0.00  0.00    +0.000 A 
ATOM      3  C   UNL     1       2.470   3.075  17.207  0.00  0.00    +0.000 A 
ATOM      4  C   UNL     1       1.422   3.815  17.726  0.00  0.00    +0.000 A 
ATOM      5  N   UNL     1       1.582   4.801  18.631  0.00  0.00    +0.000 NA
ATOM      6  C   UNL     1       2.849   5.080  19.043  0.00  0.00    +0.000 A 
ENDROOT
BRANCH   1   8
ATOM      7  O   UNL     1       5.653   4.016  20.205  0.00  0.00    +0.000 OA
ATOM      8  C   UNL     1       5.314   4.575  19.162  0.00  0.00    +0.000 C 
ATOM      9  N   UNL     1       6.141   5.458  18.484  0.00  0.00    +0.000 N 
ATOM     10  C   UNL     1       7.490   5.715  18.974  0.00  0.00    +0.000 C 
ATOM     11  C   UNL     1       7.928   7.013  18.304  0.00  0.00    +0.000 C 
ATOM     12  C   UNL     1       7.079   7.079  17.041  0.00  0.00    +0.000 C 
ATOM     13  C   UNL     1       5.759   6.446  17.476  0.00  0.00    +0.000 C 
BRANCH  12  14
ATOM     14  O   UNL     1       7.693   6.333  15.990  0.00  0.00    +0.000 OA
ATOM     15  H   UNL     1       8.659   6.380  16.107  0.00  0.00    +0.000 HD
ENDBRANCH  12  14
ENDBRANCH   1   8
BRANCH   6  16
ATOM     16  O   UNL     1       3.054   6.197  19.854  0.00  0.00    +0.000 OA
BRANCH  16  17
ATOM     17  C   UNL     1       2.362   7.343  19.545  0.00  0.00    +0.000 A 
ATOM     18  C   UNL     1       1.607   7.948  20.548  0.00  0.00    +0.000 A 
ATOM     19  C   UNL     1       0.868   9.101  20.252  0.00  0.00    +0.000 A 
ATOM     20  C   UNL     1       0.904   9.638  18.969  0.00  0.00    +0.000 A 
ATOM     21 CL   UNL     1      -0.045  11.021  18.586  0.00  0.00    +0.000 Cl
ATOM     22  C   UNL     1       1.701   9.061  17.981  0.00  0.00    +0.000 A 
ATOM     23  C   UNL     1       2.448   7.926  18.277  0.00  0.00    +0.000 A 
ENDBRANCH  16  17
ENDBRANCH   6  16
TORSDOF 4
ENDMDL
MODEL 4
REMARK VINA RESULT:      -7.9      1.546      1.645
REMARK  Name = 
REMARK  4 active torsions:
REMARK  status: ('A' for Active; 'I' for Inactive)
REMARK    1  A    between atoms: C_2  and  C_3
REMARK    2  A    between atoms: C_8  and  O_9
REMARK    3  A    between atoms: O_9  and  C_10
REMARK    4  A    between atoms: C_20  and  O_21
REMARK                            x       y       z     vdW  Elec       q    Type
REMARK                         _______ _______ _______ _____ _____    ______ ____
ROOT
ATOM      1  C   UNL     1       3.939   4.297  18.684  0.00  0.00    +0.000 A 
ATOM      2  C   UNL     1       3.752   3.326  17.691  0.00  0.00    +0.000 A 
ATOM      3  C   UNL     1       2.468   3.055  17.215  0.00  0.00    +0.000 A 
ATOM      4  C   UNL     1       1.412   3.759  17.767  0.00  0.00    +0.000 A 
ATOM      5  N   UNL     1       1.565   4.724  18.695  0.00  0.00    +0.000 NA
ATOM      6  C   UNL     1       2.832   5.019  19.098  0.00  0.00    +0.000 A 
ENDROOT
BRANCH   1   8
ATOM      7  O   UNL     1       5.658   4.018  20.217  0.00  0.00    +0.000 OA
ATOM      8  C   UNL     1       5.308   4.563  19.170  0.00  0.00    +0.000 C 
ATOM      9  N   UNL     1       6.124   5.443  18.476  0.00  0.00    +0.000 N 
ATOM     10  C   UNL     1       7.474   5.716  18.953  0.00  0.00    +0.000 C 
ATOM     11  C   UNL     1       7.899   7.009  18.265  0.00  0.00    +0.000 C 
ATOM     12  C   UNL     1       7.041   7.053  17.007  0.00  0.00    +0.000 C 
ATOM     13  C   UNL     1       5.728   6.416  17.459  0.00  0.00    +0.000 C 
BRANCH  12  14
ATOM     14  O   UNL     1       7.653   6.299  15.961  0.00  0.00    +0.000 OA
ATOM     15  H   UNL     1       8.618   6.422  16.021  0.00  0.00    +0.000 HD
ENDBRANCH  12  14
ENDBRANCH   1   8
BRANCH   6  16
ATOM     16  O   UNL     1       3.025   6.118  19.935  0.00  0.00    +0.000 OA
BRANCH  16  17
ATOM     17  C   UNL     1       2.351   7.277  19.630  0.00  0.00    +0.000 A 
ATOM     18  C   UNL     1       2.432   7.763  18.326  0.00  0.00    +0.000 A 
ATOM     19  C   UNL     1       1.778   8.957  17.997  0.00  0.00    +0.000 A 
ATOM     20  C   UNL     1       1.046   9.638  18.964  0.00  0.00    +0.000 A 
ATOM     21 CL   UNL     1       0.288  11.134  18.578  0.00  0.00    +0.000 Cl
ATOM     22  C   UNL     1       0.923   9.122  20.254  0.00  0.00    +0.000 A 
ATOM     23  C   UNL     1       1.558   7.928  20.579  0.00  0.00    +0.000 A 
ENDBRANCH  16  17
ENDBRANCH   6  16
TORSDOF 4
ENDMDL
MODEL 5
REMARK VINA RESULT:      -7.5      2.051      4.568
REMARK  Name = 
REMARK  4 active torsions:
REMARK  status: ('A' for Active; 'I' for Inactive)
REMARK    1  A    between atoms: C_2  and  C_3
REMARK    2  A    between atoms: C_8  and  O_9
REMARK    3  A    between atoms: O_9  and  C_10
REMARK    4  A    between atoms: C_20  and  O_21
REMARK                            x       y       z     vdW  Elec       q    Type
REMARK                         _______ _______ _______ _____ _____    ______ ____
ROOT
ATOM      1  C   UNL     1       4.313   4.774  17.916  0.00  0.00    +0.000 A 
ATOM      2  C   UNL     1       5.608   4.409  18.306  0.00  0.00    +0.000 A 
ATOM      3  C   UNL     1       6.646   5.340  18.235  0.00  0.00    +0.000 A 
ATOM      4  C   UNL     1       6.348   6.604  17.758  0.00  0.00    +0.000 A 
ATOM      5  N   UNL     1       5.105   6.996  17.411  0.00  0.00    +0.000 NA
ATOM      6  C   UNL     1       4.096   6.092  17.550  0.00  0.00    +0.000 A 
ENDROOT
BRANCH   1   8
ATOM      7  O   UNL     1       2.832   3.273  16.948  0.00  0.00    +0.000 OA
ATOM      8  C   UNL     1       3.234   3.769  18.001  0.00  0.00    +0.000 C 
ATOM      9  N   UNL     1       2.679   3.459  19.233  0.00  0.00    +0.000 N 
ATOM     10  C   UNL     1       1.610   2.473  19.324  0.00  0.00    +0.000 C 
ATOM     11  C   UNL     1       0.948   2.709  20.678  0.00  0.00    +0.000 C 
ATOM     12  C   UNL     1       2.039   3.373  21.508  0.00  0.00    +0.000 C 
ATOM     13  C   UNL     1       2.795   4.214  20.481  0.00  0.00    +0.000 C 
BRANCH  12  14
ATOM     14  O   UNL     1       2.886   2.386  22.096  0.00  0.00    +0.000 OA
ATOM     15  H   UNL     1       3.288   1.862  21.379  0.00  0.00    +0.000 HD
ENDBRANCH  12  14
ENDBRANCH   1   8
BRANCH   6  16
ATOM     16  O   UNL     1       2.785   6.524  17.351  0.00  0.00    +0.000 OA
BRANCH  16  17
ATOM     17  C   UNL     1       2.297   7.490  18.199  0.00  0.00    +0.000 A 
ATOM     18  C   UNL     1       2.222   7.196  19.559  0.00  0.00    +0.000 A 
ATOM     19  C   UNL     1       1.701   8.152  20.441  0.00  0.00    +0.000 A 
ATOM     20  C   UNL     1       1.278   9.386  19.957  0.00  0.00    +0.000 A 
ATOM     21 CL   UNL     1       0.586  10.542  21.028  0.00  0.00    +0.000 Cl
ATOM     22  C   UNL     1       1.402   9.697  18.603  0.00  0.00    +0.000 A 
ATOM     23  C   UNL     1       1.933   8.755  17.728  0.00  0.00    +0.000 A 
ENDBRANCH  16  17
ENDBRANCH   6  16
TORSDOF 4
ENDMDL
MODEL 6
REMARK VINA RESULT:      -7.4      2.019      2.757
REMARK  Name = 
REMARK  4 active torsions:
REMARK  status: ('A' for Active; 'I' for Inactive)
REMARK    1  A    between atoms: C_2  and  C_3
REMARK    2  A    between atoms: C_8  and  O_9
REMARK    3  A    between atoms: O_9  and  C_10
REMARK    4  A    between atoms: C_20  and  O_21
REMARK                            x       y       z     vdW  Elec       q    Type
REMARK                         _______ _______ _______ _____ _____    ______ ____
ROOT
ATOM      1  C   UNL     1       2.949   5.357  18.385  0.00  0.00    +0.000 A 
ATOM      2  C   UNL     1       2.453   4.262  17.665  0.00  0.00    +0.000 A 
ATOM      3  C   UNL     1       1.439   3.472  18.211  0.00  0.00    +0.000 A 
ATOM      4  C   UNL     1       0.971   3.800  19.470  0.00  0.00    +0.000 A 
ATOM      5  N   UNL     1       1.402   4.869  20.170  0.00  0.00    +0.000 NA
ATOM      6  C   UNL     1       2.344   5.664  19.592  0.00  0.00    +0.000 A 
ENDROOT
BRANCH   1   8
ATOM      7  O   UNL     1       3.693   7.045  16.979  0.00  0.00    +0.000 OA
ATOM      8  C   UNL     1       4.022   6.175  17.785  0.00  0.00    +0.000 C 
ATOM      9  N   UNL     1       5.346   5.909  18.100  0.00  0.00    +0.000 N 
ATOM     10  C   UNL     1       6.411   6.708  17.506  0.00  0.00    +0.000 C 
ATOM     11  C   UNL     1       7.686   5.891  17.688  0.00  0.00    +0.000 C 
ATOM     12  C   UNL     1       7.383   4.999  18.884  0.00  0.00    +0.000 C 
ATOM     13  C   UNL     1       5.891   4.708  18.731  0.00  0.00    +0.000 C 
BRANCH  12  14
ATOM     14  O   UNL     1       7.656   5.691  20.102  0.00  0.00    +0.000 OA
ATOM     15  H   UNL     1       7.427   6.630  19.978  0.00  0.00    +0.000 HD
ENDBRANCH  12  14
ENDBRANCH   1   8
BRANCH   6  16
ATOM     16  O   UNL     1       2.687   6.859  20.227  0.00  0.00    +0.000 OA
BRANCH  16  17
ATOM     17  C   UNL     1       1.786   7.895  20.161  0.00  0.00    +0.000 A 
ATOM     18  C   UNL     1       1.023   8.178  21.292  0.00  0.00    +0.000 A 
ATOM     19  C   UNL     1       0.077   9.211  21.242  0.00  0.00    +0.000 A 
ATOM     20  C   UNL     1      -0.083   9.950  20.075  0.00  0.00    +0.000 A 
ATOM     21 CL   UNL     1      -1.282  11.182  19.990  0.00  0.00    +0.000 Cl
ATOM     22  C   UNL     1       0.718   9.699  18.961  0.00  0.00    +0.000 A 
ATOM     23  C   UNL     1       1.669   8.686  19.014  0.00  0.00    +0.000 A 
ENDBRANCH  16  17
ENDBRANCH   6  16
TORSDOF 4
ENDMDL
MODEL 7
REMARK VINA RESULT:      -7.4      2.040      4.482
REMARK  Name = 
REMARK  4 active torsions:
REMARK  status: ('A' for Active; 'I' for Inactive)
REMARK    1  A    between atoms: C_2  and  C_3
REMARK    2  A    between atoms: C_8  and  O_9
REMARK    3  A    between atoms: O_9  and  C_10
REMARK    4  A    between atoms: C_20  and  O_21
REMARK                            x       y       z     vdW  Elec       q    Type
REMARK                         _______ _______ _______ _____ _____    ______ ____
ROOT
ATOM      1  C   UNL     1       4.334   4.773  17.886  0.00  0.00    +0.000 A 
ATOM      2  C   UNL     1       5.633   4.407  18.263  0.00  0.00    +0.000 A 
ATOM      3  C   UNL     1       6.668   5.342  18.193  0.00  0.00    +0.000 A 
ATOM      4  C   UNL     1       6.363   6.610  17.731  0.00  0.00    +0.000 A 
ATOM      5  N   UNL     1       5.117   7.002  17.397  0.00  0.00    +0.000 NA
ATOM      6  C   UNL     1       4.111   6.094  17.535  0.00  0.00    +0.000 A 
ENDROOT
BRANCH   1   8
ATOM      7  O   UNL     1       2.862   3.266  16.915  0.00  0.00    +0.000 OA
ATOM      8  C   UNL     1       3.259   3.764  17.968  0.00  0.00    +0.000 C 
ATOM      9  N   UNL     1       2.701   3.454  19.199  0.00  0.00    +0.000 N 
ATOM     10  C   UNL     1       1.634   2.464  19.287  0.00  0.00    +0.000 C 
ATOM     11  C   UNL     1       0.968   2.699  20.639  0.00  0.00    +0.000 C 
ATOM     12  C   UNL     1       2.054   3.368  21.472  0.00  0.00    +0.000 C 
ATOM     13  C   UNL     1       2.809   4.210  20.446  0.00  0.00    +0.000 C 
BRANCH  12  14
ATOM     14  O   UNL     1       2.902   2.385  22.064  0.00  0.00    +0.000 OA
ATOM     15  H   UNL     1       3.738   2.816  22.318  0.00  0.00    +0.000 HD
ENDBRANCH  12  14
ENDBRANCH   1   8
BRANCH   6  16
ATOM     16  O   UNL     1       2.797   6.524  17.349  0.00  0.00    +0.000 OA
BRANCH  16  17
ATOM     17  C   UNL     1       2.303   7.460  18.227  0.00  0.00    +0.000 A 
ATOM     18  C   UNL     1       1.877   8.684  17.714  0.00  0.00    +0.000 A 
ATOM     19  C   UNL     1       1.397   9.666  18.591  0.00  0.00    +0.000 A 
ATOM     20  C   UNL     1       1.338   9.409  19.957  0.00  0.00    +0.000 A 
ATOM     21 CL   UNL     1       0.802  10.631  21.043  0.00  0.00    +0.000 Cl
ATOM     22  C   UNL     1       1.716   8.164  20.461  0.00  0.00    +0.000 A 
ATOM     23  C   UNL     1       2.177   7.182  19.591  0.00  0.00    +0.000 A 
ENDBRANCH  16  17
ENDBRANCH   6  16
TORSDOF 4
ENDMDL
MODEL 8
REMARK VINA RESULT:      -7.4      2.065      2.640
REMARK  Name = 
REMARK  4 active torsions:
REMARK  status: ('A' for Active; 'I' for Inactive)
REMARK    1  A    between atoms: C_2  and  C_3
REMARK    2  A    between atoms: C_8  and  O_9
REMARK    3  A    between atoms: O_9  and  C_10
REMARK    4  A    between atoms: C_20  and  O_21
REMARK                            x       y       z     vdW  Elec       q    Type
REMARK                         _______ _______ _______ _____ _____    ______ ____
ROOT
ATOM      1  C   UNL     1       2.828   5.428  18.598  0.00  0.00    +0.000 A 
ATOM      2  C   UNL     1       2.328   4.289  17.953  0.00  0.00    +0.000 A 
ATOM      3  C   UNL     1       1.335   3.521  18.564  0.00  0.00    +0.000 A 
ATOM      4  C   UNL     1       0.890   3.917  19.813  0.00  0.00    +0.000 A 
ATOM      5  N   UNL     1       1.324   5.027  20.442  0.00  0.00    +0.000 NA
ATOM      6  C   UNL     1       2.245   5.798  19.799  0.00  0.00    +0.000 A 
ENDROOT
BRANCH   1   8
ATOM      7  O   UNL     1       3.520   7.090  17.135  0.00  0.00    +0.000 OA
ATOM      8  C   UNL     1       3.878   6.221  17.929  0.00  0.00    +0.000 C 
ATOM      9  N   UNL     1       5.214   5.933  18.170  0.00  0.00    +0.000 N 
ATOM     10  C   UNL     1       6.257   6.707  17.508  0.00  0.00    +0.000 C 
ATOM     11  C   UNL     1       7.526   5.869  17.624  0.00  0.00    +0.000 C 
ATOM     12  C   UNL     1       7.275   4.992  18.845  0.00  0.00    +0.000 C 
ATOM     13  C   UNL     1       5.772   4.728  18.780  0.00  0.00    +0.000 C 
BRANCH  12  14
ATOM     14  O   UNL     1       7.631   5.690  20.038  0.00  0.00    +0.000 OA
ATOM     15  H   UNL     1       6.838   6.147  20.372  0.00  0.00    +0.000 HD
ENDBRANCH  12  14
ENDBRANCH   1   8
BRANCH   6  16
ATOM     16  O   UNL     1       2.588   7.030  20.357  0.00  0.00    +0.000 OA
BRANCH  16  17
ATOM     17  C   UNL     1       1.647   8.031  20.314  0.00  0.00    +0.000 A 
ATOM     18  C   UNL     1       1.521   8.767  19.137  0.00  0.00    +0.000 A 
ATOM     19  C   UNL     1       0.590   9.813  19.078  0.00  0.00    +0.000 A 
ATOM     20  C   UNL     1      -0.205  10.099  20.182  0.00  0.00    +0.000 A 
ATOM     21 CL   UNL     1      -1.310  11.417  20.132  0.00  0.00    +0.000 Cl
ATOM     22  C   UNL     1      -0.113   9.328  21.341  0.00  0.00    +0.000 A 
ATOM     23  C   UNL     1       0.798   8.279  21.397  0.00  0.00    +0.000 A 
ENDBRANCH  16  17
ENDBRANCH   6  16
TORSDOF 4
ENDMDL
MODEL 9
REMARK VINA RESULT:      -7.3      1.962      4.258
REMARK  Name = 
REMARK  4 active torsions:
REMARK  status: ('A' for Active; 'I' for Inactive)
REMARK    1  A    between atoms: C_2  and  C_3
REMARK    2  A    between atoms: C_8  and  O_9
REMARK    3  A    between atoms: O_9  and  C_10
REMARK    4  A    between atoms: C_20  and  O_21
REMARK                            x       y       z     vdW  Elec       q    Type
REMARK                         _______ _______ _______ _____ _____    ______ ____
ROOT
ATOM      1  C   UNL     1       5.791   5.422  17.234  0.00  0.00    +0.000 A 
ATOM      2  C   UNL     1       7.086   5.225  17.732  0.00  0.00    +0.000 A 
ATOM      3  C   UNL     1       7.900   6.325  18.010  0.00  0.00    +0.000 A 
ATOM      4  C   UNL     1       7.390   7.586  17.760  0.00  0.00    +0.000 A 
ATOM      5  N   UNL     1       6.137   7.809  17.317  0.00  0.00    +0.000 NA
ATOM      6  C   UNL     1       5.336   6.725  17.115  0.00  0.00    +0.000 A 
ENDROOT
BRANCH   1   8
ATOM      7  O   UNL     1       4.587   4.069  15.785  0.00  0.00    +0.000 OA
ATOM      8  C   UNL     1       4.952   4.242  16.948  0.00  0.00    +0.000 C 
ATOM      9  N   UNL     1       4.561   3.409  17.986  0.00  0.00    +0.000 N 
ATOM     10  C   UNL     1       3.727   2.246  17.712  0.00  0.00    +0.000 C 
ATOM     11  C   UNL     1       3.128   1.845  19.057  0.00  0.00    +0.000 C 
ATOM     12  C   UNL     1       4.115   2.399  20.076  0.00  0.00    +0.000 C 
ATOM     13  C   UNL     1       4.606   3.688  19.420  0.00  0.00    +0.000 C 
BRANCH  12  14
ATOM     14  O   UNL     1       5.186   1.479  20.282  0.00  0.00    +0.000 OA
ATOM     15  H   UNL     1       5.965   1.980  20.586  0.00  0.00    +0.000 HD
ENDBRANCH  12  14
ENDBRANCH   1   8
BRANCH   6  16
ATOM     16  O   UNL     1       3.992   6.939  16.812  0.00  0.00    +0.000 OA
BRANCH  16  17
ATOM     17  C   UNL     1       3.175   7.390  17.822  0.00  0.00    +0.000 A 
ATOM     18  C   UNL     1       2.492   8.590  17.631  0.00  0.00    +0.000 A 
ATOM     19  C   UNL     1       1.676   9.086  18.656  0.00  0.00    +0.000 A 
ATOM     20  C   UNL     1       1.545   8.376  19.845  0.00  0.00    +0.000 A 
ATOM     21 CL   UNL     1       0.589   9.009  21.128  0.00  0.00    +0.000 Cl
ATOM     22  C   UNL     1       2.188   7.149  20.013  0.00  0.00    +0.000 A 
ATOM     23  C   UNL     1       2.985   6.647  18.990  0.00  0.00    +0.000 A 
ENDBRANCH  16  17
ENDBRANCH   6  16
TORSDOF 4
ENDMDL
