MODEL 1
REMARK VINA RESULT:      -7.7      0.000      0.000
REMARK  Name = 
REMARK  4 active torsions:
REMARK  status: ('A' for Active; 'I' for Inactive)
REMARK    1  A    between atoms: C_1  and  C_2
REMARK    2  A    between atoms: C_6  and  C_7
REMARK    3  A    between atoms: C_11  and  C_12
REMARK    4  A    between atoms: C_18  and  C_19
REMARK                            x       y       z     vdW  Elec       q    Type
REMARK                         _______ _______ _______ _____ _____    ______ ____
ROOT
ATOM      1  C   UNL     1       3.489   5.655  17.849  0.00  0.00    +0.000 A 
ATOM      2  O   UNL     1       4.585   5.095  17.247  0.00  0.00    +0.000 OA
ATOM      3  C   UNL     1       5.317   6.161  16.827  0.00  0.00    +0.000 A 
ATOM      4  N   UNL     1       4.810   7.343  17.108  0.00  0.00    +0.000 NA
ATOM      5  C   UNL     1       3.612   7.029  17.734  0.00  0.00    +0.000 A 
ENDROOT
BRANCH   5   6
ATOM      6  C   UNL     1       2.621   8.000  18.178  0.00  0.00    +0.000 C 
ATOM      7  O   UNL     1       2.242   8.884  17.409  0.00  0.00    +0.000 OA
ATOM      8  N   UNL     1       2.209   7.851  19.479  0.00  0.00    +0.000 N 
ATOM      9  C   UNL     1       1.232   8.683  19.957  0.00  0.00    +0.000 A 
ATOM     10  N   UNL     1       0.393   9.403  19.256  0.00  0.00    +0.000 NA
ATOM     11  C   UNL     1      -0.323  10.228  20.085  0.00  0.00    +0.000 A 
ATOM     12  C   UNL     1      -0.040  10.102  21.429  0.00  0.00    +0.000 A 
ATOM     13  C   UNL     1      -0.576  10.896  22.563  0.00  0.00    +0.000 C 
ATOM     14  S   UNL     1       1.109   8.837  21.652  0.00  0.00    +0.000 S 
ATOM     15  H   UNL     1       2.709   7.235  20.104  0.00  0.00    +0.000 HD
ENDBRANCH   5   6
BRANCH   1  21
ATOM     16  C   UNL     1       2.132   3.165  21.933  0.00  0.00    +0.000 C 
ATOM     17  C   UNL     1       1.883   3.491  20.491  0.00  0.00    +0.000 A 
ATOM     18  C   UNL     1       0.861   2.887  19.760  0.00  0.00    +0.000 A 
ATOM     19  C   UNL     1       0.673   3.212  18.414  0.00  0.00    +0.000 A 
ATOM     20  C   UNL     1       1.517   4.130  17.783  0.00  0.00    +0.000 A 
ATOM     21  C   UNL     1       2.558   4.738  18.493  0.00  0.00    +0.000 A 
ATOM     22  C   UNL     1       2.717   4.412  19.850  0.00  0.00    +0.000 A 
ENDBRANCH   1  21
TORSDOF 2
ENDMDL
MODEL 2
REMARK VINA RESULT:      -7.6      3.995      6.259
REMARK  Name = 
REMARK  4 active torsions:
REMARK  status: ('A' for Active; 'I' for Inactive)
REMARK    1  A    between atoms: C_1  and  C_2
REMARK    2  A    between atoms: C_6  and  C_7
REMARK    3  A    between atoms: C_11  and  C_12
REMARK    4  A    between atoms: C_18  and  C_19
REMARK                            x       y       z     vdW  Elec       q    Type
REMARK                         _______ _______ _______ _____ _____    ______ ____
ROOT
ATOM      1  C   UNL     1       6.620   5.324  16.140  0.00  0.00    +0.000 A 
ATOM      2  O   UNL     1       7.388   5.098  15.029  0.00  0.00    +0.000 OA
ATOM      3  C   UNL     1       6.543   4.485  14.158  0.00  0.00    +0.000 A 
ATOM      4  N   UNL     1       5.312   4.307  14.591  0.00  0.00    +0.000 NA
ATOM      5  C   UNL     1       5.360   4.810  15.883  0.00  0.00    +0.000 A 
ENDROOT
BRANCH   5   6
ATOM      6  C   UNL     1       4.258   4.777  16.835  0.00  0.00    +0.000 C 
ATOM      7  O   UNL     1       3.491   5.736  16.918  0.00  0.00    +0.000 OA
ATOM      8  N   UNL     1       4.196   3.642  17.606  0.00  0.00    +0.000 N 
ATOM      9  C   UNL     1       3.153   3.502  18.483  0.00  0.00    +0.000 A 
ATOM     10  N   UNL     1       2.015   4.151  18.470  0.00  0.00    +0.000 NA
ATOM     11  C   UNL     1       1.295   3.854  19.599  0.00  0.00    +0.000 A 
ATOM     12  C   UNL     1       1.886   2.948  20.454  0.00  0.00    +0.000 A 
ATOM     13  C   UNL     1       1.409   2.485  21.781  0.00  0.00    +0.000 C 
ATOM     14  S   UNL     1       3.362   2.390  19.760  0.00  0.00    +0.000 S 
ATOM     15  H   UNL     1       4.970   2.995  17.622  0.00  0.00    +0.000 HD
ENDBRANCH   5   6
BRANCH   1  21
ATOM     16  C   UNL     1       8.366   9.655  17.848  0.00  0.00    +0.000 C 
ATOM     17  C   UNL     1       8.124   8.194  18.077  0.00  0.00    +0.000 A 
ATOM     18  C   UNL     1       8.546   7.543  19.236  0.00  0.00    +0.000 A 
ATOM     19  C   UNL     1       8.311   6.177  19.401  0.00  0.00    +0.000 A 
ATOM     20  C   UNL     1       7.665   5.444  18.401  0.00  0.00    +0.000 A 
ATOM     21  C   UNL     1       7.244   6.072  17.224  0.00  0.00    +0.000 A 
ATOM     22  C   UNL     1       7.474   7.451  17.086  0.00  0.00    +0.000 A 
ENDBRANCH   1  21
TORSDOF 2
ENDMDL
MODEL 3
REMARK VINA RESULT:      -7.6      3.298      6.725
REMARK  Name = 
REMARK  4 active torsions:
REMARK  status: ('A' for Active; 'I' for Inactive)
REMARK    1  A    between atoms: C_1  and  C_2
REMARK    2  A    between atoms: C_6  and  C_7
REMARK    3  A    between atoms: C_11  and  C_12
REMARK    4  A    between atoms: C_18  and  C_19
REMARK                            x       y       z     vdW  Elec       q    Type
REMARK                         _______ _______ _______ _____ _____    ______ ____
ROOT
ATOM      1  C   UNL     1       2.291   5.433  20.121  0.00  0.00    +0.000 A 
ATOM      2  O   UNL     1       1.329   4.845  20.899  0.00  0.00    +0.000 OA
ATOM      3  C   UNL     1       1.851   3.629  21.212  0.00  0.00    +0.000 A 
ATOM      4  N   UNL     1       3.049   3.383  20.725  0.00  0.00    +0.000 NA
ATOM      5  C   UNL     1       3.328   4.525  19.989  0.00  0.00    +0.000 A 
ENDROOT
BRANCH   5   6
ATOM      6  C   UNL     1       4.520   4.726  19.175  0.00  0.00    +0.000 C 
ATOM      7  O   UNL     1       5.504   5.284  19.659  0.00  0.00    +0.000 OA
ATOM      8  N   UNL     1       4.415   4.283  17.880  0.00  0.00    +0.000 N 
ATOM      9  C   UNL     1       5.512   4.376  17.065  0.00  0.00    +0.000 A 
ATOM     10  N   UNL     1       6.759   4.533  17.431  0.00  0.00    +0.000 NA
ATOM     11  C   UNL     1       7.547   4.745  16.330  0.00  0.00    +0.000 A 
ATOM     12  C   UNL     1       6.888   4.715  15.119  0.00  0.00    +0.000 A 
ATOM     13  C   UNL     1       7.433   4.985  13.765  0.00  0.00    +0.000 C 
ATOM     14  S   UNL     1       5.231   4.319  15.383  0.00  0.00    +0.000 S 
ATOM     15  H   UNL     1       3.516   4.022  17.502  0.00  0.00    +0.000 HD
ENDBRANCH   5   6
BRANCH   1  21
ATOM     16  C   UNL     1       0.518   9.941  21.244  0.00  0.00    +0.000 C 
ATOM     17  C   UNL     1       1.165   9.034  20.242  0.00  0.00    +0.000 A 
ATOM     18  C   UNL     1       1.451   9.449  18.941  0.00  0.00    +0.000 A 
ATOM     19  C   UNL     1       2.043   8.565  18.036  0.00  0.00    +0.000 A 
ATOM     20  C   UNL     1       2.338   7.253  18.417  0.00  0.00    +0.000 A 
ATOM     21  C   UNL     1       2.048   6.811  19.712  0.00  0.00    +0.000 A 
ATOM     22  C   UNL     1       1.470   7.720  20.613  0.00  0.00    +0.000 A 
ENDBRANCH   1  21
TORSDOF 2
ENDMDL
MODEL 4
REMARK VINA RESULT:      -7.6      2.095      4.166
REMARK  Name = 
REMARK  4 active torsions:
REMARK  status: ('A' for Active; 'I' for Inactive)
REMARK    1  A    between atoms: C_1  and  C_2
REMARK    2  A    between atoms: C_6  and  C_7
REMARK    3  A    between atoms: C_11  and  C_12
REMARK    4  A    between atoms: C_18  and  C_19
REMARK                            x       y       z     vdW  Elec       q    Type
REMARK                         _______ _______ _______ _____ _____    ______ ____
ROOT
ATOM      1  C   UNL     1       4.121   4.246  19.373  0.00  0.00    +0.000 A 
ATOM      2  O   UNL     1       4.135   2.993  19.925  0.00  0.00    +0.000 OA
ATOM      3  C   UNL     1       3.003   2.948  20.679  0.00  0.00    +0.000 A 
ATOM      4  N   UNL     1       2.263   4.036  20.656  0.00  0.00    +0.000 NA
ATOM      5  C   UNL     1       2.993   4.894  19.846  0.00  0.00    +0.000 A 
ENDROOT
BRANCH   5   6
ATOM      6  C   UNL     1       2.640   6.279  19.562  0.00  0.00    +0.000 C 
ATOM      7  O   UNL     1       3.042   6.813  18.529  0.00  0.00    +0.000 OA
ATOM      8  N   UNL     1       1.886   6.893  20.532  0.00  0.00    +0.000 N 
ATOM      9  C   UNL     1       1.457   8.176  20.315  0.00  0.00    +0.000 A 
ATOM     10  N   UNL     1       1.389   8.804  19.167  0.00  0.00    +0.000 NA
ATOM     11  C   UNL     1       1.067  10.120  19.373  0.00  0.00    +0.000 A 
ATOM     12  C   UNL     1       0.860  10.477  20.689  0.00  0.00    +0.000 A 
ATOM     13  C   UNL     1       0.582  11.824  21.247  0.00  0.00    +0.000 C 
ATOM     14  S   UNL     1       0.995   9.078  21.686  0.00  0.00    +0.000 S 
ATOM     15  H   UNL     1       1.767   6.459  21.435  0.00  0.00    +0.000 HD
ENDBRANCH   5   6
BRANCH   1  21
ATOM     16  C   UNL     1       5.852   3.961  14.721  0.00  0.00    +0.000 C 
ATOM     17  C   UNL     1       6.057   4.406  16.137  0.00  0.00    +0.000 A 
ATOM     18  C   UNL     1       7.240   5.012  16.561  0.00  0.00    +0.000 A 
ATOM     19  C   UNL     1       7.392   5.399  17.894  0.00  0.00    +0.000 A 
ATOM     20  C   UNL     1       6.370   5.169  18.819  0.00  0.00    +0.000 A 
ATOM     21  C   UNL     1       5.181   4.551  18.420  0.00  0.00    +0.000 A 
ATOM     22  C   UNL     1       5.040   4.186  17.071  0.00  0.00    +0.000 A 
ENDBRANCH   1  21
TORSDOF 2
ENDMDL
MODEL 5
REMARK VINA RESULT:      -7.5      4.052      6.073
REMARK  Name = 
REMARK  4 active torsions:
REMARK  status: ('A' for Active; 'I' for Inactive)
REMARK    1  A    between atoms: C_1  and  C_2
REMARK    2  A    between atoms: C_6  and  C_7
REMARK    3  A    between atoms: C_11  and  C_12
REMARK    4  A    between atoms: C_18  and  C_19
REMARK                            x       y       z     vdW  Elec       q    Type
REMARK                         _______ _______ _______ _____ _____    ______ ____
ROOT
ATOM      1  C   UNL     1       5.582   6.036  16.845  0.00  0.00    +0.000 A 
ATOM      2  O   UNL     1       5.342   5.205  15.783  0.00  0.00    +0.000 OA
ATOM      3  C   UNL     1       6.565   5.034  15.211  0.00  0.00    +0.000 A 
ATOM      4  N   UNL     1       7.561   5.660  15.802  0.00  0.00    +0.000 NA
ATOM      5  C   UNL     1       6.933   6.340  16.836  0.00  0.00    +0.000 A 
ENDROOT
BRANCH   5   6
ATOM      6  C   UNL     1       7.592   7.259  17.754  0.00  0.00    +0.000 C 
ATOM      7  O   UNL     1       7.944   6.865  18.866  0.00  0.00    +0.000 OA
ATOM      8  N   UNL     1       7.734   8.542  17.285  0.00  0.00    +0.000 N 
ATOM      9  C   UNL     1       8.400   9.454  18.060  0.00  0.00    +0.000 A 
ATOM     10  N   UNL     1       9.210   9.203  19.058  0.00  0.00    +0.000 NA
ATOM     11  C   UNL     1       9.552  10.371  19.688  0.00  0.00    +0.000 A 
ATOM     12  C   UNL     1       9.017  11.516  19.137  0.00  0.00    +0.000 A 
ATOM     13  C   UNL     1       9.126  12.914  19.626  0.00  0.00    +0.000 C 
ATOM     14  S   UNL     1       8.121  11.102  17.724  0.00  0.00    +0.000 S 
ATOM     15  H   UNL     1       7.244   8.836  16.453  0.00  0.00    +0.000 HD
ENDBRANCH   5   6
BRANCH   1  21
ATOM     16  C   UNL     1       1.730   8.971  17.978  0.00  0.00    +0.000 C 
ATOM     17  C   UNL     1       2.559   7.764  18.302  0.00  0.00    +0.000 A 
ATOM     18  C   UNL     1       2.324   6.986  19.435  0.00  0.00    +0.000 A 
ATOM     19  C   UNL     1       3.130   5.877  19.705  0.00  0.00    +0.000 A 
ATOM     20  C   UNL     1       4.189   5.547  18.854  0.00  0.00    +0.000 A 
ATOM     21  C   UNL     1       4.451   6.321  17.719  0.00  0.00    +0.000 A 
ATOM     22  C   UNL     1       3.617   7.420  17.455  0.00  0.00    +0.000 A 
ENDBRANCH   1  21
TORSDOF 2
ENDMDL
MODEL 6
REMARK VINA RESULT:      -7.5      2.137      3.888
REMARK  Name = 
REMARK  4 active torsions:
REMARK  status: ('A' for Active; 'I' for Inactive)
REMARK    1  A    between atoms: C_1  and  C_2
REMARK    2  A    between atoms: C_6  and  C_7
REMARK    3  A    between atoms: C_11  and  C_12
REMARK    4  A    between atoms: C_18  and  C_19
REMARK                            x       y       z     vdW  Elec       q    Type
REMARK                         _______ _______ _______ _____ _____    ______ ____
ROOT
ATOM      1  C   UNL     1       3.608   4.326  19.787  0.00  0.00    +0.000 A 
ATOM      2  O   UNL     1       3.537   3.109  20.409  0.00  0.00    +0.000 OA
ATOM      3  C   UNL     1       2.395   3.176  21.145  0.00  0.00    +0.000 A 
ATOM      4  N   UNL     1       1.724   4.304  21.049  0.00  0.00    +0.000 NA
ATOM      5  C   UNL     1       2.516   5.069  20.205  0.00  0.00    +0.000 A 
ENDROOT
BRANCH   5   6
ATOM      6  C   UNL     1       2.252   6.453  19.837  0.00  0.00    +0.000 C 
ATOM      7  O   UNL     1       2.634   6.880  18.747  0.00  0.00    +0.000 OA
ATOM      8  N   UNL     1       1.605   7.192  20.797  0.00  0.00    +0.000 N 
ATOM      9  C   UNL     1       1.263   8.486  20.508  0.00  0.00    +0.000 A 
ATOM     10  N   UNL     1       1.175   9.036  19.322  0.00  0.00    +0.000 NA
ATOM     11  C   UNL     1       0.967  10.385  19.447  0.00  0.00    +0.000 A 
ATOM     12  C   UNL     1       0.864  10.849  20.741  0.00  0.00    +0.000 A 
ATOM     13  C   UNL     1       0.722  12.250  21.211  0.00  0.00    +0.000 C 
ATOM     14  S   UNL     1       0.951   9.516  21.831  0.00  0.00    +0.000 S 
ATOM     15  H   UNL     1       1.507   6.833  21.735  0.00  0.00    +0.000 HD
ENDBRANCH   5   6
BRANCH   1  21
ATOM     16  C   UNL     1       7.983   6.427  18.707  0.00  0.00    +0.000 C 
ATOM     17  C   UNL     1       6.845   5.551  18.280  0.00  0.00    +0.000 A 
ATOM     18  C   UNL     1       6.772   4.998  17.002  0.00  0.00    +0.000 A 
ATOM     19  C   UNL     1       5.686   4.198  16.643  0.00  0.00    +0.000 A 
ATOM     20  C   UNL     1       4.653   3.957  17.553  0.00  0.00    +0.000 A 
ATOM     21  C   UNL     1       4.697   4.512  18.836  0.00  0.00    +0.000 A 
ATOM     22  C   UNL     1       5.808   5.298  19.184  0.00  0.00    +0.000 A 
ENDBRANCH   1  21
TORSDOF 2
ENDMDL
MODEL 7
REMARK VINA RESULT:      -7.4      2.496      4.365
REMARK  Name = 
REMARK  4 active torsions:
REMARK  status: ('A' for Active; 'I' for Inactive)
REMARK    1  A    between atoms: C_1  and  C_2
REMARK    2  A    between atoms: C_6  and  C_7
REMARK    3  A    between atoms: C_11  and  C_12
REMARK    4  A    between atoms: C_18  and  C_19
REMARK                            x       y       z     vdW  Elec       q    Type
REMARK                         _______ _______ _______ _____ _____    ______ ____
ROOT
ATOM      1  C   UNL     1       3.805   3.453  18.211  0.00  0.00    +0.000 A 
ATOM      2  O   UNL     1       3.898   2.111  17.949  0.00  0.00    +0.000 OA
ATOM      3  C   UNL     1       2.737   1.596  18.437  0.00  0.00    +0.000 A 
ATOM      4  N   UNL     1       1.908   2.468  18.970  0.00  0.00    +0.000 NA
ATOM      5  C   UNL     1       2.602   3.665  18.864  0.00  0.00    +0.000 A 
ENDROOT
BRANCH   5   6
ATOM      6  C   UNL     1       2.146   4.945  19.388  0.00  0.00    +0.000 C 
ATOM      7  O   UNL     1       1.503   4.984  20.436  0.00  0.00    +0.000 OA
ATOM      8  N   UNL     1       2.463   6.032  18.610  0.00  0.00    +0.000 N 
ATOM      9  C   UNL     1       2.126   7.281  19.061  0.00  0.00    +0.000 A 
ATOM     10  N   UNL     1       1.827   7.625  20.289  0.00  0.00    +0.000 NA
ATOM     11  C   UNL     1       1.389   8.924  20.317  0.00  0.00    +0.000 A 
ATOM     12  C   UNL     1       1.389   9.573  19.100  0.00  0.00    +0.000 A 
ATOM     13  C   UNL     1       0.904  10.939  18.783  0.00  0.00    +0.000 C 
ATOM     14  S   UNL     1       2.048   8.527  17.899  0.00  0.00    +0.000 S 
ATOM     15  H   UNL     1       2.811   5.903  17.672  0.00  0.00    +0.000 HD
ENDBRANCH   5   6
BRANCH   1  21
ATOM     16  C   UNL     1       7.964   6.023  19.115  0.00  0.00    +0.000 C 
ATOM     17  C   UNL     1       6.923   5.578  18.132  0.00  0.00    +0.000 A 
ATOM     18  C   UNL     1       6.922   6.008  16.806  0.00  0.00    +0.000 A 
ATOM     19  C   UNL     1       5.924   5.579  15.928  0.00  0.00    +0.000 A 
ATOM     20  C   UNL     1       4.908   4.727  16.374  0.00  0.00    +0.000 A 
ATOM     21  C   UNL     1       4.882   4.293  17.703  0.00  0.00    +0.000 A 
ATOM     22  C   UNL     1       5.905   4.722  18.564  0.00  0.00    +0.000 A 
ENDBRANCH   1  21
TORSDOF 2
ENDMDL
MODEL 8
REMARK VINA RESULT:      -7.4      2.523      4.602
REMARK  Name = 
REMARK  4 active torsions:
REMARK  status: ('A' for Active; 'I' for Inactive)
REMARK    1  A    between atoms: C_1  and  C_2
REMARK    2  A    between atoms: C_6  and  C_7
REMARK    3  A    between atoms: C_11  and  C_12
REMARK    4  A    between atoms: C_18  and  C_19
REMARK                            x       y       z     vdW  Elec       q    Type
REMARK                         _______ _______ _______ _____ _____    ______ ____
ROOT
ATOM      1  C   UNL     1       3.820   3.477  18.530  0.00  0.00    +0.000 A 
ATOM      2  O   UNL     1       3.870   2.136  18.256  0.00  0.00    +0.000 OA
ATOM      3  C   UNL     1       2.631   1.682  18.587  0.00  0.00    +0.000 A 
ATOM      4  N   UNL     1       1.792   2.594  19.031  0.00  0.00    +0.000 NA
ATOM      5  C   UNL     1       2.559   3.750  19.034  0.00  0.00    +0.000 A 
ENDROOT
BRANCH   5   6
ATOM      6  C   UNL     1       2.114   5.048  19.522  0.00  0.00    +0.000 C 
ATOM      7  O   UNL     1       1.489   5.123  20.580  0.00  0.00    +0.000 OA
ATOM      8  N   UNL     1       2.417   6.108  18.703  0.00  0.00    +0.000 N 
ATOM      9  C   UNL     1       2.089   7.372  19.118  0.00  0.00    +0.000 A 
ATOM     10  N   UNL     1       1.812   7.757  20.338  0.00  0.00    +0.000 NA
ATOM     11  C   UNL     1       1.375   9.057  20.330  0.00  0.00    +0.000 A 
ATOM     12  C   UNL     1       1.355   9.664  19.092  0.00  0.00    +0.000 A 
ATOM     13  C   UNL     1       0.864  11.019  18.738  0.00  0.00    +0.000 C 
ATOM     14  S   UNL     1       1.991   8.578  17.916  0.00  0.00    +0.000 S 
ATOM     15  H   UNL     1       2.748   5.946  17.764  0.00  0.00    +0.000 HD
ENDBRANCH   5   6
BRANCH   1  21
ATOM     16  C   UNL     1       7.034   4.956  15.036  0.00  0.00    +0.000 C 
ATOM     17  C   UNL     1       6.599   4.987  16.470  0.00  0.00    +0.000 A 
ATOM     18  C   UNL     1       7.325   5.662  17.451  0.00  0.00    +0.000 A 
ATOM     19  C   UNL     1       6.889   5.653  18.778  0.00  0.00    +0.000 A 
ATOM     20  C   UNL     1       5.733   4.956  19.139  0.00  0.00    +0.000 A 
ATOM     21  C   UNL     1       4.996   4.261  18.175  0.00  0.00    +0.000 A 
ATOM     22  C   UNL     1       5.441   4.298  16.843  0.00  0.00    +0.000 A 
ENDBRANCH   1  21
TORSDOF 2
ENDMDL
MODEL 9
REMARK VINA RESULT:      -7.3      3.648      6.839
REMARK  Name = 
REMARK  4 active torsions:
REMARK  status: ('A' for Active; 'I' for Inactive)
REMARK    1  A    between atoms: C_1  and  C_2
REMARK    2  A    between atoms: C_6  and  C_7
REMARK    3  A    between atoms: C_11  and  C_12
REMARK    4  A    between atoms: C_18  and  C_19
REMARK                            x       y       z     vdW  Elec       q    Type
REMARK                         _______ _______ _______ _____ _____    ______ ____
ROOT
ATOM      1  C   UNL     1       2.995   4.674  19.620  0.00  0.00    +0.000 A 
ATOM      2  O   UNL     1       2.209   3.877  20.409  0.00  0.00    +0.000 OA
ATOM      3  C   UNL     1       2.883   2.697  20.467  0.00  0.00    +0.000 A 
ATOM      4  N   UNL     1       4.022   2.661  19.807  0.00  0.00    +0.000 NA
ATOM      5  C   UNL     1       4.086   3.919  19.225  0.00  0.00    +0.000 A 
ENDROOT
BRANCH   5   6
ATOM      6  C   UNL     1       5.131   4.366  18.314  0.00  0.00    +0.000 C 
ATOM      7  O   UNL     1       5.987   5.159  18.705  0.00  0.00    +0.000 OA
ATOM      8  N   UNL     1       5.038   3.864  17.039  0.00  0.00    +0.000 N 
ATOM      9  C   UNL     1       6.016   4.185  16.135  0.00  0.00    +0.000 A 
ATOM     10  N   UNL     1       7.214   4.646  16.396  0.00  0.00    +0.000 NA
ATOM     11  C   UNL     1       7.843   4.999  15.229  0.00  0.00    +0.000 A 
ATOM     12  C   UNL     1       7.120   4.769  14.077  0.00  0.00    +0.000 A 
ATOM     13  C   UNL     1       7.481   5.111  12.679  0.00  0.00    +0.000 C 
ATOM     14  S   UNL     1       5.631   4.002  14.484  0.00  0.00    +0.000 S 
ATOM     15  H   UNL     1       4.202   3.385  16.741  0.00  0.00    +0.000 HD
ENDBRANCH   5   6
BRANCH   1  21
ATOM     16  C   UNL     1       0.920   8.731  21.609  0.00  0.00    +0.000 C 
ATOM     17  C   UNL     1       1.532   8.061  20.416  0.00  0.00    +0.000 A 
ATOM     18  C   UNL     1       1.619   8.690  19.174  0.00  0.00    +0.000 A 
ATOM     19  C   UNL     1       2.185   8.022  18.086  0.00  0.00    +0.000 A 
ATOM     20  C   UNL     1       2.655   6.713  18.225  0.00  0.00    +0.000 A 
ATOM     21  C   UNL     1       2.567   6.057  19.458  0.00  0.00    +0.000 A 
ATOM     22  C   UNL     1       2.011   6.753  20.544  0.00  0.00    +0.000 A 
ENDBRANCH   1  21
TORSDOF 2
ENDMDL
