MODEL 1
REMARK VINA RESULT:      -6.6      0.000      0.000
REMARK  Name = 
REMARK  13 active torsions:
REMARK  status: ('A' for Active; 'I' for Inactive)
REMARK    1  A    between atoms: C_1  and  C_2
REMARK    2  A    between atoms: C_3  and  C_4
REMARK    3  A    between atoms: C_5  and  C_6
REMARK    4  A    between atoms: C_6  and  C_7
REMARK    5  A    between atoms: C_7  and  C_8
REMARK    6  A    between atoms: C_8  and  C_9
REMARK    7  A    between atoms: C_9  and  C_10
REMARK    8  A    between atoms: C_11  and  C_12
REMARK    9  A    between atoms: C_13  and  C_14
REMARK   10  A    between atoms: N_16  and  C_17
REMARK   11  A    between atoms: C_17  and  C_18
REMARK   12  A    between atoms: C_18  and  C_19
REMARK   13  A    between atoms: C_18  and  C_20
REMARK                            x       y       z     vdW  Elec       q    Type
REMARK                         _______ _______ _______ _____ _____    ______ ____
ROOT
ATOM      1  C   UNL     1       4.036   2.972  18.323  0.00  0.00    +0.000 C 
ATOM      2  C   UNL     1       4.600   4.167  18.085  0.00  0.00    +0.000 C 
ENDROOT
BRANCH   2   3
ATOM      3  C   UNL     1       5.121   4.547  16.788  0.00  0.00    +0.000 C 
ATOM      4  C   UNL     1       5.941   3.771  16.057  0.00  0.00    +0.000 C 
BRANCH   4   5
ATOM      5  C   UNL     1       6.419   4.260  14.737  0.00  0.00    +0.000 C 
ATOM      6  O   UNL     1       6.972   5.341  14.601  0.00  0.00    +0.000 OA
ATOM      7  N   UNL     1       6.173   3.392  13.697  0.00  0.00    +0.000 N 
ATOM      8  H   UNL     1       5.711   2.510  13.869  0.00  0.00    +0.000 HD
BRANCH   7   9
ATOM      9  C   UNL     1       6.560   3.718  12.334  0.00  0.00    +0.000 C 
BRANCH   9  10
ATOM     10  C   UNL     1       5.781   2.924  11.271  0.00  0.00    +0.000 C 
ATOM     11  C   UNL     1       6.047   1.421  11.371  0.00  0.00    +0.000 C 
ATOM     12  C   UNL     1       4.277   3.182  11.417  0.00  0.00    +0.000 C 
ENDBRANCH   9  10
ENDBRANCH   7   9
ENDBRANCH   4   5
ENDBRANCH   2   3
BRANCH   1  13
ATOM     13  C   UNL     1       3.485   2.566  19.664  0.00  0.00    +0.000 C 
BRANCH  13  14
ATOM     14  C   UNL     1       1.963   2.415  19.623  0.00  0.00    +0.000 C 
BRANCH  14  15
ATOM     15  C   UNL     1       1.320   2.865  20.935  0.00  0.00    +0.000 C 
BRANCH  15  16
ATOM     16  C   UNL     1       2.149   3.962  21.601  0.00  0.00    +0.000 C 
BRANCH  16  18
ATOM     17  C   UNL     1       2.178   6.144  20.073  0.00  0.00    +0.000 C 
ATOM     18  C   UNL     1       2.191   5.158  20.756  0.00  0.00    +0.000 C 
BRANCH  17  21
ATOM     19  C   UNL     1       1.959   9.644  17.790  0.00  0.00    +0.000 C 
ATOM     20  C   UNL     1       2.031   8.407  18.560  0.00  0.00    +0.000 C 
ATOM     21  C   UNL     1       2.093   7.400  19.212  0.00  0.00    +0.000 C 
ENDBRANCH  17  21
ENDBRANCH  16  18
ENDBRANCH  15  16
ENDBRANCH  14  15
ENDBRANCH  13  14
ENDBRANCH   1  13
TORSDOF 10
ENDMDL
MODEL 2
REMARK VINA RESULT:      -6.6      1.874      2.476
REMARK  Name = 
REMARK  13 active torsions:
REMARK  status: ('A' for Active; 'I' for Inactive)
REMARK    1  A    between atoms: C_1  and  C_2
REMARK    2  A    between atoms: C_3  and  C_4
REMARK    3  A    between atoms: C_5  and  C_6
REMARK    4  A    between atoms: C_6  and  C_7
REMARK    5  A    between atoms: C_7  and  C_8
REMARK    6  A    between atoms: C_8  and  C_9
REMARK    7  A    between atoms: C_9  and  C_10
REMARK    8  A    between atoms: C_11  and  C_12
REMARK    9  A    between atoms: C_13  and  C_14
REMARK   10  A    between atoms: N_16  and  C_17
REMARK   11  A    between atoms: C_17  and  C_18
REMARK   12  A    between atoms: C_18  and  C_19
REMARK   13  A    between atoms: C_18  and  C_20
REMARK                            x       y       z     vdW  Elec       q    Type
REMARK                         _______ _______ _______ _____ _____    ______ ____
ROOT
ATOM      1  C   UNL     1       2.742   2.161  17.739  0.00  0.00    +0.000 C 
ATOM      2  C   UNL     1       2.898   3.374  17.184  0.00  0.00    +0.000 C 
ENDROOT
BRANCH   2   3
ATOM      3  C   UNL     1       3.934   3.669  16.216  0.00  0.00    +0.000 C 
ATOM      4  C   UNL     1       5.249   3.614  16.491  0.00  0.00    +0.000 C 
BRANCH   4   5
ATOM      5  C   UNL     1       6.229   3.940  15.423  0.00  0.00    +0.000 C 
ATOM      6  O   UNL     1       7.322   4.431  15.664  0.00  0.00    +0.000 OA
ATOM      7  N   UNL     1       5.789   3.646  14.151  0.00  0.00    +0.000 N 
ATOM      8  H   UNL     1       4.874   3.240  14.011  0.00  0.00    +0.000 HD
BRANCH   7   9
ATOM      9  C   UNL     1       6.615   3.915  12.986  0.00  0.00    +0.000 C 
BRANCH   9  10
ATOM     10  C   UNL     1       6.074   3.276  11.694  0.00  0.00    +0.000 C 
ATOM     11  C   UNL     1       6.596   1.852  11.499  0.00  0.00    +0.000 C 
ATOM     12  C   UNL     1       4.542   3.254  11.717  0.00  0.00    +0.000 C 
ENDBRANCH   9  10
ENDBRANCH   7   9
ENDBRANCH   4   5
ENDBRANCH   2   3
BRANCH   1  13
ATOM     13  C   UNL     1       1.666   1.837  18.741  0.00  0.00    +0.000 C 
BRANCH  13  14
ATOM     14  C   UNL     1       0.809   3.064  19.060  0.00  0.00    +0.000 C 
BRANCH  14  15
ATOM     15  C   UNL     1       1.035   3.548  20.492  0.00  0.00    +0.000 C 
BRANCH  15  16
ATOM     16  C   UNL     1       1.468   5.014  20.511  0.00  0.00    +0.000 C 
BRANCH  16  18
ATOM     17  C   UNL     1       4.024   5.284  19.808  0.00  0.00    +0.000 C 
ATOM     18  C   UNL     1       2.877   5.136  20.127  0.00  0.00    +0.000 C 
BRANCH  17  21
ATOM     19  C   UNL     1       7.956   6.057  18.602  0.00  0.00    +0.000 C 
ATOM     20  C   UNL     1       6.595   5.764  19.039  0.00  0.00    +0.000 C 
ATOM     21  C   UNL     1       5.468   5.538  19.387  0.00  0.00    +0.000 C 
ENDBRANCH  17  21
ENDBRANCH  16  18
ENDBRANCH  15  16
ENDBRANCH  14  15
ENDBRANCH  13  14
ENDBRANCH   1  13
TORSDOF 10
ENDMDL
MODEL 3
REMARK VINA RESULT:      -6.4      2.057      2.289
REMARK  Name = 
REMARK  13 active torsions:
REMARK  status: ('A' for Active; 'I' for Inactive)
REMARK    1  A    between atoms: C_1  and  C_2
REMARK    2  A    between atoms: C_3  and  C_4
REMARK    3  A    between atoms: C_5  and  C_6
REMARK    4  A    between atoms: C_6  and  C_7
REMARK    5  A    between atoms: C_7  and  C_8
REMARK    6  A    between atoms: C_8  and  C_9
REMARK    7  A    between atoms: C_9  and  C_10
REMARK    8  A    between atoms: C_11  and  C_12
REMARK    9  A    between atoms: C_13  and  C_14
REMARK   10  A    between atoms: N_16  and  C_17
REMARK   11  A    between atoms: C_17  and  C_18
REMARK   12  A    between atoms: C_18  and  C_19
REMARK   13  A    between atoms: C_18  and  C_20
REMARK                            x       y       z     vdW  Elec       q    Type
REMARK                         _______ _______ _______ _____ _____    ______ ____
ROOT
ATOM      1  C   UNL     1       3.857   3.449  18.492  0.00  0.00    +0.000 C 
ATOM      2  C   UNL     1       4.950   4.113  18.083  0.00  0.00    +0.000 C 
ENDROOT
BRANCH   2   3
ATOM      3  C   UNL     1       5.356   4.181  16.695  0.00  0.00    +0.000 C 
ATOM      4  C   UNL     1       6.587   4.545  16.294  0.00  0.00    +0.000 C 
BRANCH   4   5
ATOM      5  C   UNL     1       6.896   4.583  14.841  0.00  0.00    +0.000 C 
ATOM      6  O   UNL     1       7.696   5.373  14.362  0.00  0.00    +0.000 OA
ATOM      7  N   UNL     1       6.197   3.660  14.096  0.00  0.00    +0.000 N 
ATOM      8  H   UNL     1       5.546   3.031  14.546  0.00  0.00    +0.000 HD
BRANCH   7   9
ATOM      9  C   UNL     1       6.366   3.569  12.655  0.00  0.00    +0.000 C 
BRANCH   9  10
ATOM     10  C   UNL     1       5.437   2.534  11.995  0.00  0.00    +0.000 C 
ATOM     11  C   UNL     1       4.317   3.200  11.194  0.00  0.00    +0.000 C 
ATOM     12  C   UNL     1       6.243   1.615  11.071  0.00  0.00    +0.000 C 
ENDBRANCH   9  10
ENDBRANCH   7   9
ENDBRANCH   4   5
ENDBRANCH   2   3
BRANCH   1  13
ATOM     13  C   UNL     1       3.419   3.375  19.931  0.00  0.00    +0.000 C 
BRANCH  13  14
ATOM     14  C   UNL     1       1.905   3.190  20.048  0.00  0.00    +0.000 C 
BRANCH  14  15
ATOM     15  C   UNL     1       1.236   4.424  20.654  0.00  0.00    +0.000 C 
BRANCH  15  16
ATOM     16  C   UNL     1       2.013   5.693  20.306  0.00  0.00    +0.000 C 
BRANCH  16  18
ATOM     17  C   UNL     1       0.832   7.861  21.309  0.00  0.00    +0.000 C 
ATOM     18  C   UNL     1       1.353   6.870  20.877  0.00  0.00    +0.000 C 
BRANCH  17  21
ATOM     19  C   UNL     1      -0.812  11.467  22.653  0.00  0.00    +0.000 C 
ATOM     20  C   UNL     1      -0.265  10.195  22.194  0.00  0.00    +0.000 C 
ATOM     21  C   UNL     1       0.205   9.158  21.811  0.00  0.00    +0.000 C 
ENDBRANCH  17  21
ENDBRANCH  16  18
ENDBRANCH  15  16
ENDBRANCH  14  15
ENDBRANCH  13  14
ENDBRANCH   1  13
TORSDOF 10
ENDMDL
MODEL 4
REMARK VINA RESULT:      -6.3      1.186      1.610
REMARK  Name = 
REMARK  13 active torsions:
REMARK  status: ('A' for Active; 'I' for Inactive)
REMARK    1  A    between atoms: C_1  and  C_2
REMARK    2  A    between atoms: C_3  and  C_4
REMARK    3  A    between atoms: C_5  and  C_6
REMARK    4  A    between atoms: C_6  and  C_7
REMARK    5  A    between atoms: C_7  and  C_8
REMARK    6  A    between atoms: C_8  and  C_9
REMARK    7  A    between atoms: C_9  and  C_10
REMARK    8  A    between atoms: C_11  and  C_12
REMARK    9  A    between atoms: C_13  and  C_14
REMARK   10  A    between atoms: N_16  and  C_17
REMARK   11  A    between atoms: C_17  and  C_18
REMARK   12  A    between atoms: C_18  and  C_19
REMARK   13  A    between atoms: C_18  and  C_20
REMARK                            x       y       z     vdW  Elec       q    Type
REMARK                         _______ _______ _______ _____ _____    ______ ____
ROOT
ATOM      1  C   UNL     1       2.920   3.021  17.372  0.00  0.00    +0.000 C 
ATOM      2  C   UNL     1       3.997   3.817  17.269  0.00  0.00    +0.000 C 
ENDROOT
BRANCH   2   3
ATOM      3  C   UNL     1       4.715   4.013  16.027  0.00  0.00    +0.000 C 
ATOM      4  C   UNL     1       6.029   4.288  15.960  0.00  0.00    +0.000 C 
BRANCH   4   5
ATOM      5  C   UNL     1       6.666   4.472  14.630  0.00  0.00    +0.000 C 
ATOM      6  O   UNL     1       7.508   5.333  14.420  0.00  0.00    +0.000 OA
ATOM      7  N   UNL     1       6.216   3.596  13.667  0.00  0.00    +0.000 N 
ATOM      8  H   UNL     1       5.517   2.903  13.898  0.00  0.00    +0.000 HD
BRANCH   7   9
ATOM      9  C   UNL     1       6.721   3.645  12.305  0.00  0.00    +0.000 C 
BRANCH   9  10
ATOM     10  C   UNL     1       5.846   2.875  11.301  0.00  0.00    +0.000 C 
ATOM     11  C   UNL     1       6.072   1.364  11.387  0.00  0.00    +0.000 C 
ATOM     12  C   UNL     1       4.365   3.179  11.548  0.00  0.00    +0.000 C 
ENDBRANCH   9  10
ENDBRANCH   7   9
ENDBRANCH   4   5
ENDBRANCH   2   3
BRANCH   1  13
ATOM     13  C   UNL     1       2.161   2.812  18.655  0.00  0.00    +0.000 C 
BRANCH  13  14
ATOM     14  C   UNL     1       1.337   4.047  19.026  0.00  0.00    +0.000 C 
BRANCH  14  15
ATOM     15  C   UNL     1       1.857   4.704  20.305  0.00  0.00    +0.000 C 
BRANCH  15  16
ATOM     16  C   UNL     1       2.956   5.718  19.989  0.00  0.00    +0.000 C 
BRANCH  16  18
ATOM     17  C   UNL     1       1.859   8.098  19.503  0.00  0.00    +0.000 C 
ATOM     18  C   UNL     1       2.374   7.033  19.707  0.00  0.00    +0.000 C 
BRANCH  17  21
ATOM     19  C   UNL     1      -0.065  11.744  18.790  0.00  0.00    +0.000 C 
ATOM     20  C   UNL     1       0.597  10.474  19.068  0.00  0.00    +0.000 C 
ATOM     21  C   UNL     1       1.149   9.428  19.277  0.00  0.00    +0.000 C 
ENDBRANCH  17  21
ENDBRANCH  16  18
ENDBRANCH  15  16
ENDBRANCH  14  15
ENDBRANCH  13  14
ENDBRANCH   1  13
TORSDOF 10
ENDMDL
MODEL 5
REMARK VINA RESULT:      -6.2      1.639      2.140
REMARK  Name = 
REMARK  13 active torsions:
REMARK  status: ('A' for Active; 'I' for Inactive)
REMARK    1  A    between atoms: C_1  and  C_2
REMARK    2  A    between atoms: C_3  and  C_4
REMARK    3  A    between atoms: C_5  and  C_6
REMARK    4  A    between atoms: C_6  and  C_7
REMARK    5  A    between atoms: C_7  and  C_8
REMARK    6  A    between atoms: C_8  and  C_9
REMARK    7  A    between atoms: C_9  and  C_10
REMARK    8  A    between atoms: C_11  and  C_12
REMARK    9  A    between atoms: C_13  and  C_14
REMARK   10  A    between atoms: N_16  and  C_17
REMARK   11  A    between atoms: C_17  and  C_18
REMARK   12  A    between atoms: C_18  and  C_19
REMARK   13  A    between atoms: C_18  and  C_20
REMARK                            x       y       z     vdW  Elec       q    Type
REMARK                         _______ _______ _______ _____ _____    ______ ____
ROOT
ATOM      1  C   UNL     1       2.250   2.466  17.905  0.00  0.00    +0.000 C 
ATOM      2  C   UNL     1       2.695   3.733  17.879  0.00  0.00    +0.000 C 
ENDROOT
BRANCH   2   3
ATOM      3  C   UNL     1       3.813   4.157  17.062  0.00  0.00    +0.000 C 
ATOM      4  C   UNL     1       4.362   5.383  17.126  0.00  0.00    +0.000 C 
BRANCH   4   5
ATOM      5  C   UNL     1       5.508   5.714  16.239  0.00  0.00    +0.000 C 
ATOM      6  O   UNL     1       5.938   6.852  16.122  0.00  0.00    +0.000 OA
ATOM      7  N   UNL     1       6.023   4.630  15.563  0.00  0.00    +0.000 N 
ATOM      8  H   UNL     1       5.626   3.711  15.698  0.00  0.00    +0.000 HD
BRANCH   7   9
ATOM      9  C   UNL     1       7.137   4.776  14.641  0.00  0.00    +0.000 C 
BRANCH   9  10
ATOM     10  C   UNL     1       6.705   4.833  13.165  0.00  0.00    +0.000 C 
ATOM     11  C   UNL     1       7.854   5.259  12.249  0.00  0.00    +0.000 C 
ATOM     12  C   UNL     1       6.180   3.465  12.715  0.00  0.00    +0.000 C 
ENDBRANCH   9  10
ENDBRANCH   7   9
ENDBRANCH   4   5
ENDBRANCH   2   3
BRANCH   1  13
ATOM     13  C   UNL     1       1.085   2.012  18.745  0.00  0.00    +0.000 C 
BRANCH  13  14
ATOM     14  C   UNL     1       0.678   3.079  19.763  0.00  0.00    +0.000 C 
BRANCH  14  15
ATOM     15  C   UNL     1       1.244   2.774  21.150  0.00  0.00    +0.000 C 
BRANCH  15  16
ATOM     16  C   UNL     1       2.399   3.716  21.488  0.00  0.00    +0.000 C 
BRANCH  16  18
ATOM     17  C   UNL     1       1.835   6.211  20.739  0.00  0.00    +0.000 C 
ATOM     18  C   UNL     1       2.091   5.080  21.051  0.00  0.00    +0.000 C 
BRANCH  17  21
ATOM     19  C   UNL     1       0.951  10.217  19.915  0.00  0.00    +0.000 C 
ATOM     20  C   UNL     1       1.245   8.812  20.176  0.00  0.00    +0.000 C 
ATOM     21  C   UNL     1       1.496   7.661  20.410  0.00  0.00    +0.000 C 
ENDBRANCH  17  21
ENDBRANCH  16  18
ENDBRANCH  15  16
ENDBRANCH  14  15
ENDBRANCH  13  14
ENDBRANCH   1  13
TORSDOF 10
ENDMDL
MODEL 6
REMARK VINA RESULT:      -6.2      2.022      2.384
REMARK  Name = 
REMARK  13 active torsions:
REMARK  status: ('A' for Active; 'I' for Inactive)
REMARK    1  A    between atoms: C_1  and  C_2
REMARK    2  A    between atoms: C_3  and  C_4
REMARK    3  A    between atoms: C_5  and  C_6
REMARK    4  A    between atoms: C_6  and  C_7
REMARK    5  A    between atoms: C_7  and  C_8
REMARK    6  A    between atoms: C_8  and  C_9
REMARK    7  A    between atoms: C_9  and  C_10
REMARK    8  A    between atoms: C_11  and  C_12
REMARK    9  A    between atoms: C_13  and  C_14
REMARK   10  A    between atoms: N_16  and  C_17
REMARK   11  A    between atoms: C_17  and  C_18
REMARK   12  A    between atoms: C_18  and  C_19
REMARK   13  A    between atoms: C_18  and  C_20
REMARK                            x       y       z     vdW  Elec       q    Type
REMARK                         _______ _______ _______ _____ _____    ______ ____
ROOT
ATOM      1  C   UNL     1       2.996   3.143  17.555  0.00  0.00    +0.000 C 
ATOM      2  C   UNL     1       4.145   3.834  17.498  0.00  0.00    +0.000 C 
ENDROOT
BRANCH   2   3
ATOM      3  C   UNL     1       4.829   4.124  16.255  0.00  0.00    +0.000 C 
ATOM      4  C   UNL     1       6.162   4.042  16.101  0.00  0.00    +0.000 C 
BRANCH   4   5
ATOM      5  C   UNL     1       6.762   4.364  14.779  0.00  0.00    +0.000 C 
ATOM      6  O   UNL     1       7.600   5.243  14.636  0.00  0.00    +0.000 OA
ATOM      7  N   UNL     1       6.282   3.593  13.744  0.00  0.00    +0.000 N 
ATOM      8  H   UNL     1       5.588   2.880  13.922  0.00  0.00    +0.000 HD
BRANCH   7   9
ATOM      9  C   UNL     1       6.748   3.783  12.381  0.00  0.00    +0.000 C 
BRANCH   9  10
ATOM     10  C   UNL     1       5.884   3.060  11.333  0.00  0.00    +0.000 C 
ATOM     11  C   UNL     1       6.250   1.579  11.215  0.00  0.00    +0.000 C 
ATOM     12  C   UNL     1       4.400   3.187  11.693  0.00  0.00    +0.000 C 
ENDBRANCH   9  10
ENDBRANCH   7   9
ENDBRANCH   4   5
ENDBRANCH   2   3
BRANCH   1  13
ATOM     13  C   UNL     1       2.270   2.839  18.839  0.00  0.00    +0.000 C 
BRANCH  13  14
ATOM     14  C   UNL     1       2.035   4.107  19.663  0.00  0.00    +0.000 C 
BRANCH  14  15
ATOM     15  C   UNL     1       1.872   5.335  18.768  0.00  0.00    +0.000 C 
BRANCH  15  16
ATOM     16  C   UNL     1       2.770   6.478  19.240  0.00  0.00    +0.000 C 
BRANCH  16  18
ATOM     17  C   UNL     1       1.357   8.148  20.761  0.00  0.00    +0.000 C 
ATOM     18  C   UNL     1       2.010   7.415  20.072  0.00  0.00    +0.000 C 
BRANCH  17  21
ATOM     19  C   UNL     1      -1.031  10.643  23.125  0.00  0.00    +0.000 C 
ATOM     20  C   UNL     1      -0.208   9.749  22.318  0.00  0.00    +0.000 C 
ATOM     21  C   UNL     1       0.477   9.029  21.642  0.00  0.00    +0.000 C 
ENDBRANCH  17  21
ENDBRANCH  16  18
ENDBRANCH  15  16
ENDBRANCH  14  15
ENDBRANCH  13  14
ENDBRANCH   1  13
TORSDOF 10
ENDMDL
MODEL 7
REMARK VINA RESULT:      -6.1      4.776      8.934
REMARK  Name = 
REMARK  13 active torsions:
REMARK  status: ('A' for Active; 'I' for Inactive)
REMARK    1  A    between atoms: C_1  and  C_2
REMARK    2  A    between atoms: C_3  and  C_4
REMARK    3  A    between atoms: C_5  and  C_6
REMARK    4  A    between atoms: C_6  and  C_7
REMARK    5  A    between atoms: C_7  and  C_8
REMARK    6  A    between atoms: C_8  and  C_9
REMARK    7  A    between atoms: C_9  and  C_10
REMARK    8  A    between atoms: C_11  and  C_12
REMARK    9  A    between atoms: C_13  and  C_14
REMARK   10  A    between atoms: N_16  and  C_17
REMARK   11  A    between atoms: C_17  and  C_18
REMARK   12  A    between atoms: C_18  and  C_19
REMARK   13  A    between atoms: C_18  and  C_20
REMARK                            x       y       z     vdW  Elec       q    Type
REMARK                         _______ _______ _______ _____ _____    ______ ____
ROOT
ATOM      1  C   UNL     1       2.424   5.681  18.339  0.00  0.00    +0.000 C 
ATOM      2  C   UNL     1       2.966   6.848  17.955  0.00  0.00    +0.000 C 
ENDROOT
BRANCH   2   3
ATOM      3  C   UNL     1       2.376   8.132  18.273  0.00  0.00    +0.000 C 
ATOM      4  C   UNL     1       1.420   8.305  19.202  0.00  0.00    +0.000 C 
BRANCH   4   5
ATOM      5  C   UNL     1       0.882   9.668  19.447  0.00  0.00    +0.000 C 
ATOM      6  O   UNL     1       1.214  10.634  18.776  0.00  0.00    +0.000 OA
ATOM      7  N   UNL     1      -0.007   9.739  20.496  0.00  0.00    +0.000 N 
ATOM      8  H   UNL     1      -0.245   8.906  21.018  0.00  0.00    +0.000 HD
BRANCH   7   9
ATOM      9  C   UNL     1      -0.619  10.999  20.885  0.00  0.00    +0.000 C 
BRANCH   9  10
ATOM     10  C   UNL     1      -0.505  11.295  22.391  0.00  0.00    +0.000 C 
ATOM     11  C   UNL     1      -1.666  12.155  22.893  0.00  0.00    +0.000 C 
ATOM     12  C   UNL     1      -0.466   9.985  23.185  0.00  0.00    +0.000 C 
ENDBRANCH   9  10
ENDBRANCH   7   9
ENDBRANCH   4   5
ENDBRANCH   2   3
BRANCH   1  13
ATOM     13  C   UNL     1       3.028   4.339  18.021  0.00  0.00    +0.000 C 
BRANCH  13  14
ATOM     14  C   UNL     1       4.557   4.388  18.068  0.00  0.00    +0.000 C 
BRANCH  14  15
ATOM     15  C   UNL     1       5.172   3.929  16.746  0.00  0.00    +0.000 C 
BRANCH  15  16
ATOM     16  C   UNL     1       5.415   5.116  15.815  0.00  0.00    +0.000 C 
BRANCH  16  18
ATOM     17  C   UNL     1       6.897   6.985  17.003  0.00  0.00    +0.000 C 
ATOM     18  C   UNL     1       6.245   6.125  16.479  0.00  0.00    +0.000 C 
BRANCH  17  21
ATOM     19  C   UNL     1       9.060  10.168  18.648  0.00  0.00    +0.000 C 
ATOM     20  C   UNL     1       8.310   9.042  18.101  0.00  0.00    +0.000 C 
ATOM     21  C   UNL     1       7.691   8.126  17.632  0.00  0.00    +0.000 C 
ENDBRANCH  17  21
ENDBRANCH  16  18
ENDBRANCH  15  16
ENDBRANCH  14  15
ENDBRANCH  13  14
ENDBRANCH   1  13
TORSDOF 10
ENDMDL
MODEL 8
REMARK VINA RESULT:      -6.1      1.776      2.965
REMARK  Name = 
REMARK  13 active torsions:
REMARK  status: ('A' for Active; 'I' for Inactive)
REMARK    1  A    between atoms: C_1  and  C_2
REMARK    2  A    between atoms: C_3  and  C_4
REMARK    3  A    between atoms: C_5  and  C_6
REMARK    4  A    between atoms: C_6  and  C_7
REMARK    5  A    between atoms: C_7  and  C_8
REMARK    6  A    between atoms: C_8  and  C_9
REMARK    7  A    between atoms: C_9  and  C_10
REMARK    8  A    between atoms: C_11  and  C_12
REMARK    9  A    between atoms: C_13  and  C_14
REMARK   10  A    between atoms: N_16  and  C_17
REMARK   11  A    between atoms: C_17  and  C_18
REMARK   12  A    between atoms: C_18  and  C_19
REMARK   13  A    between atoms: C_18  and  C_20
REMARK                            x       y       z     vdW  Elec       q    Type
REMARK                         _______ _______ _______ _____ _____    ______ ____
ROOT
ATOM      1  C   UNL     1       3.278   4.116  17.344  0.00  0.00    +0.000 C 
ATOM      2  C   UNL     1       4.589   4.397  17.275  0.00  0.00    +0.000 C 
ENDROOT
BRANCH   2   3
ATOM      3  C   UNL     1       5.381   4.171  16.084  0.00  0.00    +0.000 C 
ATOM      4  C   UNL     1       5.997   5.151  15.400  0.00  0.00    +0.000 C 
BRANCH   4   5
ATOM      5  C   UNL     1       6.785   4.808  14.188  0.00  0.00    +0.000 C 
ATOM      6  O   UNL     1       7.792   5.420  13.865  0.00  0.00    +0.000 OA
ATOM      7  N   UNL     1       6.271   3.752  13.467  0.00  0.00    +0.000 N 
ATOM      8  H   UNL     1       5.433   3.283  13.782  0.00  0.00    +0.000 HD
BRANCH   7   9
ATOM      9  C   UNL     1       6.907   3.292  12.244  0.00  0.00    +0.000 C 
BRANCH   9  10
ATOM     10  C   UNL     1       5.924   2.649  11.249  0.00  0.00    +0.000 C 
ATOM     11  C   UNL     1       5.998   1.122  11.279  0.00  0.00    +0.000 C 
ATOM     12  C   UNL     1       4.491   3.092  11.562  0.00  0.00    +0.000 C 
ENDBRANCH   9  10
ENDBRANCH   7   9
ENDBRANCH   4   5
ENDBRANCH   2   3
BRANCH   1  13
ATOM     13  C   UNL     1       2.440   4.351  18.573  0.00  0.00    +0.000 C 
BRANCH  13  14
ATOM     14  C   UNL     1       1.931   5.792  18.637  0.00  0.00    +0.000 C 
BRANCH  14  15
ATOM     15  C   UNL     1       3.079   6.783  18.835  0.00  0.00    +0.000 C 
BRANCH  15  16
ATOM     16  C   UNL     1       3.036   7.886  17.778  0.00  0.00    +0.000 C 
BRANCH  16  18
ATOM     17  C   UNL     1       0.899   9.439  18.127  0.00  0.00    +0.000 C 
ATOM     18  C   UNL     1       1.846   8.722  17.958  0.00  0.00    +0.000 C 
BRANCH  17  21
ATOM     19  C   UNL     1      -2.331  11.990  18.882  0.00  0.00    +0.000 C 
ATOM     20  C   UNL     1      -1.192  11.123  18.600  0.00  0.00    +0.000 C 
ATOM     21  C   UNL     1      -0.264  10.393  18.381  0.00  0.00    +0.000 C 
ENDBRANCH  17  21
ENDBRANCH  16  18
ENDBRANCH  15  16
ENDBRANCH  14  15
ENDBRANCH  13  14
ENDBRANCH   1  13
TORSDOF 10
ENDMDL
MODEL 9
REMARK VINA RESULT:      -6.1      5.125      8.440
REMARK  Name = 
REMARK  13 active torsions:
REMARK  status: ('A' for Active; 'I' for Inactive)
REMARK    1  A    between atoms: C_1  and  C_2
REMARK    2  A    between atoms: C_3  and  C_4
REMARK    3  A    between atoms: C_5  and  C_6
REMARK    4  A    between atoms: C_6  and  C_7
REMARK    5  A    between atoms: C_7  and  C_8
REMARK    6  A    between atoms: C_8  and  C_9
REMARK    7  A    between atoms: C_9  and  C_10
REMARK    8  A    between atoms: C_11  and  C_12
REMARK    9  A    between atoms: C_13  and  C_14
REMARK   10  A    between atoms: N_16  and  C_17
REMARK   11  A    between atoms: C_17  and  C_18
REMARK   12  A    between atoms: C_18  and  C_19
REMARK   13  A    between atoms: C_18  and  C_20
REMARK                            x       y       z     vdW  Elec       q    Type
REMARK                         _______ _______ _______ _____ _____    ______ ____
ROOT
ATOM      1  C   UNL     1       2.320   6.460  17.772  0.00  0.00    +0.000 C 
ATOM      2  C   UNL     1       2.508   7.661  18.344  0.00  0.00    +0.000 C 
ENDROOT
BRANCH   2   3
ATOM      3  C   UNL     1       1.596   8.771  18.161  0.00  0.00    +0.000 C 
ATOM      4  C   UNL     1       1.203   9.585  19.157  0.00  0.00    +0.000 C 
BRANCH   4   5
ATOM      5  C   UNL     1       0.261  10.695  18.858  0.00  0.00    +0.000 C 
ATOM      6  O   UNL     1       0.205  11.708  19.539  0.00  0.00    +0.000 OA
ATOM      7  N   UNL     1      -0.539  10.470  17.760  0.00  0.00    +0.000 N 
ATOM      8  H   UNL     1      -0.450   9.611  17.234  0.00  0.00    +0.000 HD
BRANCH   7   9
ATOM      9  C   UNL     1      -1.530  11.445  17.334  0.00  0.00    +0.000 C 
BRANCH   9  10
ATOM     10  C   UNL     1      -2.837  10.808  16.831  0.00  0.00    +0.000 C 
ATOM     11  C   UNL     1      -2.789  10.517  15.330  0.00  0.00    +0.000 C 
ATOM     12  C   UNL     1      -3.117   9.507  17.590  0.00  0.00    +0.000 C 
ENDBRANCH   9  10
ENDBRANCH   7   9
ENDBRANCH   4   5
ENDBRANCH   2   3
BRANCH   1  13
ATOM     13  C   UNL     1       3.256   5.295  17.958  0.00  0.00    +0.000 C 
BRANCH  13  14
ATOM     14  C   UNL     1       4.520   5.706  18.716  0.00  0.00    +0.000 C 
BRANCH  14  15
ATOM     15  C   UNL     1       5.778   5.148  18.050  0.00  0.00    +0.000 C 
BRANCH  15  16
ATOM     16  C   UNL     1       6.186   6.003  16.851  0.00  0.00    +0.000 C 
BRANCH  16  18
ATOM     17  C   UNL     1       7.675   8.056  17.669  0.00  0.00    +0.000 C 
ATOM     18  C   UNL     1       7.023   7.125  17.284  0.00  0.00    +0.000 C 
BRANCH  17  21
ATOM     19  C   UNL     1       9.878  11.307  19.115  0.00  0.00    +0.000 C 
ATOM     20  C   UNL     1       9.084  10.191  18.611  0.00  0.00    +0.000 C 
ATOM     21  C   UNL     1       8.448   9.260  18.197  0.00  0.00    +0.000 C 
ENDBRANCH  17  21
ENDBRANCH  16  18
ENDBRANCH  15  16
ENDBRANCH  14  15
ENDBRANCH  13  14
ENDBRANCH   1  13
TORSDOF 10
ENDMDL
