MODEL 1
REMARK VINA RESULT:      -8.4      0.000      0.000
REMARK  Name = 
REMARK  9 active torsions:
REMARK  status: ('A' for Active; 'I' for Inactive)
REMARK    1  A    between atoms: C_1  and  O_2
REMARK    2  A    between atoms: O_2  and  C_3
REMARK    3  A    between atoms: C_6  and  N_7
REMARK    4  A    between atoms: N_7  and  S_8
REMARK    5  A    between atoms: S_8  and  C_11
REMARK    6  A    between atoms: C_15  and  C_16
REMARK    7  A    between atoms: N_18  and  N_19
REMARK    8  A    between atoms: C_20  and  C_22
REMARK    9  A    between atoms: N_26  and  C_27
REMARK                            x       y       z     vdW  Elec       q    Type
REMARK                         _______ _______ _______ _____ _____    ______ ____
ROOT
ATOM      1  C   UNL     1       4.374   5.181  17.813  0.00  0.00    +0.000 A 
ATOM      2  C   UNL     1       4.498   4.707  16.506  0.00  0.00    +0.000 A 
ATOM      3  C   UNL     1       5.668   4.975  15.794  0.00  0.00    +0.000 A 
ATOM      4  C   UNL     1       6.697   5.714  16.389  0.00  0.00    +0.000 A 
ATOM      5  C   UNL     1       6.568   6.200  17.701  0.00  0.00    +0.000 A 
ATOM      6  C   UNL     1       5.389   5.941  18.406  0.00  0.00    +0.000 A 
ENDROOT
BRANCH   5   7
ATOM      7  C   UNL     1       7.715   6.960  18.289  0.00  0.00    +0.000 C 
ATOM      8  O   UNL     1       8.456   6.433  19.117  0.00  0.00    +0.000 OA
ATOM      9  N   UNL     1       7.885   8.267  17.878  0.00  0.00    +0.000 N 
ATOM     10  H   UNL     1       7.328   8.759  17.184  0.00  0.00    +0.000 HD
BRANCH   9  11
ATOM     11  N   UNL     1       8.927   9.010  18.433  0.00  0.00    +0.000 N 
ATOM     12  C   UNL     1       8.925  10.383  18.275  0.00  0.00    +0.000 C 
ATOM     13  O   UNL     1       8.031  10.939  17.637  0.00  0.00    +0.000 OA
ATOM     14  H   UNL     1       9.601   8.501  19.000  0.00  0.00    +0.000 HD
BRANCH  12  15
ATOM     15  C   UNL     1      10.029  11.083  18.912  0.00  0.00    +0.000 A 
ATOM     16  C   UNL     1      11.258  11.461  18.382  0.00  0.00    +0.000 A 
ATOM     17  C   UNL     1      11.998  12.130  19.384  0.00  0.00    +0.000 A 
ATOM     18  C   UNL     1      11.214  12.158  20.511  0.00  0.00    +0.000 A 
ATOM     19  N   UNL     1      10.036  11.514  20.228  0.00  0.00    +0.000 N 
ATOM     20  C   UNL     1       8.981  11.306  21.202  0.00  0.00    +0.000 C 
ENDBRANCH  12  15
ENDBRANCH   9  11
ENDBRANCH   5   7
BRANCH   1  21
ATOM     21  S   UNL     1       2.892   4.867  18.742  0.00  0.00    +0.000 S 
ATOM     22  O   UNL     1       3.091   3.633  19.474  0.00  0.00    +0.000 OA
ATOM     23  O   UNL     1       1.757   5.034  17.861  0.00  0.00    +0.000 OA
BRANCH  21  24
ATOM     24  N   UNL     1       2.903   6.101  19.889  0.00  0.00    +0.000 N 
ATOM     25  H   UNL     1       2.796   5.732  20.834  0.00  0.00    +0.000 HD
BRANCH  24  29
ATOM     26  C   UNL     1       0.894   9.714  19.055  0.00  0.00    +0.000 A 
ATOM     27  C   UNL     1       1.677   9.107  18.068  0.00  0.00    +0.000 A 
ATOM     28  C   UNL     1       2.353   7.912  18.332  0.00  0.00    +0.000 A 
ATOM     29  C   UNL     1       2.255   7.330  19.593  0.00  0.00    +0.000 A 
ATOM     30  C   UNL     1       1.502   7.946  20.591  0.00  0.00    +0.000 A 
ATOM     31  C   UNL     1       0.821   9.138  20.324  0.00  0.00    +0.000 A 
BRANCH  26  33
ATOM     32  C   UNL     1      -1.129  10.933  18.913  0.00  0.00    +0.000 C 
ATOM     33  O   UNL     1       0.275  10.874  18.679  0.00  0.00    +0.000 OA
ENDBRANCH  26  33
ENDBRANCH  24  29
ENDBRANCH  21  24
ENDBRANCH   1  21
TORSDOF 7
ENDMDL
MODEL 2
REMARK VINA RESULT:      -8.3      1.327      1.607
REMARK  Name = 
REMARK  9 active torsions:
REMARK  status: ('A' for Active; 'I' for Inactive)
REMARK    1  A    between atoms: C_1  and  O_2
REMARK    2  A    between atoms: O_2  and  C_3
REMARK    3  A    between atoms: C_6  and  N_7
REMARK    4  A    between atoms: N_7  and  S_8
REMARK    5  A    between atoms: S_8  and  C_11
REMARK    6  A    between atoms: C_15  and  C_16
REMARK    7  A    between atoms: N_18  and  N_19
REMARK    8  A    between atoms: C_20  and  C_22
REMARK    9  A    between atoms: N_26  and  C_27
REMARK                            x       y       z     vdW  Elec       q    Type
REMARK                         _______ _______ _______ _____ _____    ______ ____
ROOT
ATOM      1  C   UNL     1       4.927   4.350  17.622  0.00  0.00    +0.000 A 
ATOM      2  C   UNL     1       4.778   4.528  16.246  0.00  0.00    +0.000 A 
ATOM      3  C   UNL     1       5.601   5.442  15.586  0.00  0.00    +0.000 A 
ATOM      4  C   UNL     1       6.557   6.169  16.304  0.00  0.00    +0.000 A 
ATOM      5  C   UNL     1       6.700   5.997  17.691  0.00  0.00    +0.000 A 
ATOM      6  C   UNL     1       5.866   5.090  18.350  0.00  0.00    +0.000 A 
ENDROOT
BRANCH   5   7
ATOM      7  C   UNL     1       7.761   6.783  18.396  0.00  0.00    +0.000 C 
ATOM      8  O   UNL     1       8.419   6.277  19.302  0.00  0.00    +0.000 OA
ATOM      9  N   UNL     1       7.945   8.093  17.998  0.00  0.00    +0.000 N 
ATOM     10  H   UNL     1       7.456   8.570  17.244  0.00  0.00    +0.000 HD
BRANCH   9  11
ATOM     11  N   UNL     1       8.905   8.861  18.658  0.00  0.00    +0.000 N 
ATOM     12  C   UNL     1       8.923  10.227  18.450  0.00  0.00    +0.000 C 
ATOM     13  O   UNL     1       8.121  10.755  17.680  0.00  0.00    +0.000 OA
ATOM     14  H   UNL     1       9.499   8.376  19.326  0.00  0.00    +0.000 HD
BRANCH  12  15
ATOM     15  C   UNL     1       9.933  10.956  19.201  0.00  0.00    +0.000 A 
ATOM     16  C   UNL     1      11.218  11.331  18.821  0.00  0.00    +0.000 A 
ATOM     17  C   UNL     1      11.820  12.035  19.887  0.00  0.00    +0.000 A 
ATOM     18  C   UNL     1      10.900  12.086  20.905  0.00  0.00    +0.000 A 
ATOM     19  N   UNL     1       9.771  11.422  20.495  0.00  0.00    +0.000 N 
ATOM     20  C   UNL     1       8.603  11.231  21.333  0.00  0.00    +0.000 C 
ENDBRANCH  12  15
ENDBRANCH   9  11
ENDBRANCH   5   7
BRANCH   1  21
ATOM     21  S   UNL     1       3.887   3.202  18.493  0.00  0.00    +0.000 S 
ATOM     22  O   UNL     1       4.282   3.226  19.886  0.00  0.00    +0.000 OA
ATOM     23  O   UNL     1       3.856   1.961  17.750  0.00  0.00    +0.000 OA
BRANCH  21  24
ATOM     24  N   UNL     1       2.374   3.941  18.420  0.00  0.00    +0.000 N 
ATOM     25  H   UNL     1       1.922   3.775  17.521  0.00  0.00    +0.000 HD
BRANCH  24  29
ATOM     26  C   UNL     1       1.758   7.707  20.214  0.00  0.00    +0.000 A 
ATOM     27  C   UNL     1       2.221   7.629  18.897  0.00  0.00    +0.000 A 
ATOM     28  C   UNL     1       2.435   6.387  18.291  0.00  0.00    +0.000 A 
ATOM     29  C   UNL     1       2.197   5.220  19.012  0.00  0.00    +0.000 A 
ATOM     30  C   UNL     1       1.765   5.290  20.335  0.00  0.00    +0.000 A 
ATOM     31  C   UNL     1       1.546   6.533  20.938  0.00  0.00    +0.000 A 
BRANCH  26  33
ATOM     32  C   UNL     1       0.354   9.608  20.340  0.00  0.00    +0.000 C 
ATOM     33  O   UNL     1       1.579   8.974  20.697  0.00  0.00    +0.000 OA
ENDBRANCH  26  33
ENDBRANCH  24  29
ENDBRANCH  21  24
ENDBRANCH   1  21
TORSDOF 7
ENDMDL
MODEL 3
REMARK VINA RESULT:      -8.2      4.368      8.066
REMARK  Name = 
REMARK  9 active torsions:
REMARK  status: ('A' for Active; 'I' for Inactive)
REMARK    1  A    between atoms: C_1  and  O_2
REMARK    2  A    between atoms: O_2  and  C_3
REMARK    3  A    between atoms: C_6  and  N_7
REMARK    4  A    between atoms: N_7  and  S_8
REMARK    5  A    between atoms: S_8  and  C_11
REMARK    6  A    between atoms: C_15  and  C_16
REMARK    7  A    between atoms: N_18  and  N_19
REMARK    8  A    between atoms: C_20  and  C_22
REMARK    9  A    between atoms: N_26  and  C_27
REMARK                            x       y       z     vdW  Elec       q    Type
REMARK                         _______ _______ _______ _____ _____    ______ ____
ROOT
ATOM      1  C   UNL     1       5.763   4.857  18.160  0.00  0.00    +0.000 A 
ATOM      2  C   UNL     1       5.399   3.511  18.097  0.00  0.00    +0.000 A 
ATOM      3  C   UNL     1       4.125   3.131  18.519  0.00  0.00    +0.000 A 
ATOM      4  C   UNL     1       3.230   4.093  19.002  0.00  0.00    +0.000 A 
ATOM      5  C   UNL     1       3.600   5.447  19.075  0.00  0.00    +0.000 A 
ATOM      6  C   UNL     1       4.882   5.821  18.663  0.00  0.00    +0.000 A 
ENDROOT
BRANCH   5   7
ATOM      7  C   UNL     1       2.588   6.430  19.573  0.00  0.00    +0.000 C 
ATOM      8  O   UNL     1       1.859   6.152  20.524  0.00  0.00    +0.000 OA
ATOM      9  N   UNL     1       2.500   7.637  18.909  0.00  0.00    +0.000 N 
ATOM     10  H   UNL     1       3.081   7.944  18.134  0.00  0.00    +0.000 HD
BRANCH   9  11
ATOM     11  N   UNL     1       1.543   8.561  19.332  0.00  0.00    +0.000 N 
ATOM     12  C   UNL     1       1.294   9.670  18.544  0.00  0.00    +0.000 C 
ATOM     13  O   UNL     1       1.920   9.850  17.500  0.00  0.00    +0.000 OA
ATOM     14  H   UNL     1       1.017   8.325  20.170  0.00  0.00    +0.000 HD
BRANCH  12  15
ATOM     15  C   UNL     1       0.261  10.564  19.041  0.00  0.00    +0.000 A 
ATOM     16  C   UNL     1       0.292  11.435  20.125  0.00  0.00    +0.000 A 
ATOM     17  C   UNL     1      -0.949  12.105  20.206  0.00  0.00    +0.000 A 
ATOM     18  C   UNL     1      -1.724  11.642  19.171  0.00  0.00    +0.000 A 
ATOM     19  N   UNL     1      -0.999  10.703  18.481  0.00  0.00    +0.000 N 
ATOM     20  C   UNL     1      -1.517   9.961  17.348  0.00  0.00    +0.000 C 
ENDBRANCH  12  15
ENDBRANCH   9  11
ENDBRANCH   5   7
BRANCH   1  21
ATOM     21  S   UNL     1       7.383   5.371  17.641  0.00  0.00    +0.000 S 
ATOM     22  O   UNL     1       8.146   4.176  17.347  0.00  0.00    +0.000 OA
ATOM     23  O   UNL     1       7.872   6.354  18.581  0.00  0.00    +0.000 OA
BRANCH  21  24
ATOM     24  N   UNL     1       7.080   6.111  16.157  0.00  0.00    +0.000 N 
ATOM     25  H   UNL     1       6.600   7.003  16.278  0.00  0.00    +0.000 HD
BRANCH  24  29
ATOM     26  C   UNL     1       5.905   3.670  12.926  0.00  0.00    +0.000 A 
ATOM     27  C   UNL     1       7.192   4.216  12.956  0.00  0.00    +0.000 A 
ATOM     28  C   UNL     1       7.593   5.032  14.018  0.00  0.00    +0.000 A 
ATOM     29  C   UNL     1       6.698   5.312  15.047  0.00  0.00    +0.000 A 
ATOM     30  C   UNL     1       5.404   4.796  15.008  0.00  0.00    +0.000 A 
ATOM     31  C   UNL     1       5.006   3.975  13.947  0.00  0.00    +0.000 A 
BRANCH  26  33
ATOM     32  C   UNL     1       4.328   3.034  11.280  0.00  0.00    +0.000 C 
ATOM     33  O   UNL     1       5.629   2.883  11.842  0.00  0.00    +0.000 OA
ENDBRANCH  26  33
ENDBRANCH  24  29
ENDBRANCH  21  24
ENDBRANCH   1  21
TORSDOF 7
ENDMDL
MODEL 4
REMARK VINA RESULT:      -8.1      3.683      7.094
REMARK  Name = 
REMARK  9 active torsions:
REMARK  status: ('A' for Active; 'I' for Inactive)
REMARK    1  A    between atoms: C_1  and  O_2
REMARK    2  A    between atoms: O_2  and  C_3
REMARK    3  A    between atoms: C_6  and  N_7
REMARK    4  A    between atoms: N_7  and  S_8
REMARK    5  A    between atoms: S_8  and  C_11
REMARK    6  A    between atoms: C_15  and  C_16
REMARK    7  A    between atoms: N_18  and  N_19
REMARK    8  A    between atoms: C_20  and  C_22
REMARK    9  A    between atoms: N_26  and  C_27
REMARK                            x       y       z     vdW  Elec       q    Type
REMARK                         _______ _______ _______ _____ _____    ______ ____
ROOT
ATOM      1  C   UNL     1       2.417   4.430  18.796  0.00  0.00    +0.000 A 
ATOM      2  C   UNL     1       2.329   4.184  20.167  0.00  0.00    +0.000 A 
ATOM      3  C   UNL     1       2.163   5.259  21.041  0.00  0.00    +0.000 A 
ATOM      4  C   UNL     1       2.091   6.564  20.540  0.00  0.00    +0.000 A 
ATOM      5  C   UNL     1       2.190   6.813  19.161  0.00  0.00    +0.000 A 
ATOM      6  C   UNL     1       2.369   5.735  18.291  0.00  0.00    +0.000 A 
ENDROOT
BRANCH   5   7
ATOM      7  C   UNL     1       2.077   8.228  18.688  0.00  0.00    +0.000 C 
ATOM      8  O   UNL     1       2.625   8.587  17.648  0.00  0.00    +0.000 OA
ATOM      9  N   UNL     1       1.355   9.102  19.477  0.00  0.00    +0.000 N 
ATOM     10  H   UNL     1       0.857   8.872  20.333  0.00  0.00    +0.000 HD
BRANCH   9  11
ATOM     11  N   UNL     1       1.258  10.435  19.078  0.00  0.00    +0.000 N 
ATOM     12  C   UNL     1       1.156  11.415  20.047  0.00  0.00    +0.000 C 
ATOM     13  O   UNL     1       1.128  11.116  21.241  0.00  0.00    +0.000 OA
ATOM     14  H   UNL     1       1.349  10.623  18.082  0.00  0.00    +0.000 HD
BRANCH  12  15
ATOM     15  C   UNL     1       1.093  12.779  19.547  0.00  0.00    +0.000 A 
ATOM     16  C   UNL     1       2.129  13.646  19.212  0.00  0.00    +0.000 A 
ATOM     17  C   UNL     1       1.573  14.864  18.760  0.00  0.00    +0.000 A 
ATOM     18  C   UNL     1       0.208  14.730  18.819  0.00  0.00    +0.000 A 
ATOM     19  N   UNL     1      -0.078  13.479  19.308  0.00  0.00    +0.000 N 
ATOM     20  C   UNL     1      -1.425  13.002  19.553  0.00  0.00    +0.000 C 
ENDBRANCH  12  15
ENDBRANCH   9  11
ENDBRANCH   5   7
BRANCH   1  21
ATOM     21  S   UNL     1       2.640   3.083  17.658  0.00  0.00    +0.000 S 
ATOM     22  O   UNL     1       2.338   3.580  16.331  0.00  0.00    +0.000 OA
ATOM     23  O   UNL     1       1.963   1.921  18.189  0.00  0.00    +0.000 OA
BRANCH  21  24
ATOM     24  N   UNL     1       4.306   2.834  17.698  0.00  0.00    +0.000 N 
ATOM     25  H   UNL     1       4.568   2.199  18.452  0.00  0.00    +0.000 HD
BRANCH  24  29
ATOM     26  C   UNL     1       6.864   6.111  16.991  0.00  0.00    +0.000 A 
ATOM     27  C   UNL     1       6.087   5.594  15.949  0.00  0.00    +0.000 A 
ATOM     28  C   UNL     1       5.239   4.505  16.168  0.00  0.00    +0.000 A 
ATOM     29  C   UNL     1       5.178   3.922  17.431  0.00  0.00    +0.000 A 
ATOM     30  C   UNL     1       5.972   4.413  18.466  0.00  0.00    +0.000 A 
ATOM     31  C   UNL     1       6.816   5.507  18.247  0.00  0.00    +0.000 A 
BRANCH  26  33
ATOM     32  C   UNL     1       7.668   8.251  17.600  0.00  0.00    +0.000 C 
ATOM     33  O   UNL     1       7.649   7.181  16.660  0.00  0.00    +0.000 OA
ENDBRANCH  26  33
ENDBRANCH  24  29
ENDBRANCH  21  24
ENDBRANCH   1  21
TORSDOF 7
ENDMDL
MODEL 5
REMARK VINA RESULT:      -8.1      5.962      8.771
REMARK  Name = 
REMARK  9 active torsions:
REMARK  status: ('A' for Active; 'I' for Inactive)
REMARK    1  A    between atoms: C_1  and  O_2
REMARK    2  A    between atoms: O_2  and  C_3
REMARK    3  A    between atoms: C_6  and  N_7
REMARK    4  A    between atoms: N_7  and  S_8
REMARK    5  A    between atoms: S_8  and  C_11
REMARK    6  A    between atoms: C_15  and  C_16
REMARK    7  A    between atoms: N_18  and  N_19
REMARK    8  A    between atoms: C_20  and  C_22
REMARK    9  A    between atoms: N_26  and  C_27
REMARK                            x       y       z     vdW  Elec       q    Type
REMARK                         _______ _______ _______ _____ _____    ______ ____
ROOT
ATOM      1  C   UNL     1      -1.054  11.392  20.930  0.00  0.00    +0.000 A 
ATOM      2  C   UNL     1      -1.162  11.400  22.322  0.00  0.00    +0.000 A 
ATOM      3  C   UNL     1      -0.464  10.446  23.063  0.00  0.00    +0.000 A 
ATOM      4  C   UNL     1       0.328   9.494  22.411  0.00  0.00    +0.000 A 
ATOM      5  C   UNL     1       0.429   9.479  21.010  0.00  0.00    +0.000 A 
ATOM      6  C   UNL     1      -0.281  10.428  20.271  0.00  0.00    +0.000 A 
ENDROOT
BRANCH   5   7
ATOM      7  C   UNL     1       1.315   8.453  20.376  0.00  0.00    +0.000 C 
ATOM      8  O   UNL     1       1.764   8.626  19.244  0.00  0.00    +0.000 OA
ATOM      9  N   UNL     1       1.582   7.311  21.105  0.00  0.00    +0.000 N 
ATOM     10  H   UNL     1       1.266   7.111  22.051  0.00  0.00    +0.000 HD
BRANCH   9  11
ATOM     11  N   UNL     1       2.379   6.323  20.527  0.00  0.00    +0.000 N 
ATOM     12  C   UNL     1       1.807   5.104  20.215  0.00  0.00    +0.000 C 
ATOM     13  O   UNL     1       0.621   4.886  20.462  0.00  0.00    +0.000 OA
ATOM     14  H   UNL     1       3.333   6.584  20.292  0.00  0.00    +0.000 HD
BRANCH  12  15
ATOM     15  C   UNL     1       2.699   4.143  19.586  0.00  0.00    +0.000 A 
ATOM     16  C   UNL     1       3.257   4.157  18.312  0.00  0.00    +0.000 A 
ATOM     17  C   UNL     1       4.070   3.012  18.159  0.00  0.00    +0.000 A 
ATOM     18  C   UNL     1       4.005   2.312  19.338  0.00  0.00    +0.000 A 
ATOM     19  N   UNL     1       3.167   2.987  20.190  0.00  0.00    +0.000 N 
ATOM     20  C   UNL     1       2.820   2.515  21.516  0.00  0.00    +0.000 C 
ENDBRANCH  12  15
ENDBRANCH   9  11
ENDBRANCH   5   7
BRANCH   1  21
ATOM     21  S   UNL     1      -1.938  12.587  19.957  0.00  0.00    +0.000 S 
ATOM     22  O   UNL     1      -1.101  12.934  18.828  0.00  0.00    +0.000 OA
ATOM     23  O   UNL     1      -2.451  13.607  20.844  0.00  0.00    +0.000 OA
BRANCH  21  24
ATOM     24  N   UNL     1      -3.218  11.685  19.334  0.00  0.00    +0.000 N 
ATOM     25  H   UNL     1      -3.602  11.051  20.035  0.00  0.00    +0.000 HD
BRANCH  24  29
ATOM     26  C   UNL     1      -2.909  10.292  15.366  0.00  0.00    +0.000 A 
ATOM     27  C   UNL     1      -3.898  11.221  15.705  0.00  0.00    +0.000 A 
ATOM     28  C   UNL     1      -4.016  11.687  17.017  0.00  0.00    +0.000 A 
ATOM     29  C   UNL     1      -3.148  11.212  17.997  0.00  0.00    +0.000 A 
ATOM     30  C   UNL     1      -2.180  10.264  17.673  0.00  0.00    +0.000 A 
ATOM     31  C   UNL     1      -2.060   9.802  16.358  0.00  0.00    +0.000 A 
BRANCH  26  33
ATOM     32  C   UNL     1      -4.152   9.856  13.400  0.00  0.00    +0.000 C 
ATOM     33  O   UNL     1      -2.886   9.915  14.052  0.00  0.00    +0.000 OA
ENDBRANCH  26  33
ENDBRANCH  24  29
ENDBRANCH  21  24
ENDBRANCH   1  21
TORSDOF 7
ENDMDL
MODEL 6
REMARK VINA RESULT:      -8.1      4.625      8.360
REMARK  Name = 
REMARK  9 active torsions:
REMARK  status: ('A' for Active; 'I' for Inactive)
REMARK    1  A    between atoms: C_1  and  O_2
REMARK    2  A    between atoms: O_2  and  C_3
REMARK    3  A    between atoms: C_6  and  N_7
REMARK    4  A    between atoms: N_7  and  S_8
REMARK    5  A    between atoms: S_8  and  C_11
REMARK    6  A    between atoms: C_15  and  C_16
REMARK    7  A    between atoms: N_18  and  N_19
REMARK    8  A    between atoms: C_20  and  C_22
REMARK    9  A    between atoms: N_26  and  C_27
REMARK                            x       y       z     vdW  Elec       q    Type
REMARK                         _______ _______ _______ _____ _____    ______ ____
ROOT
ATOM      1  C   UNL     1       5.155   4.858  17.758  0.00  0.00    +0.000 A 
ATOM      2  C   UNL     1       4.710   3.610  17.317  0.00  0.00    +0.000 A 
ATOM      3  C   UNL     1       3.494   3.116  17.789  0.00  0.00    +0.000 A 
ATOM      4  C   UNL     1       2.737   3.867  18.696  0.00  0.00    +0.000 A 
ATOM      5  C   UNL     1       3.188   5.118  19.148  0.00  0.00    +0.000 A 
ATOM      6  C   UNL     1       4.414   5.603  18.683  0.00  0.00    +0.000 A 
ENDROOT
BRANCH   5   7
ATOM      7  C   UNL     1       2.319   5.884  20.095  0.00  0.00    +0.000 C 
ATOM      8  O   UNL     1       1.437   5.315  20.736  0.00  0.00    +0.000 OA
ATOM      9  N   UNL     1       2.539   7.243  20.196  0.00  0.00    +0.000 N 
ATOM     10  H   UNL     1       3.261   7.776  19.717  0.00  0.00    +0.000 HD
BRANCH   9  11
ATOM     11  N   UNL     1       1.723   7.989  21.048  0.00  0.00    +0.000 N 
ATOM     12  C   UNL     1       1.105   9.123  20.555  0.00  0.00    +0.000 C 
ATOM     13  O   UNL     1       1.289   9.482  19.393  0.00  0.00    +0.000 OA
ATOM     14  H   UNL     1       1.561   7.607  21.977  0.00  0.00    +0.000 HD
BRANCH  12  15
ATOM     15  C   UNL     1       0.247   9.822  21.499  0.00  0.00    +0.000 A 
ATOM     16  C   UNL     1      -0.455   9.323  22.592  0.00  0.00    +0.000 A 
ATOM     17  C   UNL     1      -1.142  10.389  23.215  0.00  0.00    +0.000 A 
ATOM     18  C   UNL     1      -0.852  11.526  22.502  0.00  0.00    +0.000 A 
ATOM     19  N   UNL     1      -0.028  11.179  21.460  0.00  0.00    +0.000 N 
ATOM     20  C   UNL     1       0.445  12.119  20.463  0.00  0.00    +0.000 C 
ENDBRANCH  12  15
ENDBRANCH   9  11
ENDBRANCH   5   7
BRANCH   1  21
ATOM     21  S   UNL     1       6.705   5.509  17.185  0.00  0.00    +0.000 S 
ATOM     22  O   UNL     1       7.607   4.391  17.003  0.00  0.00    +0.000 OA
ATOM     23  O   UNL     1       7.068   6.628  18.026  0.00  0.00    +0.000 OA
BRANCH  21  24
ATOM     24  N   UNL     1       6.326   6.065  15.640  0.00  0.00    +0.000 N 
ATOM     25  H   UNL     1       5.513   6.681  15.655  0.00  0.00    +0.000 HD
BRANCH  24  29
ATOM     26  C   UNL     1       6.726   3.526  12.297  0.00  0.00    +0.000 A 
ATOM     27  C   UNL     1       5.643   3.369  13.167  0.00  0.00    +0.000 A 
ATOM     28  C   UNL     1       5.500   4.199  14.282  0.00  0.00    +0.000 A 
ATOM     29  C   UNL     1       6.453   5.183  14.534  0.00  0.00    +0.000 A 
ATOM     30  C   UNL     1       7.552   5.325  13.688  0.00  0.00    +0.000 A 
ATOM     31  C   UNL     1       7.690   4.496  12.569  0.00  0.00    +0.000 A 
BRANCH  26  33
ATOM     32  C   UNL     1       5.745   1.656  11.228  0.00  0.00    +0.000 C 
ATOM     33  O   UNL     1       6.756   2.661  11.238  0.00  0.00    +0.000 OA
ENDBRANCH  26  33
ENDBRANCH  24  29
ENDBRANCH  21  24
ENDBRANCH   1  21
TORSDOF 7
ENDMDL
MODEL 7
REMARK VINA RESULT:      -8.1      4.378      8.425
REMARK  Name = 
REMARK  9 active torsions:
REMARK  status: ('A' for Active; 'I' for Inactive)
REMARK    1  A    between atoms: C_1  and  O_2
REMARK    2  A    between atoms: O_2  and  C_3
REMARK    3  A    between atoms: C_6  and  N_7
REMARK    4  A    between atoms: N_7  and  S_8
REMARK    5  A    between atoms: S_8  and  C_11
REMARK    6  A    between atoms: C_15  and  C_16
REMARK    7  A    between atoms: N_18  and  N_19
REMARK    8  A    between atoms: C_20  and  C_22
REMARK    9  A    between atoms: N_26  and  C_27
REMARK                            x       y       z     vdW  Elec       q    Type
REMARK                         _______ _______ _______ _____ _____    ______ ____
ROOT
ATOM      1  C   UNL     1       5.596   5.449  17.767  0.00  0.00    +0.000 A 
ATOM      2  C   UNL     1       5.028   4.228  18.132  0.00  0.00    +0.000 A 
ATOM      3  C   UNL     1       3.685   4.188  18.507  0.00  0.00    +0.000 A 
ATOM      4  C   UNL     1       2.925   5.364  18.518  0.00  0.00    +0.000 A 
ATOM      5  C   UNL     1       3.500   6.595  18.161  0.00  0.00    +0.000 A 
ATOM      6  C   UNL     1       4.849   6.632  17.798  0.00  0.00    +0.000 A 
ENDROOT
BRANCH   5   7
ATOM      7  C   UNL     1       2.626   7.810  18.166  0.00  0.00    +0.000 C 
ATOM      8  O   UNL     1       2.519   8.509  17.160  0.00  0.00    +0.000 OA
ATOM      9  N   UNL     1       1.975   8.115  19.345  0.00  0.00    +0.000 N 
ATOM     10  H   UNL     1       1.998   7.573  20.205  0.00  0.00    +0.000 HD
BRANCH   9  11
ATOM     11  N   UNL     1       1.179   9.260  19.389  0.00  0.00    +0.000 N 
ATOM     12  C   UNL     1       0.323   9.435  20.461  0.00  0.00    +0.000 C 
ATOM     13  O   UNL     1       0.247   8.586  21.348  0.00  0.00    +0.000 OA
ATOM     14  H   UNL     1       1.331   9.952  18.660  0.00  0.00    +0.000 HD
BRANCH  12  15
ATOM     15  C   UNL     1      -0.446  10.669  20.446  0.00  0.00    +0.000 A 
ATOM     16  C   UNL     1      -0.452  11.718  21.360  0.00  0.00    +0.000 A 
ATOM     17  C   UNL     1      -1.355  12.707  20.911  0.00  0.00    +0.000 A 
ATOM     18  C   UNL     1      -1.889  12.257  19.729  0.00  0.00    +0.000 A 
ATOM     19  N   UNL     1      -1.351  11.023  19.459  0.00  0.00    +0.000 N 
ATOM     20  C   UNL     1      -1.722  10.220  18.310  0.00  0.00    +0.000 C 
ENDBRANCH  12  15
ENDBRANCH   9  11
ENDBRANCH   5   7
BRANCH   1  21
ATOM     21  S   UNL     1       7.307   5.535  17.295  0.00  0.00    +0.000 S 
ATOM     22  O   UNL     1       7.808   4.178  17.225  0.00  0.00    +0.000 OA
ATOM     23  O   UNL     1       7.959   6.526  18.122  0.00  0.00    +0.000 OA
BRANCH  21  24
ATOM     24  N   UNL     1       7.227   6.089  15.706  0.00  0.00    +0.000 N 
ATOM     25  H   UNL     1       6.898   7.054  15.666  0.00  0.00    +0.000 HD
BRANCH  24  29
ATOM     26  C   UNL     1       5.951   3.539  12.600  0.00  0.00    +0.000 A 
ATOM     27  C   UNL     1       5.133   3.744  13.716  0.00  0.00    +0.000 A 
ATOM     28  C   UNL     1       5.546   4.582  14.755  0.00  0.00    +0.000 A 
ATOM     29  C   UNL     1       6.788   5.208  14.684  0.00  0.00    +0.000 A 
ATOM     30  C   UNL     1       7.621   4.984  13.589  0.00  0.00    +0.000 A 
ATOM     31  C   UNL     1       7.205   4.149  12.547  0.00  0.00    +0.000 A 
BRANCH  26  33
ATOM     32  C   UNL     1       4.132   3.025  11.177  0.00  0.00    +0.000 C 
ATOM     33  O   UNL     1       5.439   2.705  11.645  0.00  0.00    +0.000 OA
ENDBRANCH  26  33
ENDBRANCH  24  29
ENDBRANCH  21  24
ENDBRANCH   1  21
TORSDOF 7
ENDMDL
MODEL 8
REMARK VINA RESULT:      -8.1      3.583      7.181
REMARK  Name = 
REMARK  9 active torsions:
REMARK  status: ('A' for Active; 'I' for Inactive)
REMARK    1  A    between atoms: C_1  and  O_2
REMARK    2  A    between atoms: O_2  and  C_3
REMARK    3  A    between atoms: C_6  and  N_7
REMARK    4  A    between atoms: N_7  and  S_8
REMARK    5  A    between atoms: S_8  and  C_11
REMARK    6  A    between atoms: C_15  and  C_16
REMARK    7  A    between atoms: N_18  and  N_19
REMARK    8  A    between atoms: C_20  and  C_22
REMARK    9  A    between atoms: N_26  and  C_27
REMARK                            x       y       z     vdW  Elec       q    Type
REMARK                         _______ _______ _______ _____ _____    ______ ____
ROOT
ATOM      1  C   UNL     1       2.548   4.117  18.899  0.00  0.00    +0.000 A 
ATOM      2  C   UNL     1       2.400   3.862  20.264  0.00  0.00    +0.000 A 
ATOM      3  C   UNL     1       2.135   4.923  21.129  0.00  0.00    +0.000 A 
ATOM      4  C   UNL     1       2.024   6.225  20.628  0.00  0.00    +0.000 A 
ATOM      5  C   UNL     1       2.183   6.484  19.256  0.00  0.00    +0.000 A 
ATOM      6  C   UNL     1       2.461   5.420  18.395  0.00  0.00    +0.000 A 
ENDROOT
BRANCH   5   7
ATOM      7  C   UNL     1       2.024   7.894  18.780  0.00  0.00    +0.000 C 
ATOM      8  O   UNL     1       2.448   8.235  17.678  0.00  0.00    +0.000 OA
ATOM      9  N   UNL     1       1.406   8.784  19.637  0.00  0.00    +0.000 N 
ATOM     10  H   UNL     1       1.012   8.570  20.549  0.00  0.00    +0.000 HD
BRANCH   9  11
ATOM     11  N   UNL     1       1.273  10.113  19.233  0.00  0.00    +0.000 N 
ATOM     12  C   UNL     1       0.864  11.053  20.161  0.00  0.00    +0.000 C 
ATOM     13  O   UNL     1       0.602  10.721  21.316  0.00  0.00    +0.000 OA
ATOM     14  H   UNL     1       1.563  10.335  18.284  0.00  0.00    +0.000 HD
BRANCH  12  15
ATOM     15  C   UNL     1       0.783  12.418  19.666  0.00  0.00    +0.000 A 
ATOM     16  C   UNL     1       1.744  13.424  19.684  0.00  0.00    +0.000 A 
ATOM     17  C   UNL     1       1.205  14.579  19.075  0.00  0.00    +0.000 A 
ATOM     18  C   UNL     1      -0.076  14.269  18.690  0.00  0.00    +0.000 A 
ATOM     19  N   UNL     1      -0.333  12.973  19.060  0.00  0.00    +0.000 N 
ATOM     20  C   UNL     1      -1.610  12.318  18.857  0.00  0.00    +0.000 C 
ENDBRANCH  12  15
ENDBRANCH   9  11
ENDBRANCH   5   7
BRANCH   1  21
ATOM     21  S   UNL     1       2.897   2.788  17.773  0.00  0.00    +0.000 S 
ATOM     22  O   UNL     1       2.363   3.162  16.480  0.00  0.00    +0.000 OA
ATOM     23  O   UNL     1       2.517   1.544  18.404  0.00  0.00    +0.000 OA
BRANCH  21  24
ATOM     24  N   UNL     1       4.574   2.857  17.626  0.00  0.00    +0.000 N 
ATOM     25  H   UNL     1       5.030   2.190  18.249  0.00  0.00    +0.000 HD
BRANCH  24  29
ATOM     26  C   UNL     1       6.482   6.565  17.003  0.00  0.00    +0.000 A 
ATOM     27  C   UNL     1       6.588   5.925  18.241  0.00  0.00    +0.000 A 
ATOM     28  C   UNL     1       5.956   4.698  18.464  0.00  0.00    +0.000 A 
ATOM     29  C   UNL     1       5.205   4.116  17.446  0.00  0.00    +0.000 A 
ATOM     30  C   UNL     1       5.070   4.763  16.220  0.00  0.00    +0.000 A 
ATOM     31  C   UNL     1       5.707   5.989  15.996  0.00  0.00    +0.000 A 
BRANCH  26  33
ATOM     32  C   UNL     1       8.033   8.066  17.973  0.00  0.00    +0.000 C 
ATOM     33  O   UNL     1       7.148   7.756  16.901  0.00  0.00    +0.000 OA
ENDBRANCH  26  33
ENDBRANCH  24  29
ENDBRANCH  21  24
ENDBRANCH   1  21
TORSDOF 7
ENDMDL
MODEL 9
REMARK VINA RESULT:      -8.0      2.858      4.054
REMARK  Name = 
REMARK  9 active torsions:
REMARK  status: ('A' for Active; 'I' for Inactive)
REMARK    1  A    between atoms: C_1  and  O_2
REMARK    2  A    between atoms: O_2  and  C_3
REMARK    3  A    between atoms: C_6  and  N_7
REMARK    4  A    between atoms: N_7  and  S_8
REMARK    5  A    between atoms: S_8  and  C_11
REMARK    6  A    between atoms: C_15  and  C_16
REMARK    7  A    between atoms: N_18  and  N_19
REMARK    8  A    between atoms: C_20  and  C_22
REMARK    9  A    between atoms: N_26  and  C_27
REMARK                            x       y       z     vdW  Elec       q    Type
REMARK                         _______ _______ _______ _____ _____    ______ ____
ROOT
ATOM      1  C   UNL     1       7.091   5.705  17.041  0.00  0.00    +0.000 A 
ATOM      2  C   UNL     1       7.385   4.901  18.143  0.00  0.00    +0.000 A 
ATOM      3  C   UNL     1       7.992   5.475  19.261  0.00  0.00    +0.000 A 
ATOM      4  C   UNL     1       8.301   6.840  19.267  0.00  0.00    +0.000 A 
ATOM      5  C   UNL     1       8.014   7.648  18.154  0.00  0.00    +0.000 A 
ATOM      6  C   UNL     1       7.418   7.066  17.031  0.00  0.00    +0.000 A 
ENDROOT
BRANCH   5   7
ATOM      7  C   UNL     1       8.344   9.105  18.234  0.00  0.00    +0.000 C 
ATOM      8  O   UNL     1       7.824   9.909  17.462  0.00  0.00    +0.000 OA
ATOM      9  N   UNL     1       9.262   9.493  19.190  0.00  0.00    +0.000 N 
ATOM     10  H   UNL     1       9.713   8.891  19.874  0.00  0.00    +0.000 HD
BRANCH   9  11
ATOM     11  N   UNL     1       9.613  10.841  19.268  0.00  0.00    +0.000 N 
ATOM     12  C   UNL     1       9.511  11.487  20.486  0.00  0.00    +0.000 C 
ATOM     13  O   UNL     1       9.097  10.891  21.479  0.00  0.00    +0.000 OA
ATOM     14  H   UNL     1      10.006  11.261  18.429  0.00  0.00    +0.000 HD
BRANCH  12  15
ATOM     15  C   UNL     1       9.928  12.881  20.486  0.00  0.00    +0.000 A 
ATOM     16  C   UNL     1      11.168  13.432  20.180  0.00  0.00    +0.000 A 
ATOM     17  C   UNL     1      11.086  14.836  20.311  0.00  0.00    +0.000 A 
ATOM     18  C   UNL     1       9.799  15.130  20.691  0.00  0.00    +0.000 A 
ATOM     19  N   UNL     1       9.109  13.949  20.810  0.00  0.00    +0.000 N 
ATOM     20  C   UNL     1       7.728  13.868  21.244  0.00  0.00    +0.000 C 
ENDBRANCH  12  15
ENDBRANCH   9  11
ENDBRANCH   5   7
BRANCH   1  21
ATOM     21  S   UNL     1       6.328   5.002  15.598  0.00  0.00    +0.000 S 
ATOM     22  O   UNL     1       6.331   3.563  15.762  0.00  0.00    +0.000 OA
ATOM     23  O   UNL     1       6.912   5.619  14.428  0.00  0.00    +0.000 OA
BRANCH  21  24
ATOM     24  N   UNL     1       4.722   5.489  15.752  0.00  0.00    +0.000 N 
ATOM     25  H   UNL     1       4.537   6.333  15.210  0.00  0.00    +0.000 HD
BRANCH  24  29
ATOM     26  C   UNL     1       2.734   5.076  19.447  0.00  0.00    +0.000 A 
ATOM     27  C   UNL     1       3.205   6.329  19.044  0.00  0.00    +0.000 A 
ATOM     28  C   UNL     1       3.870   6.481  17.824  0.00  0.00    +0.000 A 
ATOM     29  C   UNL     1       4.077   5.370  17.011  0.00  0.00    +0.000 A 
ATOM     30  C   UNL     1       3.638   4.112  17.420  0.00  0.00    +0.000 A 
ATOM     31  C   UNL     1       2.967   3.963  18.639  0.00  0.00    +0.000 A 
BRANCH  26  33
ATOM     32  C   UNL     1       2.153   3.819  21.366  0.00  0.00    +0.000 C 
ATOM     33  O   UNL     1       2.093   5.052  20.655  0.00  0.00    +0.000 OA
ENDBRANCH  26  33
ENDBRANCH  24  29
ENDBRANCH  21  24
ENDBRANCH   1  21
TORSDOF 7
ENDMDL
