MODEL 1
REMARK VINA RESULT:      -7.0      0.000      0.000
REMARK  Name = 
REMARK  5 active torsions:
REMARK  status: ('A' for Active; 'I' for Inactive)
REMARK    1  A    between atoms: C_2  and  C_3
REMARK    2  A    between atoms: C_3  and  C_4
REMARK    3  A    between atoms: C_4  and  N_5
REMARK    4  A    between atoms: N_5  and  C_15
REMARK    5  A    between atoms: N_8  and  C_9
REMARK                            x       y       z     vdW  Elec       q    Type
REMARK                         _______ _______ _______ _____ _____    ______ ____
ROOT
ATOM      1  N   UNL     1       4.102   5.590  17.429  0.00  0.00    +0.000 N 
ATOM      2  C   UNL     1       4.882   5.647  16.261  0.00  0.00    +0.000 C 
ATOM      3  O   UNL     1       5.258   6.700  15.753  0.00  0.00    +0.000 OA
ATOM      4  N   UNL     1       5.101   4.446  15.636  0.00  0.00    +0.000 N 
ATOM      5  H   UNL     1       4.279   3.865  15.634  0.00  0.00    +0.000 HD
ENDROOT
BRANCH   4   6
ATOM      6  C   UNL     1       5.882   4.357  14.465  0.00  0.00    +0.000 A 
ATOM      7  C   UNL     1       7.101   5.031  14.339  0.00  0.00    +0.000 A 
ATOM      8  C   UNL     1       7.793   5.007  13.129  0.00  0.00    +0.000 A 
ATOM      9  C   UNL     1       7.268   4.301  12.050  0.00  0.00    +0.000 A 
ATOM     10  C   UNL     1       6.071   3.594  12.185  0.00  0.00    +0.000 A 
ATOM     11  C   UNL     1       5.390   3.601  13.401  0.00  0.00    +0.000 A 
ENDBRANCH   4   6
BRANCH   1  12
ATOM     12  C   UNL     1       4.239   4.475  18.445  0.00  0.00    +0.000 C 
ATOM     13  C   UNL     1       3.346   4.653  19.705  0.00  0.00    +0.000 C 
ATOM     14  C   UNL     1       1.861   4.439  19.399  0.00  0.00    +0.000 C 
ATOM     15  C   UNL     1       1.594   3.073  18.773  0.00  0.00    +0.000 C 
ATOM     16  C   UNL     1       2.523   2.800  17.592  0.00  0.00    +0.000 C 
ATOM     17  C   UNL     1       3.979   3.019  17.981  0.00  0.00    +0.000 C 
ENDBRANCH   1  12
BRANCH   1  18
ATOM     18  C   UNL     1       3.637   6.895  17.982  0.00  0.00    +0.000 C 
BRANCH  18  19
ATOM     19  C   UNL     1       2.209   7.410  17.722  0.00  0.00    +0.000 C 
BRANCH  19  21
ATOM     20  N   UNL     1       2.149  10.035  17.772  0.00  0.00    +0.000 NA
ATOM     21  C   UNL     1       2.181   8.876  17.757  0.00  0.00    +0.000 C 
ENDBRANCH  19  21
ENDBRANCH  18  19
ENDBRANCH   1  18
TORSDOF 5
ENDMDL
MODEL 2
REMARK VINA RESULT:      -6.9      2.032      5.950
REMARK  Name = 
REMARK  5 active torsions:
REMARK  status: ('A' for Active; 'I' for Inactive)
REMARK    1  A    between atoms: C_2  and  C_3
REMARK    2  A    between atoms: C_3  and  C_4
REMARK    3  A    between atoms: C_4  and  N_5
REMARK    4  A    between atoms: N_5  and  C_15
REMARK    5  A    between atoms: N_8  and  C_9
REMARK                            x       y       z     vdW  Elec       q    Type
REMARK                         _______ _______ _______ _____ _____    ______ ____
ROOT
ATOM      1  N   UNL     1       3.908   4.664  17.770  0.00  0.00    +0.000 N 
ATOM      2  C   UNL     1       3.652   6.030  17.981  0.00  0.00    +0.000 C 
ATOM      3  O   UNL     1       4.471   6.913  17.743  0.00  0.00    +0.000 OA
ATOM      4  N   UNL     1       2.462   6.321  18.598  0.00  0.00    +0.000 N 
ATOM      5  H   UNL     1       2.252   5.675  19.340  0.00  0.00    +0.000 HD
ENDROOT
BRANCH   4   6
ATOM      6  C   UNL     1       2.072   7.652  18.853  0.00  0.00    +0.000 A 
ATOM      7  C   UNL     1       1.682   8.076  20.127  0.00  0.00    +0.000 A 
ATOM      8  C   UNL     1       1.202   9.370  20.320  0.00  0.00    +0.000 A 
ATOM      9  C   UNL     1       1.120  10.242  19.236  0.00  0.00    +0.000 A 
ATOM     10  C   UNL     1       1.546   9.835  17.970  0.00  0.00    +0.000 A 
ATOM     11  C   UNL     1       2.046   8.547  17.782  0.00  0.00    +0.000 A 
ENDBRANCH   4   6
BRANCH   1  12
ATOM     12  C   UNL     1       2.829   3.693  17.337  0.00  0.00    +0.000 C 
ATOM     13  C   UNL     1       3.183   2.200  17.588  0.00  0.00    +0.000 C 
ATOM     14  C   UNL     1       3.165   1.841  19.077  0.00  0.00    +0.000 C 
ATOM     15  C   UNL     1       1.824   2.164  19.730  0.00  0.00    +0.000 C 
ATOM     16  C   UNL     1       1.374   3.591  19.423  0.00  0.00    +0.000 C 
ATOM     17  C   UNL     1       1.405   3.863  17.925  0.00  0.00    +0.000 C 
ENDBRANCH   1  12
BRANCH   1  18
ATOM     18  C   UNL     1       5.290   4.305  17.340  0.00  0.00    +0.000 C 
BRANCH  18  19
ATOM     19  C   UNL     1       5.612   3.986  15.869  0.00  0.00    +0.000 C 
BRANCH  19  21
ATOM     20  N   UNL     1       7.625   5.454  15.040  0.00  0.00    +0.000 NA
ATOM     21  C   UNL     1       6.731   4.810  15.400  0.00  0.00    +0.000 C 
ENDBRANCH  19  21
ENDBRANCH  18  19
ENDBRANCH   1  18
TORSDOF 5
ENDMDL
MODEL 3
REMARK VINA RESULT:      -6.9      2.294      6.608
REMARK  Name = 
REMARK  5 active torsions:
REMARK  status: ('A' for Active; 'I' for Inactive)
REMARK    1  A    between atoms: C_2  and  C_3
REMARK    2  A    between atoms: C_3  and  C_4
REMARK    3  A    between atoms: C_4  and  N_5
REMARK    4  A    between atoms: N_5  and  C_15
REMARK    5  A    between atoms: N_8  and  C_9
REMARK                            x       y       z     vdW  Elec       q    Type
REMARK                         _______ _______ _______ _____ _____    ______ ____
ROOT
ATOM      1  N   UNL     1       4.081   5.049  18.325  0.00  0.00    +0.000 N 
ATOM      2  C   UNL     1       3.100   5.893  18.872  0.00  0.00    +0.000 C 
ATOM      3  O   UNL     1       2.245   5.508  19.665  0.00  0.00    +0.000 OA
ATOM      4  N   UNL     1       3.067   7.168  18.366  0.00  0.00    +0.000 N 
ATOM      5  H   UNL     1       3.211   7.185  17.370  0.00  0.00    +0.000 HD
ENDROOT
BRANCH   4   6
ATOM      6  C   UNL     1       2.145   8.124  18.839  0.00  0.00    +0.000 A 
ATOM      7  C   UNL     1       1.768   8.183  20.185  0.00  0.00    +0.000 A 
ATOM      8  C   UNL     1       0.774   9.069  20.597  0.00  0.00    +0.000 A 
ATOM      9  C   UNL     1       0.165   9.903  19.661  0.00  0.00    +0.000 A 
ATOM     10  C   UNL     1       0.567   9.875  18.324  0.00  0.00    +0.000 A 
ATOM     11  C   UNL     1       1.575   9.002  17.916  0.00  0.00    +0.000 A 
ENDBRANCH   4   6
BRANCH   1  12
ATOM     12  C   UNL     1       5.479   5.531  18.000  0.00  0.00    +0.000 C 
ATOM     13  C   UNL     1       6.414   4.426  17.430  0.00  0.00    +0.000 C 
ATOM     14  C   UNL     1       6.027   4.016  16.006  0.00  0.00    +0.000 C 
ATOM     15  C   UNL     1       6.003   5.206  15.052  0.00  0.00    +0.000 C 
ATOM     16  C   UNL     1       5.184   6.367  15.614  0.00  0.00    +0.000 C 
ATOM     17  C   UNL     1       5.639   6.723  17.023  0.00  0.00    +0.000 C 
ENDBRANCH   1  12
BRANCH   1  18
ATOM     18  C   UNL     1       3.975   3.600  18.665  0.00  0.00    +0.000 C 
BRANCH  18  19
ATOM     19  C   UNL     1       3.231   2.615  17.743  0.00  0.00    +0.000 C 
BRANCH  19  21
ATOM     20  N   UNL     1       0.743   2.311  18.525  0.00  0.00    +0.000 NA
ATOM     21  C   UNL     1       1.842   2.451  18.186  0.00  0.00    +0.000 C 
ENDBRANCH  19  21
ENDBRANCH  18  19
ENDBRANCH   1  18
TORSDOF 5
ENDMDL
MODEL 4
REMARK VINA RESULT:      -6.9      0.144      1.090
REMARK  Name = 
REMARK  5 active torsions:
REMARK  status: ('A' for Active; 'I' for Inactive)
REMARK    1  A    between atoms: C_2  and  C_3
REMARK    2  A    between atoms: C_3  and  C_4
REMARK    3  A    between atoms: C_4  and  N_5
REMARK    4  A    between atoms: N_5  and  C_15
REMARK    5  A    between atoms: N_8  and  C_9
REMARK                            x       y       z     vdW  Elec       q    Type
REMARK                         _______ _______ _______ _____ _____    ______ ____
ROOT
ATOM      1  N   UNL     1       4.051   5.515  17.474  0.00  0.00    +0.000 N 
ATOM      2  C   UNL     1       4.777   5.607  16.275  0.00  0.00    +0.000 C 
ATOM      3  O   UNL     1       5.129   6.674  15.780  0.00  0.00    +0.000 OA
ATOM      4  N   UNL     1       4.966   4.424  15.606  0.00  0.00    +0.000 N 
ATOM      5  H   UNL     1       4.144   3.842  15.624  0.00  0.00    +0.000 HD
ENDROOT
BRANCH   4   6
ATOM      6  C   UNL     1       5.693   4.370  14.398  0.00  0.00    +0.000 A 
ATOM      7  C   UNL     1       5.220   3.673  13.282  0.00  0.00    +0.000 A 
ATOM      8  C   UNL     1       6.014   3.551  12.143  0.00  0.00    +0.000 A 
ATOM      9  C   UNL     1       7.278   4.136  12.120  0.00  0.00    +0.000 A 
ATOM     10  C   UNL     1       7.737   4.867  13.218  0.00  0.00    +0.000 A 
ATOM     11  C   UNL     1       6.935   5.005  14.349  0.00  0.00    +0.000 A 
ENDBRANCH   4   6
BRANCH   1  12
ATOM     12  C   UNL     1       4.234   4.371  18.451  0.00  0.00    +0.000 C 
ATOM     13  C   UNL     1       3.391   4.506  19.750  0.00  0.00    +0.000 C 
ATOM     14  C   UNL     1       1.895   4.291  19.496  0.00  0.00    +0.000 C 
ATOM     15  C   UNL     1       1.611   2.943  18.841  0.00  0.00    +0.000 C 
ATOM     16  C   UNL     1       2.494   2.711  17.616  0.00  0.00    +0.000 C 
ATOM     17  C   UNL     1       3.963   2.928  17.954  0.00  0.00    +0.000 C 
ENDBRANCH   1  12
BRANCH   1  18
ATOM     18  C   UNL     1       3.612   6.803  18.086  0.00  0.00    +0.000 C 
BRANCH  18  19
ATOM     19  C   UNL     1       2.191   7.351  17.862  0.00  0.00    +0.000 C 
BRANCH  19  21
ATOM     20  N   UNL     1       2.217   9.973  17.729  0.00  0.00    +0.000 NA
ATOM     21  C   UNL     1       2.213   8.816  17.785  0.00  0.00    +0.000 C 
ENDBRANCH  19  21
ENDBRANCH  18  19
ENDBRANCH   1  18
TORSDOF 5
ENDMDL
MODEL 5
REMARK VINA RESULT:      -6.8      2.298      6.637
REMARK  Name = 
REMARK  5 active torsions:
REMARK  status: ('A' for Active; 'I' for Inactive)
REMARK    1  A    between atoms: C_2  and  C_3
REMARK    2  A    between atoms: C_3  and  C_4
REMARK    3  A    between atoms: C_4  and  N_5
REMARK    4  A    between atoms: N_5  and  C_15
REMARK    5  A    between atoms: N_8  and  C_9
REMARK                            x       y       z     vdW  Elec       q    Type
REMARK                         _______ _______ _______ _____ _____    ______ ____
ROOT
ATOM      1  N   UNL     1       4.081   5.031  18.322  0.00  0.00    +0.000 N 
ATOM      2  C   UNL     1       3.070   5.855  18.846  0.00  0.00    +0.000 C 
ATOM      3  O   UNL     1       2.207   5.453  19.620  0.00  0.00    +0.000 OA
ATOM      4  N   UNL     1       3.023   7.129  18.338  0.00  0.00    +0.000 N 
ATOM      5  H   UNL     1       3.189   7.147  17.345  0.00  0.00    +0.000 HD
ENDROOT
BRANCH   4   6
ATOM      6  C   UNL     1       2.070   8.066  18.789  0.00  0.00    +0.000 A 
ATOM      7  C   UNL     1       1.443   8.960  17.916  0.00  0.00    +0.000 A 
ATOM      8  C   UNL     1       0.588   9.942  18.412  0.00  0.00    +0.000 A 
ATOM      9  C   UNL     1       0.354  10.022  19.784  0.00  0.00    +0.000 A 
ATOM     10  C   UNL     1       0.947   9.105  20.654  0.00  0.00    +0.000 A 
ATOM     11  C   UNL     1       1.787   8.110  20.155  0.00  0.00    +0.000 A 
ENDBRANCH   4   6
BRANCH   1  12
ATOM     12  C   UNL     1       5.476   5.542  18.028  0.00  0.00    +0.000 C 
ATOM     13  C   UNL     1       6.447   4.457  17.484  0.00  0.00    +0.000 C 
ATOM     14  C   UNL     1       6.102   4.034  16.053  0.00  0.00    +0.000 C 
ATOM     15  C   UNL     1       6.074   5.220  15.094  0.00  0.00    +0.000 C 
ATOM     16  C   UNL     1       5.218   6.365  15.633  0.00  0.00    +0.000 C 
ATOM     17  C   UNL     1       5.633   6.735  17.051  0.00  0.00    +0.000 C 
ENDBRANCH   1  12
BRANCH   1  18
ATOM     18  C   UNL     1       3.998   3.581  18.662  0.00  0.00    +0.000 C 
BRANCH  18  19
ATOM     19  C   UNL     1       3.260   2.587  17.746  0.00  0.00    +0.000 C 
BRANCH  19  21
ATOM     20  N   UNL     1       0.768   2.314  18.527  0.00  0.00    +0.000 NA
ATOM     21  C   UNL     1       1.869   2.426  18.183  0.00  0.00    +0.000 C 
ENDBRANCH  19  21
ENDBRANCH  18  19
ENDBRANCH   1  18
TORSDOF 5
ENDMDL
MODEL 6
REMARK VINA RESULT:      -6.7      2.261      3.045
REMARK  Name = 
REMARK  5 active torsions:
REMARK  status: ('A' for Active; 'I' for Inactive)
REMARK    1  A    between atoms: C_2  and  C_3
REMARK    2  A    between atoms: C_3  and  C_4
REMARK    3  A    between atoms: C_4  and  N_5
REMARK    4  A    between atoms: N_5  and  C_15
REMARK    5  A    between atoms: N_8  and  C_9
REMARK                            x       y       z     vdW  Elec       q    Type
REMARK                         _______ _______ _______ _____ _____    ______ ____
ROOT
ATOM      1  N   UNL     1       6.075   5.422  17.641  0.00  0.00    +0.000 N 
ATOM      2  C   UNL     1       6.598   4.871  16.459  0.00  0.00    +0.000 C 
ATOM      3  O   UNL     1       7.671   4.275  16.410  0.00  0.00    +0.000 OA
ATOM      4  N   UNL     1       5.893   5.147  15.315  0.00  0.00    +0.000 N 
ATOM      5  H   UNL     1       5.562   6.097  15.293  0.00  0.00    +0.000 HD
ENDROOT
BRANCH   4   6
ATOM      6  C   UNL     1       6.297   4.640  14.062  0.00  0.00    +0.000 A 
ATOM      7  C   UNL     1       7.380   5.180  13.362  0.00  0.00    +0.000 A 
ATOM      8  C   UNL     1       7.684   4.725  12.079  0.00  0.00    +0.000 A 
ATOM      9  C   UNL     1       6.906   3.723  11.503  0.00  0.00    +0.000 A 
ATOM     10  C   UNL     1       5.848   3.154  12.215  0.00  0.00    +0.000 A 
ATOM     11  C   UNL     1       5.558   3.595  13.505  0.00  0.00    +0.000 A 
ENDBRANCH   4   6
BRANCH   1  12
ATOM     12  C   UNL     1       4.588   5.471  17.927  0.00  0.00    +0.000 C 
ATOM     13  C   UNL     1       3.744   4.495  17.060  0.00  0.00    +0.000 C 
ATOM     14  C   UNL     1       3.958   3.031  17.459  0.00  0.00    +0.000 C 
ATOM     15  C   UNL     1       3.662   2.789  18.936  0.00  0.00    +0.000 C 
ATOM     16  C   UNL     1       4.385   3.794  19.831  0.00  0.00    +0.000 C 
ATOM     17  C   UNL     1       4.109   5.222  19.380  0.00  0.00    +0.000 C 
ENDBRANCH   1  12
BRANCH   1  18
ATOM     18  C   UNL     1       6.949   5.356  18.849  0.00  0.00    +0.000 C 
BRANCH  18  19
ATOM     19  C   UNL     1       8.058   6.396  19.090  0.00  0.00    +0.000 C 
BRANCH  19  21
ATOM     20  N   UNL     1       7.831   8.378  17.382  0.00  0.00    +0.000 NA
ATOM     21  C   UNL     1       7.929   7.509  18.142  0.00  0.00    +0.000 C 
ENDBRANCH  19  21
ENDBRANCH  18  19
ENDBRANCH   1  18
TORSDOF 5
ENDMDL
MODEL 7
REMARK VINA RESULT:      -6.7      2.011      5.956
REMARK  Name = 
REMARK  5 active torsions:
REMARK  status: ('A' for Active; 'I' for Inactive)
REMARK    1  A    between atoms: C_2  and  C_3
REMARK    2  A    between atoms: C_3  and  C_4
REMARK    3  A    between atoms: C_4  and  N_5
REMARK    4  A    between atoms: N_5  and  C_15
REMARK    5  A    between atoms: N_8  and  C_9
REMARK                            x       y       z     vdW  Elec       q    Type
REMARK                         _______ _______ _______ _____ _____    ______ ____
ROOT
ATOM      1  N   UNL     1       3.887   4.750  17.778  0.00  0.00    +0.000 N 
ATOM      2  C   UNL     1       3.600   6.118  17.927  0.00  0.00    +0.000 C 
ATOM      3  O   UNL     1       4.395   7.008  17.642  0.00  0.00    +0.000 OA
ATOM      4  N   UNL     1       2.406   6.409  18.538  0.00  0.00    +0.000 N 
ATOM      5  H   UNL     1       2.216   5.793  19.311  0.00  0.00    +0.000 HD
ENDROOT
BRANCH   4   6
ATOM      6  C   UNL     1       1.986   7.741  18.733  0.00  0.00    +0.000 A 
ATOM      7  C   UNL     1       2.018   8.684  17.702  0.00  0.00    +0.000 A 
ATOM      8  C   UNL     1       1.697  10.016  17.959  0.00  0.00    +0.000 A 
ATOM      9  C   UNL     1       1.336  10.400  19.248  0.00  0.00    +0.000 A 
ATOM     10  C   UNL     1       1.264   9.453  20.272  0.00  0.00    +0.000 A 
ATOM     11  C   UNL     1       1.565   8.117  20.010  0.00  0.00    +0.000 A 
ENDBRANCH   4   6
BRANCH   1  12
ATOM     12  C   UNL     1       2.829   3.734  17.398  0.00  0.00    +0.000 C 
ATOM     13  C   UNL     1       3.230   2.262  17.697  0.00  0.00    +0.000 C 
ATOM     14  C   UNL     1       3.245   1.958  19.198  0.00  0.00    +0.000 C 
ATOM     15  C   UNL     1       1.906   2.267  19.861  0.00  0.00    +0.000 C 
ATOM     16  C   UNL     1       1.410   3.669  19.511  0.00  0.00    +0.000 C 
ATOM     17  C   UNL     1       1.410   3.886  18.003  0.00  0.00    +0.000 C 
ENDBRANCH   1  12
BRANCH   1  18
ATOM     18  C   UNL     1       5.275   4.405  17.355  0.00  0.00    +0.000 C 
BRANCH  18  19
ATOM     19  C   UNL     1       5.597   4.034  15.896  0.00  0.00    +0.000 C 
BRANCH  19  21
ATOM     20  N   UNL     1       7.638   5.436  15.020  0.00  0.00    +0.000 NA
ATOM     21  C   UNL     1       6.732   4.824  15.406  0.00  0.00    +0.000 C 
ENDBRANCH  19  21
ENDBRANCH  18  19
ENDBRANCH   1  18
TORSDOF 5
ENDMDL
MODEL 8
REMARK VINA RESULT:      -6.7      3.259      6.719
REMARK  Name = 
REMARK  5 active torsions:
REMARK  status: ('A' for Active; 'I' for Inactive)
REMARK    1  A    between atoms: C_2  and  C_3
REMARK    2  A    between atoms: C_3  and  C_4
REMARK    3  A    between atoms: C_4  and  N_5
REMARK    4  A    between atoms: N_5  and  C_15
REMARK    5  A    between atoms: N_8  and  C_9
REMARK                            x       y       z     vdW  Elec       q    Type
REMARK                         _______ _______ _______ _____ _____    ______ ____
ROOT
ATOM      1  N   UNL     1       3.262   5.328  19.288  0.00  0.00    +0.000 N 
ATOM      2  C   UNL     1       2.540   6.530  19.197  0.00  0.00    +0.000 C 
ATOM      3  O   UNL     1       2.332   7.112  18.136  0.00  0.00    +0.000 OA
ATOM      4  N   UNL     1       2.181   7.097  20.393  0.00  0.00    +0.000 N 
ATOM      5  H   UNL     1       2.914   7.031  21.079  0.00  0.00    +0.000 HD
ENDROOT
BRANCH   4   6
ATOM      6  C   UNL     1       1.438   8.295  20.445  0.00  0.00    +0.000 A 
ATOM      7  C   UNL     1       1.362   9.165  19.353  0.00  0.00    +0.000 A 
ATOM      8  C   UNL     1       0.708  10.390  19.476  0.00  0.00    +0.000 A 
ATOM      9  C   UNL     1       0.122  10.738  20.691  0.00  0.00    +0.000 A 
ATOM     10  C   UNL     1       0.161   9.854  21.772  0.00  0.00    +0.000 A 
ATOM     11  C   UNL     1       0.798   8.621  21.642  0.00  0.00    +0.000 A 
ENDBRANCH   4   6
BRANCH   1  12
ATOM     12  C   UNL     1       2.934   4.259  20.310  0.00  0.00    +0.000 C 
ATOM     13  C   UNL     1       1.413   3.982  20.472  0.00  0.00    +0.000 C 
ATOM     14  C   UNL     1       0.822   3.261  19.257  0.00  0.00    +0.000 C 
ATOM     15  C   UNL     1       1.548   1.954  18.955  0.00  0.00    +0.000 C 
ATOM     16  C   UNL     1       3.062   2.149  18.892  0.00  0.00    +0.000 C 
ATOM     17  C   UNL     1       3.573   2.857  20.140  0.00  0.00    +0.000 C 
ENDBRANCH   1  12
BRANCH   1  18
ATOM     18  C   UNL     1       3.882   4.827  18.027  0.00  0.00    +0.000 C 
BRANCH  18  19
ATOM     19  C   UNL     1       5.322   5.210  17.639  0.00  0.00    +0.000 C 
BRANCH  19  21
ATOM     20  N   UNL     1       6.857   5.329  19.766  0.00  0.00    +0.000 NA
ATOM     21  C   UNL     1       6.173   5.276  18.832  0.00  0.00    +0.000 C 
ENDBRANCH  19  21
ENDBRANCH  18  19
ENDBRANCH   1  18
TORSDOF 5
ENDMDL
MODEL 9
REMARK VINA RESULT:      -6.7      3.045      6.111
REMARK  Name = 
REMARK  5 active torsions:
REMARK  status: ('A' for Active; 'I' for Inactive)
REMARK    1  A    between atoms: C_2  and  C_3
REMARK    2  A    between atoms: C_3  and  C_4
REMARK    3  A    between atoms: C_4  and  N_5
REMARK    4  A    between atoms: N_5  and  C_15
REMARK    5  A    between atoms: N_8  and  C_9
REMARK                            x       y       z     vdW  Elec       q    Type
REMARK                         _______ _______ _______ _____ _____    ______ ____
ROOT
ATOM      1  N   UNL     1       4.101   5.070  19.234  0.00  0.00    +0.000 N 
ATOM      2  C   UNL     1       3.472   6.282  18.902  0.00  0.00    +0.000 C 
ATOM      3  O   UNL     1       3.748   6.931  17.897  0.00  0.00    +0.000 OA
ATOM      4  N   UNL     1       2.606   6.777  19.844  0.00  0.00    +0.000 N 
ATOM      5  H   UNL     1       2.957   6.661  20.780  0.00  0.00    +0.000 HD
ENDROOT
BRANCH   4   6
ATOM      6  C   UNL     1       1.894   7.975  19.631  0.00  0.00    +0.000 A 
ATOM      7  C   UNL     1       1.862   8.603  18.381  0.00  0.00    +0.000 A 
ATOM      8  C   UNL     1       1.238   9.841  18.234  0.00  0.00    +0.000 A 
ATOM      9  C   UNL     1       0.639  10.445  19.336  0.00  0.00    +0.000 A 
ATOM     10  C   UNL     1       0.634   9.802  20.577  0.00  0.00    +0.000 A 
ATOM     11  C   UNL     1       1.240   8.555  20.719  0.00  0.00    +0.000 A 
ENDBRANCH   4   6
BRANCH   1  12
ATOM     12  C   UNL     1       3.373   3.942  19.937  0.00  0.00    +0.000 C 
ATOM     13  C   UNL     1       1.846   3.897  19.648  0.00  0.00    +0.000 C 
ATOM     14  C   UNL     1       1.540   3.448  18.216  0.00  0.00    +0.000 C 
ATOM     15  C   UNL     1       2.161   2.092  17.893  0.00  0.00    +0.000 C 
ATOM     16  C   UNL     1       3.643   2.046  18.261  0.00  0.00    +0.000 C 
ATOM     17  C   UNL     1       3.861   2.490  19.701  0.00  0.00    +0.000 C 
ENDBRANCH   1  12
BRANCH   1  18
ATOM     18  C   UNL     1       5.228   4.643  18.355  0.00  0.00    +0.000 C 
BRANCH  18  19
ATOM     19  C   UNL     1       6.664   5.143  18.599  0.00  0.00    +0.000 C 
BRANCH  19  21
ATOM     20  N   UNL     1       7.480   6.587  16.563  0.00  0.00    +0.000 NA
ATOM     21  C   UNL     1       7.127   5.944  17.461  0.00  0.00    +0.000 C 
ENDBRANCH  19  21
ENDBRANCH  18  19
ENDBRANCH   1  18
TORSDOF 5
ENDMDL
