MODEL 1
REMARK VINA RESULT:      -9.2      0.000      0.000
REMARK  Name = 
REMARK  7 active torsions:
REMARK  status: ('A' for Active; 'I' for Inactive)
REMARK    1  A    between atoms: C_1  and  C_2
REMARK    2  A    between atoms: C_4  and  C_5
REMARK    3  A    between atoms: N_7  and  C_8
REMARK    4  A    between atoms: C_11  and  C_12
REMARK    5  A    between atoms: N_21  and  C_22
REMARK    6  A    between atoms: C_31  and  C_32
REMARK    7  A    between atoms: C_32  and  O_34
REMARK                            x       y       z     vdW  Elec       q    Type
REMARK                         _______ _______ _______ _____ _____    ______ ____
ROOT
ATOM      1  C   UNL     1      -2.949  12.274  23.761  0.00  0.00    +0.000 C 
ATOM      2  C   UNL     1      -1.820  11.805  22.924  0.00  0.00    +0.000 A 
ATOM      3  C   UNL     1      -1.030  10.655  23.084  0.00  0.00    +0.000 A 
ATOM      4  C   UNL     1      -0.111  10.693  22.051  0.00  0.00    +0.000 A 
ATOM      5  N   UNL     1      -0.375  11.872  21.341  0.00  0.00    +0.000 N 
ATOM      6  N   UNL     1      -1.441  12.522  21.865  0.00  0.00    +0.000 NA
ENDROOT
BRANCH   5   7
ATOM      7  C   UNL     1       0.457  12.572  20.420  0.00  0.00    +0.000 A 
ATOM      8  C   UNL     1       1.422  13.402  21.000  0.00  0.00    +0.000 A 
ATOM      9  C   UNL     1       2.244  14.222  20.240  0.00  0.00    +0.000 A 
ATOM     10  C   UNL     1       2.951  15.215  20.899  0.00  0.00    +0.000 A 
ATOM     11  C   UNL     1       3.627  16.142  20.135  0.00  0.00    +0.000 A 
ATOM     12  C   UNL     1       4.085  15.746  18.894  0.00  0.00    +0.000 A 
ATOM     13  C   UNL     1       3.332  14.807  18.191  0.00  0.00    +0.000 A 
ATOM     14  C   UNL     1       2.284  14.110  18.846  0.00  0.00    +0.000 A 
ATOM     15  C   UNL     1       1.276  13.314  18.245  0.00  0.00    +0.000 A 
ATOM     16  C   UNL     1       0.309  12.595  19.017  0.00  0.00    +0.000 A 
BRANCH  16  17
ATOM     17  C   UNL     1      -0.718  11.883  18.187  0.00  0.00    +0.000 C 
ATOM     18  O   UNL     1      -0.882  10.676  18.286  0.00  0.00    +0.000 OA
BRANCH  17  19
ATOM     19  O   UNL     1      -1.342  12.583  17.224  0.00  0.00    +0.000 OA
ATOM     20  H   UNL     1      -1.237  12.218  16.312  0.00  0.00    +0.000 HD
ENDBRANCH  17  19
ENDBRANCH  16  17
ENDBRANCH   5   7
BRANCH   4  21
ATOM     21  C   UNL     1       0.892   9.720  21.674  0.00  0.00    +0.000 C 
ATOM     22  O   UNL     1       1.775   9.397  22.456  0.00  0.00    +0.000 OA
ATOM     23  N   UNL     1       0.764   9.215  20.382  0.00  0.00    +0.000 N 
ATOM     24  H   UNL     1       0.135   9.685  19.747  0.00  0.00    +0.000 HD
BRANCH  23  25
ATOM     25  C   UNL     1       1.520   8.145  19.852  0.00  0.00    +0.000 A 
ATOM     26  C   UNL     1       1.626   6.901  20.490  0.00  0.00    +0.000 A 
ATOM     27  C   UNL     1       2.436   5.879  19.948  0.00  0.00    +0.000 A 
ATOM     28  C   UNL     1       3.104   6.081  18.748  0.00  0.00    +0.000 A 
ATOM     29  C   UNL     1       2.952   7.296  18.079  0.00  0.00    +0.000 A 
ATOM     30  C   UNL     1       2.170   8.330  18.630  0.00  0.00    +0.000 A 
BRANCH  28  31
ATOM     31  C   UNL     1       3.908   4.973  18.143  0.00  0.00    +0.000 C 
ATOM     32  N   UNL     1       3.315   4.032  17.446  0.00  0.00    +0.000 NA
ATOM     33  N   UNL     1       5.310   4.983  18.188  0.00  0.00    +0.000 N 
ATOM     34  C   UNL     1       6.137   5.527  19.242  0.00  0.00    +0.000 C 
ATOM     35  C   UNL     1       7.364   5.953  18.452  0.00  0.00    +0.000 C 
ATOM     36  C   UNL     1       7.556   4.776  17.502  0.00  0.00    +0.000 C 
ATOM     37  C   UNL     1       6.135   4.260  17.230  0.00  0.00    +0.000 C 
ATOM     38  H   UNL     1       2.304   4.164  17.440  0.00  0.00    +0.000 HD
ENDBRANCH  28  31
ENDBRANCH  23  25
ENDBRANCH   4  21
TORSDOF 6
ENDMDL
MODEL 2
REMARK VINA RESULT:      -8.8      3.028      9.568
REMARK  Name = 
REMARK  7 active torsions:
REMARK  status: ('A' for Active; 'I' for Inactive)
REMARK    1  A    between atoms: C_1  and  C_2
REMARK    2  A    between atoms: C_4  and  C_5
REMARK    3  A    between atoms: N_7  and  C_8
REMARK    4  A    between atoms: C_11  and  C_12
REMARK    5  A    between atoms: N_21  and  C_22
REMARK    6  A    between atoms: C_31  and  C_32
REMARK    7  A    between atoms: C_32  and  O_34
REMARK                            x       y       z     vdW  Elec       q    Type
REMARK                         _______ _______ _______ _____ _____    ______ ____
ROOT
ATOM      1  C   UNL     1       4.459   1.341  21.218  0.00  0.00    +0.000 C 
ATOM      2  C   UNL     1       4.290   2.523  20.341  0.00  0.00    +0.000 A 
ATOM      3  C   UNL     1       3.142   3.307  20.140  0.00  0.00    +0.000 A 
ATOM      4  C   UNL     1       3.510   4.270  19.219  0.00  0.00    +0.000 A 
ATOM      5  N   UNL     1       4.846   4.002  18.892  0.00  0.00    +0.000 N 
ATOM      6  N   UNL     1       5.318   2.956  19.610  0.00  0.00    +0.000 NA
ENDROOT
BRANCH   5   7
ATOM      7  C   UNL     1       5.604   4.449  17.771  0.00  0.00    +0.000 A 
ATOM      8  C   UNL     1       5.178   3.961  16.531  0.00  0.00    +0.000 A 
ATOM      9  C   UNL     1       5.869   4.225  15.357  0.00  0.00    +0.000 A 
ATOM     10  C   UNL     1       5.553   3.470  14.239  0.00  0.00    +0.000 A 
ATOM     11  C   UNL     1       6.352   3.602  13.124  0.00  0.00    +0.000 A 
ATOM     12  C   UNL     1       6.982   4.814  12.920  0.00  0.00    +0.000 A 
ATOM     13  C   UNL     1       7.375   5.540  14.042  0.00  0.00    +0.000 A 
ATOM     14  C   UNL     1       6.912   5.158  15.328  0.00  0.00    +0.000 A 
ATOM     15  C   UNL     1       7.386   5.617  16.583  0.00  0.00    +0.000 A 
ATOM     16  C   UNL     1       6.789   5.214  17.820  0.00  0.00    +0.000 A 
BRANCH  16  17
ATOM     17  C   UNL     1       7.492   5.747  19.032  0.00  0.00    +0.000 C 
ATOM     18  O   UNL     1       7.318   5.245  20.133  0.00  0.00    +0.000 OA
BRANCH  17  19
ATOM     19  O   UNL     1       8.198   6.883  18.900  0.00  0.00    +0.000 OA
ATOM     20  H   UNL     1       9.151   6.755  18.674  0.00  0.00    +0.000 HD
ENDBRANCH  17  19
ENDBRANCH  16  17
ENDBRANCH   5   7
BRANCH   4  21
ATOM     21  C   UNL     1       2.754   5.394  18.708  0.00  0.00    +0.000 C 
ATOM     22  O   UNL     1       1.979   5.253  17.772  0.00  0.00    +0.000 OA
ATOM     23  N   UNL     1       2.992   6.604  19.355  0.00  0.00    +0.000 N 
ATOM     24  H   UNL     1       3.788   6.665  19.973  0.00  0.00    +0.000 HD
BRANCH  23  25
ATOM     25  C   UNL     1       2.259   7.794  19.143  0.00  0.00    +0.000 A 
ATOM     26  C   UNL     1       2.231   8.458  17.909  0.00  0.00    +0.000 A 
ATOM     27  C   UNL     1       1.527   9.673  17.759  0.00  0.00    +0.000 A 
ATOM     28  C   UNL     1       0.815  10.203  18.826  0.00  0.00    +0.000 A 
ATOM     29  C   UNL     1       0.790   9.512  20.039  0.00  0.00    +0.000 A 
ATOM     30  C   UNL     1       1.515   8.316  20.204  0.00  0.00    +0.000 A 
BRANCH  28  31
ATOM     31  C   UNL     1       0.015  11.456  18.646  0.00  0.00    +0.000 C 
ATOM     32  N   UNL     1      -1.293  11.395  18.546  0.00  0.00    +0.000 NA
ATOM     33  N   UNL     1       0.620  12.720  18.713  0.00  0.00    +0.000 N 
ATOM     34  C   UNL     1       1.963  13.058  18.302  0.00  0.00    +0.000 C 
ATOM     35  C   UNL     1       2.280  14.192  19.266  0.00  0.00    +0.000 C 
ATOM     36  C   UNL     1       0.977  14.983  19.265  0.00  0.00    +0.000 C 
ATOM     37  C   UNL     1      -0.119  13.929  19.050  0.00  0.00    +0.000 C 
ATOM     38  H   UNL     1      -1.616  10.428  18.566  0.00  0.00    +0.000 HD
ENDBRANCH  28  31
ENDBRANCH  23  25
ENDBRANCH   4  21
TORSDOF 6
ENDMDL
MODEL 3
REMARK VINA RESULT:      -8.8      5.036      9.384
REMARK  Name = 
REMARK  7 active torsions:
REMARK  status: ('A' for Active; 'I' for Inactive)
REMARK    1  A    between atoms: C_1  and  C_2
REMARK    2  A    between atoms: C_4  and  C_5
REMARK    3  A    between atoms: N_7  and  C_8
REMARK    4  A    between atoms: C_11  and  C_12
REMARK    5  A    between atoms: N_21  and  C_22
REMARK    6  A    between atoms: C_31  and  C_32
REMARK    7  A    between atoms: C_32  and  O_34
REMARK                            x       y       z     vdW  Elec       q    Type
REMARK                         _______ _______ _______ _____ _____    ______ ____
ROOT
ATOM      1  C   UNL     1       5.998   3.980  13.801  0.00  0.00    +0.000 C 
ATOM      2  C   UNL     1       6.078   4.872  14.981  0.00  0.00    +0.000 A 
ATOM      3  C   UNL     1       7.218   5.442  15.572  0.00  0.00    +0.000 A 
ATOM      4  C   UNL     1       6.749   6.174  16.647  0.00  0.00    +0.000 A 
ATOM      5  N   UNL     1       5.360   5.987  16.666  0.00  0.00    +0.000 N 
ATOM      6  N   UNL     1       4.962   5.219  15.624  0.00  0.00    +0.000 NA
ENDROOT
BRANCH   5   7
ATOM      7  C   UNL     1       4.437   6.217  17.726  0.00  0.00    +0.000 A 
ATOM      8  C   UNL     1       3.546   7.277  17.521  0.00  0.00    +0.000 A 
ATOM      9  C   UNL     1       2.652   7.689  18.499  0.00  0.00    +0.000 A 
ATOM     10  C   UNL     1       2.027   8.913  18.326  0.00  0.00    +0.000 A 
ATOM     11  C   UNL     1       1.277   9.409  19.371  0.00  0.00    +0.000 A 
ATOM     12  C   UNL     1       0.683   8.503  20.227  0.00  0.00    +0.000 A 
ATOM     13  C   UNL     1       1.347   7.301  20.467  0.00  0.00    +0.000 A 
ATOM     14  C   UNL     1       2.458   6.936  19.663  0.00  0.00    +0.000 A 
ATOM     15  C   UNL     1       3.387   5.894  19.906  0.00  0.00    +0.000 A 
ATOM     16  C   UNL     1       4.430   5.568  18.980  0.00  0.00    +0.000 A 
BRANCH  16  17
ATOM     17  C   UNL     1       5.354   4.491  19.465  0.00  0.00    +0.000 C 
ATOM     18  O   UNL     1       5.005   3.320  19.481  0.00  0.00    +0.000 OA
BRANCH  17  19
ATOM     19  O   UNL     1       6.517   4.868  20.024  0.00  0.00    +0.000 OA
ATOM     20  H   UNL     1       6.442   5.205  20.950  0.00  0.00    +0.000 HD
ENDBRANCH  17  19
ENDBRANCH  16  17
ENDBRANCH   5   7
BRANCH   4  21
ATOM     21  C   UNL     1       7.469   7.036  17.560  0.00  0.00    +0.000 C 
ATOM     22  O   UNL     1       8.082   6.568  18.510  0.00  0.00    +0.000 OA
ATOM     23  N   UNL     1       7.392   8.395  17.267  0.00  0.00    +0.000 N 
ATOM     24  H   UNL     1       6.705   8.700  16.593  0.00  0.00    +0.000 HD
BRANCH  23  25
ATOM     25  C   UNL     1       8.139   9.407  17.914  0.00  0.00    +0.000 A 
ATOM     26  C   UNL     1       8.959   9.154  19.023  0.00  0.00    +0.000 A 
ATOM     27  C   UNL     1       9.645  10.206  19.667  0.00  0.00    +0.000 A 
ATOM     28  C   UNL     1       9.550  11.503  19.181  0.00  0.00    +0.000 A 
ATOM     29  C   UNL     1       8.784  11.749  18.041  0.00  0.00    +0.000 A 
ATOM     30  C   UNL     1       8.072  10.708  17.411  0.00  0.00    +0.000 A 
BRANCH  28  31
ATOM     31  C   UNL     1      10.331  12.604  19.827  0.00  0.00    +0.000 C 
ATOM     32  N   UNL     1      11.417  13.068  19.252  0.00  0.00    +0.000 NA
ATOM     33  N   UNL     1       9.858  13.254  20.976  0.00  0.00    +0.000 N 
ATOM     34  C   UNL     1       9.069  12.669  22.037  0.00  0.00    +0.000 C 
ATOM     35  C   UNL     1       8.263  13.875  22.493  0.00  0.00    +0.000 C 
ATOM     36  C   UNL     1       9.312  14.981  22.485  0.00  0.00    +0.000 C 
ATOM     37  C   UNL     1      10.269  14.602  21.345  0.00  0.00    +0.000 C 
ATOM     38  H   UNL     1      11.626  12.552  18.397  0.00  0.00    +0.000 HD
ENDBRANCH  28  31
ENDBRANCH  23  25
ENDBRANCH   4  21
TORSDOF 6
ENDMDL
MODEL 4
REMARK VINA RESULT:      -8.7      3.053      9.633
REMARK  Name = 
REMARK  7 active torsions:
REMARK  status: ('A' for Active; 'I' for Inactive)
REMARK    1  A    between atoms: C_1  and  C_2
REMARK    2  A    between atoms: C_4  and  C_5
REMARK    3  A    between atoms: N_7  and  C_8
REMARK    4  A    between atoms: C_11  and  C_12
REMARK    5  A    between atoms: N_21  and  C_22
REMARK    6  A    between atoms: C_31  and  C_32
REMARK    7  A    between atoms: C_32  and  O_34
REMARK                            x       y       z     vdW  Elec       q    Type
REMARK                         _______ _______ _______ _____ _____    ______ ____
ROOT
ATOM      1  C   UNL     1       4.376   1.330  21.183  0.00  0.00    +0.000 C 
ATOM      2  C   UNL     1       4.233   2.537  20.336  0.00  0.00    +0.000 A 
ATOM      3  C   UNL     1       3.112   3.369  20.179  0.00  0.00    +0.000 A 
ATOM      4  C   UNL     1       3.496   4.336  19.270  0.00  0.00    +0.000 A 
ATOM      5  N   UNL     1       4.812   4.024  18.904  0.00  0.00    +0.000 N 
ATOM      6  N   UNL     1       5.260   2.945  19.589  0.00  0.00    +0.000 NA
ENDROOT
BRANCH   5   7
ATOM      7  C   UNL     1       5.561   4.465  17.775  0.00  0.00    +0.000 A 
ATOM      8  C   UNL     1       5.125   3.971  16.541  0.00  0.00    +0.000 A 
ATOM      9  C   UNL     1       5.806   4.230  15.360  0.00  0.00    +0.000 A 
ATOM     10  C   UNL     1       5.481   3.468  14.249  0.00  0.00    +0.000 A 
ATOM     11  C   UNL     1       6.271   3.595  13.126  0.00  0.00    +0.000 A 
ATOM     12  C   UNL     1       6.898   4.806  12.911  0.00  0.00    +0.000 A 
ATOM     13  C   UNL     1       7.300   5.539  14.026  0.00  0.00    +0.000 A 
ATOM     14  C   UNL     1       6.848   5.163  15.318  0.00  0.00    +0.000 A 
ATOM     15  C   UNL     1       7.332   5.629  16.566  0.00  0.00    +0.000 A 
ATOM     16  C   UNL     1       6.745   5.232  17.810  0.00  0.00    +0.000 A 
BRANCH  16  17
ATOM     17  C   UNL     1       7.459   5.771  19.014  0.00  0.00    +0.000 C 
ATOM     18  O   UNL     1       7.244   5.319  20.129  0.00  0.00    +0.000 OA
BRANCH  17  19
ATOM     19  O   UNL     1       8.223   6.865  18.853  0.00  0.00    +0.000 OA
ATOM     20  H   UNL     1       9.132   6.795  19.233  0.00  0.00    +0.000 HD
ENDBRANCH  17  19
ENDBRANCH  16  17
ENDBRANCH   5   7
BRANCH   4  21
ATOM     21  C   UNL     1       2.773   5.500  18.801  0.00  0.00    +0.000 C 
ATOM     22  O   UNL     1       2.151   5.467  17.748  0.00  0.00    +0.000 OA
ATOM     23  N   UNL     1       2.858   6.617  19.629  0.00  0.00    +0.000 N 
ATOM     24  H   UNL     1       3.551   6.614  20.363  0.00  0.00    +0.000 HD
BRANCH  23  25
ATOM     25  C   UNL     1       2.111   7.805  19.465  0.00  0.00    +0.000 A 
ATOM     26  C   UNL     1       1.355   8.376  20.498  0.00  0.00    +0.000 A 
ATOM     27  C   UNL     1       0.583   9.536  20.272  0.00  0.00    +0.000 A 
ATOM     28  C   UNL     1       0.598  10.153  19.029  0.00  0.00    +0.000 A 
ATOM     29  C   UNL     1       1.398   9.624  18.015  0.00  0.00    +0.000 A 
ATOM     30  C   UNL     1       2.147   8.449  18.225  0.00  0.00    +0.000 A 
BRANCH  28  31
ATOM     31  C   UNL     1      -0.169  11.420  18.811  0.00  0.00    +0.000 C 
ATOM     32  N   UNL     1      -0.814  11.615  17.684  0.00  0.00    +0.000 NA
ATOM     33  N   UNL     1      -0.329  12.359  19.841  0.00  0.00    +0.000 N 
ATOM     34  C   UNL     1       0.616  12.657  20.893  0.00  0.00    +0.000 C 
ATOM     35  C   UNL     1      -0.325  13.064  22.016  0.00  0.00    +0.000 C 
ATOM     36  C   UNL     1      -1.346  13.924  21.281  0.00  0.00    +0.000 C 
ATOM     37  C   UNL     1      -1.430  13.311  19.874  0.00  0.00    +0.000 C 
ATOM     38  H   UNL     1      -0.665  10.840  17.039  0.00  0.00    +0.000 HD
ENDBRANCH  28  31
ENDBRANCH  23  25
ENDBRANCH   4  21
TORSDOF 6
ENDMDL
MODEL 5
REMARK VINA RESULT:      -8.7      3.093      9.687
REMARK  Name = 
REMARK  7 active torsions:
REMARK  status: ('A' for Active; 'I' for Inactive)
REMARK    1  A    between atoms: C_1  and  C_2
REMARK    2  A    between atoms: C_4  and  C_5
REMARK    3  A    between atoms: N_7  and  C_8
REMARK    4  A    between atoms: C_11  and  C_12
REMARK    5  A    between atoms: N_21  and  C_22
REMARK    6  A    between atoms: C_31  and  C_32
REMARK    7  A    between atoms: C_32  and  O_34
REMARK                            x       y       z     vdW  Elec       q    Type
REMARK                         _______ _______ _______ _____ _____    ______ ____
ROOT
ATOM      1  C   UNL     1       2.319   1.725  19.424  0.00  0.00    +0.000 C 
ATOM      2  C   UNL     1       2.843   3.011  18.907  0.00  0.00    +0.000 A 
ATOM      3  C   UNL     1       2.253   4.284  18.966  0.00  0.00    +0.000 A 
ATOM      4  C   UNL     1       3.141   5.131  18.329  0.00  0.00    +0.000 A 
ATOM      5  N   UNL     1       4.203   4.325  17.898  0.00  0.00    +0.000 N 
ATOM      6  N   UNL     1       4.024   3.041  18.288  0.00  0.00    +0.000 NA
ENDROOT
BRANCH   5   7
ATOM      7  C   UNL     1       5.199   4.600  16.916  0.00  0.00    +0.000 A 
ATOM      8  C   UNL     1       4.878   4.201  15.614  0.00  0.00    +0.000 A 
ATOM      9  C   UNL     1       5.780   4.311  14.565  0.00  0.00    +0.000 A 
ATOM     10  C   UNL     1       5.494   3.628  13.395  0.00  0.00    +0.000 A 
ATOM     11  C   UNL     1       6.464   3.587  12.417  0.00  0.00    +0.000 A 
ATOM     12  C   UNL     1       7.351   4.643  12.341  0.00  0.00    +0.000 A 
ATOM     13  C   UNL     1       7.706   5.282  13.528  0.00  0.00    +0.000 A 
ATOM     14  C   UNL     1       6.983   5.011  14.718  0.00  0.00    +0.000 A 
ATOM     15  C   UNL     1       7.342   5.372  16.041  0.00  0.00    +0.000 A 
ATOM     16  C   UNL     1       6.492   5.108  17.163  0.00  0.00    +0.000 A 
BRANCH  16  17
ATOM     17  C   UNL     1       7.095   5.494  18.481  0.00  0.00    +0.000 C 
ATOM     18  O   UNL     1       6.730   4.964  19.520  0.00  0.00    +0.000 OA
BRANCH  17  19
ATOM     19  O   UNL     1       7.934   6.544  18.504  0.00  0.00    +0.000 OA
ATOM     20  H   UNL     1       8.006   7.036  17.650  0.00  0.00    +0.000 HD
ENDBRANCH  17  19
ENDBRANCH  16  17
ENDBRANCH   5   7
BRANCH   4  21
ATOM     21  C   UNL     1       3.090   6.569  18.169  0.00  0.00    +0.000 C 
ATOM     22  O   UNL     1       3.805   7.132  17.351  0.00  0.00    +0.000 OA
ATOM     23  N   UNL     1       2.189   7.221  19.006  0.00  0.00    +0.000 N 
ATOM     24  H   UNL     1       1.796   6.704  19.779  0.00  0.00    +0.000 HD
BRANCH  23  25
ATOM     25  C   UNL     1       1.848   8.591  18.920  0.00  0.00    +0.000 A 
ATOM     26  C   UNL     1       2.251   9.408  17.855  0.00  0.00    +0.000 A 
ATOM     27  C   UNL     1       1.931  10.783  17.839  0.00  0.00    +0.000 A 
ATOM     28  C   UNL     1       1.172  11.335  18.862  0.00  0.00    +0.000 A 
ATOM     29  C   UNL     1       0.717  10.511  19.893  0.00  0.00    +0.000 A 
ATOM     30  C   UNL     1       1.059   9.145  19.931  0.00  0.00    +0.000 A 
BRANCH  28  31
ATOM     31  C   UNL     1       0.778  12.778  18.808  0.00  0.00    +0.000 C 
ATOM     32  N   UNL     1      -0.259  13.152  18.095  0.00  0.00    +0.000 NA
ATOM     33  N   UNL     1       1.413  13.735  19.612  0.00  0.00    +0.000 N 
ATOM     34  C   UNL     1       2.796  13.729  20.034  0.00  0.00    +0.000 C 
ATOM     35  C   UNL     1       2.688  14.438  21.375  0.00  0.00    +0.000 C 
ATOM     36  C   UNL     1       1.717  15.570  21.060  0.00  0.00    +0.000 C 
ATOM     37  C   UNL     1       0.783  14.994  19.986  0.00  0.00    +0.000 C 
ATOM     38  H   UNL     1      -0.669  12.359  17.602  0.00  0.00    +0.000 HD
ENDBRANCH  28  31
ENDBRANCH  23  25
ENDBRANCH   4  21
TORSDOF 6
ENDMDL
MODEL 6
REMARK VINA RESULT:      -8.6      3.693      9.705
REMARK  Name = 
REMARK  7 active torsions:
REMARK  status: ('A' for Active; 'I' for Inactive)
REMARK    1  A    between atoms: C_1  and  C_2
REMARK    2  A    between atoms: C_4  and  C_5
REMARK    3  A    between atoms: N_7  and  C_8
REMARK    4  A    between atoms: C_11  and  C_12
REMARK    5  A    between atoms: N_21  and  C_22
REMARK    6  A    between atoms: C_31  and  C_32
REMARK    7  A    between atoms: C_32  and  O_34
REMARK                            x       y       z     vdW  Elec       q    Type
REMARK                         _______ _______ _______ _____ _____    ______ ____
ROOT
ATOM      1  C   UNL     1       4.770   1.165  21.255  0.00  0.00    +0.000 C 
ATOM      2  C   UNL     1       4.520   2.350  20.402  0.00  0.00    +0.000 A 
ATOM      3  C   UNL     1       3.337   3.095  20.263  0.00  0.00    +0.000 A 
ATOM      4  C   UNL     1       3.629   4.080  19.339  0.00  0.00    +0.000 A 
ATOM      5  N   UNL     1       4.957   3.864  18.949  0.00  0.00    +0.000 N 
ATOM      6  N   UNL     1       5.498   2.828  19.631  0.00  0.00    +0.000 NA
ENDROOT
BRANCH   5   7
ATOM      7  C   UNL     1       5.647   4.351  17.801  0.00  0.00    +0.000 A 
ATOM      8  C   UNL     1       5.227   3.813  16.580  0.00  0.00    +0.000 A 
ATOM      9  C   UNL     1       5.863   4.111  15.384  0.00  0.00    +0.000 A 
ATOM     10  C   UNL     1       5.576   3.317  14.286  0.00  0.00    +0.000 A 
ATOM     11  C   UNL     1       6.332   3.493  13.146  0.00  0.00    +0.000 A 
ATOM     12  C   UNL     1       6.860   4.746  12.908  0.00  0.00    +0.000 A 
ATOM     13  C   UNL     1       7.226   5.518  14.010  0.00  0.00    +0.000 A 
ATOM     14  C   UNL     1       6.829   5.122  15.313  0.00  0.00    +0.000 A 
ATOM     15  C   UNL     1       7.300   5.635  16.547  0.00  0.00    +0.000 A 
ATOM     16  C   UNL     1       6.770   5.207  17.806  0.00  0.00    +0.000 A 
BRANCH  16  17
ATOM     17  C   UNL     1       7.463   5.810  18.991  0.00  0.00    +0.000 C 
ATOM     18  O   UNL     1       8.172   6.798  18.871  0.00  0.00    +0.000 OA
BRANCH  17  19
ATOM     19  O   UNL     1       7.406   5.145  20.158  0.00  0.00    +0.000 OA
ATOM     20  H   UNL     1       7.896   5.571  20.902  0.00  0.00    +0.000 HD
ENDBRANCH  17  19
ENDBRANCH  16  17
ENDBRANCH   5   7
BRANCH   4  21
ATOM     21  C   UNL     1       2.811   5.182  18.878  0.00  0.00    +0.000 C 
ATOM     22  O   UNL     1       2.022   5.032  17.955  0.00  0.00    +0.000 OA
ATOM     23  N   UNL     1       3.009   6.383  19.554  0.00  0.00    +0.000 N 
ATOM     24  H   UNL     1       3.815   6.464  20.157  0.00  0.00    +0.000 HD
BRANCH  23  25
ATOM     25  C   UNL     1       2.218   7.544  19.393  0.00  0.00    +0.000 A 
ATOM     26  C   UNL     1       1.475   8.108  20.440  0.00  0.00    +0.000 A 
ATOM     27  C   UNL     1       0.659   9.238  20.217  0.00  0.00    +0.000 A 
ATOM     28  C   UNL     1       0.615   9.832  18.963  0.00  0.00    +0.000 A 
ATOM     29  C   UNL     1       1.401   9.310  17.934  0.00  0.00    +0.000 A 
ATOM     30  C   UNL     1       2.194   8.165  18.142  0.00  0.00    +0.000 A 
BRANCH  28  31
ATOM     31  C   UNL     1      -0.200  11.069  18.747  0.00  0.00    +0.000 C 
ATOM     32  N   UNL     1       0.344  12.254  18.908  0.00  0.00    +0.000 NA
ATOM     33  N   UNL     1      -1.507  11.000  18.243  0.00  0.00    +0.000 N 
ATOM     34  C   UNL     1      -2.465   9.942  18.471  0.00  0.00    +0.000 C 
ATOM     35  C   UNL     1      -3.262   9.995  17.176  0.00  0.00    +0.000 C 
ATOM     36  C   UNL     1      -3.422  11.495  16.961  0.00  0.00    +0.000 C 
ATOM     37  C   UNL     1      -2.145  12.112  17.552  0.00  0.00    +0.000 C 
ATOM     38  H   UNL     1       1.311  12.172  19.221  0.00  0.00    +0.000 HD
ENDBRANCH  28  31
ENDBRANCH  23  25
ENDBRANCH   4  21
TORSDOF 6
ENDMDL
MODEL 7
REMARK VINA RESULT:      -8.5      4.986      9.506
REMARK  Name = 
REMARK  7 active torsions:
REMARK  status: ('A' for Active; 'I' for Inactive)
REMARK    1  A    between atoms: C_1  and  C_2
REMARK    2  A    between atoms: C_4  and  C_5
REMARK    3  A    between atoms: N_7  and  C_8
REMARK    4  A    between atoms: C_11  and  C_12
REMARK    5  A    between atoms: N_21  and  C_22
REMARK    6  A    between atoms: C_31  and  C_32
REMARK    7  A    between atoms: C_32  and  O_34
REMARK                            x       y       z     vdW  Elec       q    Type
REMARK                         _______ _______ _______ _____ _____    ______ ____
ROOT
ATOM      1  C   UNL     1       6.064   3.945  13.790  0.00  0.00    +0.000 C 
ATOM      2  C   UNL     1       6.127   4.847  14.964  0.00  0.00    +0.000 A 
ATOM      3  C   UNL     1       7.255   5.449  15.547  0.00  0.00    +0.000 A 
ATOM      4  C   UNL     1       6.772   6.176  16.618  0.00  0.00    +0.000 A 
ATOM      5  N   UNL     1       5.388   5.955  16.645  0.00  0.00    +0.000 N 
ATOM      6  N   UNL     1       5.006   5.171  15.609  0.00  0.00    +0.000 NA
ENDROOT
BRANCH   5   7
ATOM      7  C   UNL     1       4.463   6.169  17.707  0.00  0.00    +0.000 A 
ATOM      8  C   UNL     1       3.578   7.237  17.520  0.00  0.00    +0.000 A 
ATOM      9  C   UNL     1       2.683   7.634  18.503  0.00  0.00    +0.000 A 
ATOM     10  C   UNL     1       2.065   8.865  18.352  0.00  0.00    +0.000 A 
ATOM     11  C   UNL     1       1.315   9.344  19.404  0.00  0.00    +0.000 A 
ATOM     12  C   UNL     1       0.714   8.425  20.241  0.00  0.00    +0.000 A 
ATOM     13  C   UNL     1       1.373   7.216  20.461  0.00  0.00    +0.000 A 
ATOM     14  C   UNL     1       2.483   6.861  19.652  0.00  0.00    +0.000 A 
ATOM     15  C   UNL     1       3.407   5.810  19.877  0.00  0.00    +0.000 A 
ATOM     16  C   UNL     1       4.450   5.497  18.948  0.00  0.00    +0.000 A 
BRANCH  16  17
ATOM     17  C   UNL     1       5.369   4.407  19.415  0.00  0.00    +0.000 C 
ATOM     18  O   UNL     1       5.027   3.234  19.375  0.00  0.00    +0.000 OA
BRANCH  17  19
ATOM     19  O   UNL     1       6.514   4.768  20.019  0.00  0.00    +0.000 OA
ATOM     20  H   UNL     1       7.082   4.014  20.314  0.00  0.00    +0.000 HD
ENDBRANCH  17  19
ENDBRANCH  16  17
ENDBRANCH   5   7
BRANCH   4  21
ATOM     21  C   UNL     1       7.473   7.062  17.523  0.00  0.00    +0.000 C 
ATOM     22  O   UNL     1       8.083   6.617  18.486  0.00  0.00    +0.000 OA
ATOM     23  N   UNL     1       7.385   8.415  17.206  0.00  0.00    +0.000 N 
ATOM     24  H   UNL     1       6.701   8.700  16.519  0.00  0.00    +0.000 HD
BRANCH  23  25
ATOM     25  C   UNL     1       8.115   9.445  17.841  0.00  0.00    +0.000 A 
ATOM     26  C   UNL     1       8.078  10.779  17.410  0.00  0.00    +0.000 A 
ATOM     27  C   UNL     1       8.865  11.764  18.044  0.00  0.00    +0.000 A 
ATOM     28  C   UNL     1       9.656  11.431  19.135  0.00  0.00    +0.000 A 
ATOM     29  C   UNL     1       9.648  10.117  19.606  0.00  0.00    +0.000 A 
ATOM     30  C   UNL     1       8.889   9.122  18.958  0.00  0.00    +0.000 A 
BRANCH  28  31
ATOM     31  C   UNL     1      10.437  12.491  19.847  0.00  0.00    +0.000 C 
ATOM     32  N   UNL     1      11.673  12.257  20.225  0.00  0.00    +0.000 NA
ATOM     33  N   UNL     1       9.927  13.787  20.006  0.00  0.00    +0.000 N 
ATOM     34  C   UNL     1       8.539  14.155  20.174  0.00  0.00    +0.000 C 
ATOM     35  C   UNL     1       8.528  15.533  19.529  0.00  0.00    +0.000 C 
ATOM     36  C   UNL     1       9.821  16.142  20.058  0.00  0.00    +0.000 C 
ATOM     37  C   UNL     1      10.779  14.950  20.209  0.00  0.00    +0.000 C 
ATOM     38  H   UNL     1      11.947  11.300  20.005  0.00  0.00    +0.000 HD
ENDBRANCH  28  31
ENDBRANCH  23  25
ENDBRANCH   4  21
TORSDOF 6
ENDMDL
MODEL 8
REMARK VINA RESULT:      -8.3      5.504      9.846
REMARK  Name = 
REMARK  7 active torsions:
REMARK  status: ('A' for Active; 'I' for Inactive)
REMARK    1  A    between atoms: C_1  and  C_2
REMARK    2  A    between atoms: C_4  and  C_5
REMARK    3  A    between atoms: N_7  and  C_8
REMARK    4  A    between atoms: C_11  and  C_12
REMARK    5  A    between atoms: N_21  and  C_22
REMARK    6  A    between atoms: C_31  and  C_32
REMARK    7  A    between atoms: C_32  and  O_34
REMARK                            x       y       z     vdW  Elec       q    Type
REMARK                         _______ _______ _______ _____ _____    ______ ____
ROOT
ATOM      1  C   UNL     1       6.178   3.655  13.509  0.00  0.00    +0.000 C 
ATOM      2  C   UNL     1       6.140   4.441  14.764  0.00  0.00    +0.000 A 
ATOM      3  C   UNL     1       7.172   5.178  15.368  0.00  0.00    +0.000 A 
ATOM      4  C   UNL     1       6.623   5.704  16.522  0.00  0.00    +0.000 A 
ATOM      5  N   UNL     1       5.303   5.237  16.570  0.00  0.00    +0.000 N 
ATOM      6  N   UNL     1       5.012   4.497  15.474  0.00  0.00    +0.000 NA
ENDROOT
BRANCH   5   7
ATOM      7  C   UNL     1       4.408   5.183  17.678  0.00  0.00    +0.000 A 
ATOM      8  C   UNL     1       4.300   3.933  18.296  0.00  0.00    +0.000 A 
ATOM      9  C   UNL     1       3.400   3.693  19.325  0.00  0.00    +0.000 A 
ATOM     10  C   UNL     1       3.151   2.375  19.669  0.00  0.00    +0.000 A 
ATOM     11  C   UNL     1       2.133   2.122  20.563  0.00  0.00    +0.000 A 
ATOM     12  C   UNL     1       1.837   3.094  21.498  0.00  0.00    +0.000 A 
ATOM     13  C   UNL     1       2.008   4.427  21.128  0.00  0.00    +0.000 A 
ATOM     14  C   UNL     1       2.699   4.743  19.929  0.00  0.00    +0.000 A 
ATOM     15  C   UNL     1       2.760   6.002  19.280  0.00  0.00    +0.000 A 
ATOM     16  C   UNL     1       3.554   6.221  18.109  0.00  0.00    +0.000 A 
BRANCH  16  17
ATOM     17  C   UNL     1       3.413   7.598  17.532  0.00  0.00    +0.000 C 
ATOM     18  O   UNL     1       4.083   7.951  16.573  0.00  0.00    +0.000 OA
BRANCH  17  19
ATOM     19  O   UNL     1       2.642   8.479  18.193  0.00  0.00    +0.000 OA
ATOM     20  H   UNL     1       2.566   9.366  17.763  0.00  0.00    +0.000 HD
ENDBRANCH  17  19
ENDBRANCH  16  17
ENDBRANCH   5   7
BRANCH   4  21
ATOM     21  C   UNL     1       7.203   6.614  17.487  0.00  0.00    +0.000 C 
ATOM     22  O   UNL     1       7.535   6.219  18.597  0.00  0.00    +0.000 OA
ATOM     23  N   UNL     1       7.334   7.929  17.050  0.00  0.00    +0.000 N 
ATOM     24  H   UNL     1       6.852   8.201  16.205  0.00  0.00    +0.000 HD
BRANCH  23  25
ATOM     25  C   UNL     1       8.015   8.952  17.749  0.00  0.00    +0.000 A 
ATOM     26  C   UNL     1       8.860   8.694  18.838  0.00  0.00    +0.000 A 
ATOM     27  C   UNL     1       9.478   9.753  19.538  0.00  0.00    +0.000 A 
ATOM     28  C   UNL     1       9.290  11.065  19.127  0.00  0.00    +0.000 A 
ATOM     29  C   UNL     1       8.499  11.322  18.006  0.00  0.00    +0.000 A 
ATOM     30  C   UNL     1       7.855  10.272  17.322  0.00  0.00    +0.000 A 
BRANCH  28  31
ATOM     31  C   UNL     1       9.999  12.180  19.830  0.00  0.00    +0.000 C 
ATOM     32  N   UNL     1      11.047  12.746  19.279  0.00  0.00    +0.000 NA
ATOM     33  N   UNL     1       9.490  12.732  21.015  0.00  0.00    +0.000 N 
ATOM     34  C   UNL     1       8.750  12.038  22.044  0.00  0.00    +0.000 C 
ATOM     35  C   UNL     1       7.867  13.161  22.568  0.00  0.00    +0.000 C 
ATOM     36  C   UNL     1       8.839  14.333  22.618  0.00  0.00    +0.000 C 
ATOM     37  C   UNL     1       9.813  14.082  21.457  0.00  0.00    +0.000 C 
ATOM     38  H   UNL     1      11.285  12.294  18.397  0.00  0.00    +0.000 HD
ENDBRANCH  28  31
ENDBRANCH  23  25
ENDBRANCH   4  21
TORSDOF 6
ENDMDL
MODEL 9
REMARK VINA RESULT:      -8.3      3.094      9.584
REMARK  Name = 
REMARK  7 active torsions:
REMARK  status: ('A' for Active; 'I' for Inactive)
REMARK    1  A    between atoms: C_1  and  C_2
REMARK    2  A    between atoms: C_4  and  C_5
REMARK    3  A    between atoms: N_7  and  C_8
REMARK    4  A    between atoms: C_11  and  C_12
REMARK    5  A    between atoms: N_21  and  C_22
REMARK    6  A    between atoms: C_31  and  C_32
REMARK    7  A    between atoms: C_32  and  O_34
REMARK                            x       y       z     vdW  Elec       q    Type
REMARK                         _______ _______ _______ _____ _____    ______ ____
ROOT
ATOM      1  C   UNL     1       2.281   1.538  19.393  0.00  0.00    +0.000 C 
ATOM      2  C   UNL     1       2.797   2.838  18.903  0.00  0.00    +0.000 A 
ATOM      3  C   UNL     1       2.181   4.100  18.955  0.00  0.00    +0.000 A 
ATOM      4  C   UNL     1       3.071   4.969  18.353  0.00  0.00    +0.000 A 
ATOM      5  N   UNL     1       4.161   4.187  17.946  0.00  0.00    +0.000 N 
ATOM      6  N   UNL     1       3.994   2.896  18.320  0.00  0.00    +0.000 NA
ENDROOT
BRANCH   5   7
ATOM      7  C   UNL     1       5.179   4.489  16.997  0.00  0.00    +0.000 A 
ATOM      8  C   UNL     1       4.857   4.206  15.665  0.00  0.00    +0.000 A 
ATOM      9  C   UNL     1       5.775   4.353  14.636  0.00  0.00    +0.000 A 
ATOM     10  C   UNL     1       5.472   3.775  13.414  0.00  0.00    +0.000 A 
ATOM     11  C   UNL     1       6.451   3.763  12.444  0.00  0.00    +0.000 A 
ATOM     12  C   UNL     1       7.386   4.780  12.456  0.00  0.00    +0.000 A 
ATOM     13  C   UNL     1       7.755   5.309  13.691  0.00  0.00    +0.000 A 
ATOM     14  C   UNL     1       7.007   4.983  14.852  0.00  0.00    +0.000 A 
ATOM     15  C   UNL     1       7.366   5.225  16.201  0.00  0.00    +0.000 A 
ATOM     16  C   UNL     1       6.492   4.917  17.292  0.00  0.00    +0.000 A 
BRANCH  16  17
ATOM     17  C   UNL     1       7.095   5.172  18.641  0.00  0.00    +0.000 C 
ATOM     18  O   UNL     1       8.224   4.789  18.910  0.00  0.00    +0.000 OA
BRANCH  17  19
ATOM     19  O   UNL     1       6.304   5.698  19.593  0.00  0.00    +0.000 OA
ATOM     20  H   UNL     1       5.581   5.101  19.906  0.00  0.00    +0.000 HD
ENDBRANCH  17  19
ENDBRANCH  16  17
ENDBRANCH   5   7
BRANCH   4  21
ATOM     21  C   UNL     1       2.998   6.407  18.203  0.00  0.00    +0.000 C 
ATOM     22  O   UNL     1       3.656   6.981  17.346  0.00  0.00    +0.000 OA
ATOM     23  N   UNL     1       2.145   7.048  19.098  0.00  0.00    +0.000 N 
ATOM     24  H   UNL     1       1.805   6.523  19.891  0.00  0.00    +0.000 HD
BRANCH  23  25
ATOM     25  C   UNL     1       1.788   8.414  19.040  0.00  0.00    +0.000 A 
ATOM     26  C   UNL     1       1.203   9.092  20.119  0.00  0.00    +0.000 A 
ATOM     27  C   UNL     1       0.815  10.444  19.997  0.00  0.00    +0.000 A 
ATOM     28  C   UNL     1       1.050  11.133  18.815  0.00  0.00    +0.000 A 
ATOM     29  C   UNL     1       1.688  10.479  17.759  0.00  0.00    +0.000 A 
ATOM     30  C   UNL     1       2.049   9.122  17.865  0.00  0.00    +0.000 A 
BRANCH  28  31
ATOM     31  C   UNL     1       0.698  12.585  18.711  0.00  0.00    +0.000 C 
ATOM     32  N   UNL     1      -0.560  12.960  18.714  0.00  0.00    +0.000 NA
ATOM     33  N   UNL     1       1.689  13.577  18.743  0.00  0.00    +0.000 N 
ATOM     34  C   UNL     1       3.036  13.469  18.231  0.00  0.00    +0.000 C 
ATOM     35  C   UNL     1       3.777  14.402  19.178  0.00  0.00    +0.000 C 
ATOM     36  C   UNL     1       2.812  15.576  19.288  0.00  0.00    +0.000 C 
ATOM     37  C   UNL     1       1.417  14.949  19.150  0.00  0.00    +0.000 C 
ATOM     38  H   UNL     1      -1.182  12.153  18.749  0.00  0.00    +0.000 HD
ENDBRANCH  28  31
ENDBRANCH  23  25
ENDBRANCH   4  21
TORSDOF 6
ENDMDL
