MODEL 1
REMARK VINA RESULT:      -7.3      0.000      0.000
REMARK  Name = 
REMARK  8 active torsions:
REMARK  status: ('A' for Active; 'I' for Inactive)
REMARK    1  A    between atoms: C_1  and  C_2
REMARK    2  A    between atoms: C_4  and  C_5
REMARK    3  A    between atoms: C_6  and  C_7
REMARK    4  A    between atoms: C_7  and  C_9
REMARK    5  A    between atoms: C_10  and  N_11
REMARK    6  A    between atoms: C_13  and  C_14
REMARK    7  A    between atoms: C_15  and  C_16
REMARK    8  A    between atoms: C_17  and  C_18
REMARK                            x       y       z     vdW  Elec       q    Type
REMARK                         _______ _______ _______ _____ _____    ______ ____
ROOT
ATOM      1  C   UNL     1       5.414   4.835  19.038  0.00  0.00    +0.000 C 
ATOM      2  O   UNL     1       6.366   5.032  19.796  0.00  0.00    +0.000 OA
ENDROOT
BRANCH   1   8
ATOM      3  C   UNL     1       6.709   4.527  13.349  0.00  0.00    +0.000 C 
ATOM      4  C   UNL     1       6.363   4.628  14.807  0.00  0.00    +0.000 A 
ATOM      5  C   UNL     1       7.008   5.537  15.643  0.00  0.00    +0.000 A 
ATOM      6  C   UNL     1       6.702   5.613  17.014  0.00  0.00    +0.000 A 
ATOM      7  C   UNL     1       7.443   6.649  17.826  0.00  0.00    +0.000 C 
ATOM      8  C   UNL     1       5.722   4.743  17.571  0.00  0.00    +0.000 A 
ATOM      9  C   UNL     1       5.019   3.866  16.706  0.00  0.00    +0.000 A 
ATOM     10  C   UNL     1       3.895   2.953  17.126  0.00  0.00    +0.000 C 
ATOM     11  C   UNL     1       5.384   3.796  15.348  0.00  0.00    +0.000 A 
ENDBRANCH   1   8
BRANCH   1  12
ATOM     12  C   UNL     1       4.035   4.743  19.574  0.00  0.00    +0.000 A 
ATOM     13  C   UNL     1       3.044   5.712  19.479  0.00  0.00    +0.000 A 
ATOM     14  S   UNL     1       1.625   5.268  20.325  0.00  0.00    +0.000 S 
ATOM     15  C   UNL     1       2.224   3.729  20.718  0.00  0.00    +0.000 A 
ATOM     16  C   UNL     1       1.346   2.762  21.446  0.00  0.00    +0.000 C 
ATOM     17  C   UNL     1       3.527   3.556  20.278  0.00  0.00    +0.000 A 
ATOM     18  C   UNL     1       4.322   2.302  20.508  0.00  0.00    +0.000 C 
BRANCH  13  19
ATOM     19  N   UNL     1       3.045   6.913  18.863  0.00  0.00    +0.000 N 
ATOM     20  H   UNL     1       2.272   7.567  18.918  0.00  0.00    +0.000 HD
ATOM     21  H   UNL     1       3.603   7.016  18.020  0.00  0.00    +0.000 HD
ENDBRANCH  13  19
ENDBRANCH   1  12
TORSDOF 3
ENDMDL
MODEL 2
REMARK VINA RESULT:      -7.3      1.620      3.293
REMARK  Name = 
REMARK  8 active torsions:
REMARK  status: ('A' for Active; 'I' for Inactive)
REMARK    1  A    between atoms: C_1  and  C_2
REMARK    2  A    between atoms: C_4  and  C_5
REMARK    3  A    between atoms: C_6  and  C_7
REMARK    4  A    between atoms: C_7  and  C_9
REMARK    5  A    between atoms: C_10  and  N_11
REMARK    6  A    between atoms: C_13  and  C_14
REMARK    7  A    between atoms: C_15  and  C_16
REMARK    8  A    between atoms: C_17  and  C_18
REMARK                            x       y       z     vdW  Elec       q    Type
REMARK                         _______ _______ _______ _____ _____    ______ ____
ROOT
ATOM      1  C   UNL     1       4.654   4.599  18.996  0.00  0.00    +0.000 C 
ATOM      2  O   UNL     1       5.125   3.848  19.854  0.00  0.00    +0.000 OA
ENDROOT
BRANCH   1   8
ATOM      3  C   UNL     1       6.834   4.223  13.589  0.00  0.00    +0.000 C 
ATOM      4  C   UNL     1       6.279   4.295  14.982  0.00  0.00    +0.000 A 
ATOM      5  C   UNL     1       5.019   3.783  15.287  0.00  0.00    +0.000 A 
ATOM      6  C   UNL     1       4.489   3.874  16.587  0.00  0.00    +0.000 A 
ATOM      7  C   UNL     1       3.124   3.267  16.814  0.00  0.00    +0.000 C 
ATOM      8  C   UNL     1       5.242   4.507  17.616  0.00  0.00    +0.000 A 
ATOM      9  C   UNL     1       6.550   4.965  17.321  0.00  0.00    +0.000 A 
ATOM     10  C   UNL     1       7.502   5.570  18.322  0.00  0.00    +0.000 C 
ATOM     11  C   UNL     1       7.027   4.888  15.998  0.00  0.00    +0.000 A 
ENDBRANCH   1   8
BRANCH   1  12
ATOM     12  C   UNL     1       3.590   5.569  19.350  0.00  0.00    +0.000 A 
ATOM     13  C   UNL     1       2.707   5.475  20.418  0.00  0.00    +0.000 A 
ATOM     14  S   UNL     1       1.556   6.740  20.416  0.00  0.00    +0.000 S 
ATOM     15  C   UNL     1       2.276   7.524  19.094  0.00  0.00    +0.000 A 
ATOM     16  C   UNL     1       1.727   8.835  18.628  0.00  0.00    +0.000 C 
ATOM     17  C   UNL     1       3.351   6.806  18.593  0.00  0.00    +0.000 A 
ATOM     18  C   UNL     1       4.162   7.244  17.406  0.00  0.00    +0.000 C 
BRANCH  13  19
ATOM     19  N   UNL     1       2.613   4.557  21.404  0.00  0.00    +0.000 N 
ATOM     20  H   UNL     1       3.288   3.813  21.537  0.00  0.00    +0.000 HD
ATOM     21  H   UNL     1       1.687   4.333  21.759  0.00  0.00    +0.000 HD
ENDBRANCH  13  19
ENDBRANCH   1  12
TORSDOF 3
ENDMDL
MODEL 3
REMARK VINA RESULT:      -7.1      1.590      2.640
REMARK  Name = 
REMARK  8 active torsions:
REMARK  status: ('A' for Active; 'I' for Inactive)
REMARK    1  A    between atoms: C_1  and  C_2
REMARK    2  A    between atoms: C_4  and  C_5
REMARK    3  A    between atoms: C_6  and  C_7
REMARK    4  A    between atoms: C_7  and  C_9
REMARK    5  A    between atoms: C_10  and  N_11
REMARK    6  A    between atoms: C_13  and  C_14
REMARK    7  A    between atoms: C_15  and  C_16
REMARK    8  A    between atoms: C_17  and  C_18
REMARK                            x       y       z     vdW  Elec       q    Type
REMARK                         _______ _______ _______ _____ _____    ______ ____
ROOT
ATOM      1  C   UNL     1       4.841   4.694  18.866  0.00  0.00    +0.000 C 
ATOM      2  O   UNL     1       5.463   4.079  19.735  0.00  0.00    +0.000 OA
ENDROOT
BRANCH   1   8
ATOM      3  C   UNL     1       6.723   4.001  13.377  0.00  0.00    +0.000 C 
ATOM      4  C   UNL     1       6.234   4.204  14.783  0.00  0.00    +0.000 A 
ATOM      5  C   UNL     1       7.015   4.859  15.734  0.00  0.00    +0.000 A 
ATOM      6  C   UNL     1       6.567   5.026  17.057  0.00  0.00    +0.000 A 
ATOM      7  C   UNL     1       7.482   5.771  18.001  0.00  0.00    +0.000 C 
ATOM      8  C   UNL     1       5.298   4.511  17.446  0.00  0.00    +0.000 A 
ATOM      9  C   UNL     1       4.477   3.905  16.461  0.00  0.00    +0.000 A 
ATOM     10  C   UNL     1       3.076   3.397  16.695  0.00  0.00    +0.000 C 
ATOM     11  C   UNL     1       4.979   3.726  15.158  0.00  0.00    +0.000 A 
ENDBRANCH   1   8
BRANCH   1  12
ATOM     12  C   UNL     1       3.729   5.600  19.238  0.00  0.00    +0.000 A 
ATOM     13  C   UNL     1       2.851   5.438  20.303  0.00  0.00    +0.000 A 
ATOM     14  S   UNL     1       1.636   6.643  20.326  0.00  0.00    +0.000 S 
ATOM     15  C   UNL     1       2.316   7.490  19.022  0.00  0.00    +0.000 A 
ATOM     16  C   UNL     1       1.701   8.781  18.583  0.00  0.00    +0.000 C 
ATOM     17  C   UNL     1       3.427   6.840  18.507  0.00  0.00    +0.000 A 
ATOM     18  C   UNL     1       4.215   7.344  17.332  0.00  0.00    +0.000 C 
BRANCH  13  19
ATOM     19  N   UNL     1       2.804   4.496  21.268  0.00  0.00    +0.000 N 
ATOM     20  H   UNL     1       3.614   4.209  21.806  0.00  0.00    +0.000 HD
ATOM     21  H   UNL     1       2.089   3.776  21.197  0.00  0.00    +0.000 HD
ENDBRANCH  13  19
ENDBRANCH   1  12
TORSDOF 3
ENDMDL
MODEL 4
REMARK VINA RESULT:      -7.1      2.275      3.634
REMARK  Name = 
REMARK  8 active torsions:
REMARK  status: ('A' for Active; 'I' for Inactive)
REMARK    1  A    between atoms: C_1  and  C_2
REMARK    2  A    between atoms: C_4  and  C_5
REMARK    3  A    between atoms: C_6  and  C_7
REMARK    4  A    between atoms: C_7  and  C_9
REMARK    5  A    between atoms: C_10  and  N_11
REMARK    6  A    between atoms: C_13  and  C_14
REMARK    7  A    between atoms: C_15  and  C_16
REMARK    8  A    between atoms: C_17  and  C_18
REMARK                            x       y       z     vdW  Elec       q    Type
REMARK                         _______ _______ _______ _____ _____    ______ ____
ROOT
ATOM      1  C   UNL     1       5.376   4.438  17.683  0.00  0.00    +0.000 C 
ATOM      2  O   UNL     1       5.605   3.661  16.754  0.00  0.00    +0.000 OA
ENDROOT
BRANCH   1   8
ATOM      3  C   UNL     1       8.598   9.307  17.912  0.00  0.00    +0.000 C 
ATOM      4  C   UNL     1       7.784   8.047  17.833  0.00  0.00    +0.000 A 
ATOM      5  C   UNL     1       6.816   7.871  16.846  0.00  0.00    +0.000 A 
ATOM      6  C   UNL     1       6.036   6.702  16.788  0.00  0.00    +0.000 A 
ATOM      7  C   UNL     1       5.031   6.603  15.665  0.00  0.00    +0.000 C 
ATOM      8  C   UNL     1       6.224   5.676  17.758  0.00  0.00    +0.000 A 
ATOM      9  C   UNL     1       7.255   5.828  18.719  0.00  0.00    +0.000 A 
ATOM     10  C   UNL     1       7.636   4.793  19.749  0.00  0.00    +0.000 C 
ATOM     11  C   UNL     1       7.987   7.029  18.764  0.00  0.00    +0.000 A 
ENDBRANCH   1   8
BRANCH   1  12
ATOM     12  C   UNL     1       4.336   4.118  18.690  0.00  0.00    +0.000 A 
ATOM     13  C   UNL     1       4.315   3.017  19.536  0.00  0.00    +0.000 A 
ATOM     14  S   UNL     1       2.884   2.951  20.473  0.00  0.00    +0.000 S 
ATOM     15  C   UNL     1       2.322   4.444  19.894  0.00  0.00    +0.000 A 
ATOM     16  C   UNL     1       1.051   5.014  20.443  0.00  0.00    +0.000 C 
ATOM     17  C   UNL     1       3.169   4.978  18.936  0.00  0.00    +0.000 A 
ATOM     18  C   UNL     1       2.909   6.279  18.230  0.00  0.00    +0.000 C 
BRANCH  13  19
ATOM     19  N   UNL     1       5.209   2.019  19.704  0.00  0.00    +0.000 N 
ATOM     20  H   UNL     1       5.913   1.781  19.015  0.00  0.00    +0.000 HD
ATOM     21  H   UNL     1       4.945   1.239  20.300  0.00  0.00    +0.000 HD
ENDBRANCH  13  19
ENDBRANCH   1  12
TORSDOF 3
ENDMDL
MODEL 5
REMARK VINA RESULT:      -7.0      0.129      2.016
REMARK  Name = 
REMARK  8 active torsions:
REMARK  status: ('A' for Active; 'I' for Inactive)
REMARK    1  A    between atoms: C_1  and  C_2
REMARK    2  A    between atoms: C_4  and  C_5
REMARK    3  A    between atoms: C_6  and  C_7
REMARK    4  A    between atoms: C_7  and  C_9
REMARK    5  A    between atoms: C_10  and  N_11
REMARK    6  A    between atoms: C_13  and  C_14
REMARK    7  A    between atoms: C_15  and  C_16
REMARK    8  A    between atoms: C_17  and  C_18
REMARK                            x       y       z     vdW  Elec       q    Type
REMARK                         _______ _______ _______ _____ _____    ______ ____
ROOT
ATOM      1  C   UNL     1       5.437   4.794  19.048  0.00  0.00    +0.000 C 
ATOM      2  O   UNL     1       6.374   4.900  19.842  0.00  0.00    +0.000 OA
ENDROOT
BRANCH   1   8
ATOM      3  C   UNL     1       6.690   4.689  13.342  0.00  0.00    +0.000 C 
ATOM      4  C   UNL     1       6.383   4.695  14.812  0.00  0.00    +0.000 A 
ATOM      5  C   UNL     1       5.467   3.801  15.364  0.00  0.00    +0.000 A 
ATOM      6  C   UNL     1       5.160   3.824  16.736  0.00  0.00    +0.000 A 
ATOM      7  C   UNL     1       4.171   2.796  17.235  0.00  0.00    +0.000 C 
ATOM      8  C   UNL     1       5.784   4.781  17.586  0.00  0.00    +0.000 A 
ATOM      9  C   UNL     1       6.764   5.645  17.035  0.00  0.00    +0.000 A 
ATOM     10  C   UNL     1       7.576   6.645  17.821  0.00  0.00    +0.000 C 
ATOM     11  C   UNL     1       7.014   5.613  15.650  0.00  0.00    +0.000 A 
ENDBRANCH   1   8
BRANCH   1  12
ATOM     12  C   UNL     1       4.040   4.729  19.540  0.00  0.00    +0.000 A 
ATOM     13  C   UNL     1       3.058   5.696  19.371  0.00  0.00    +0.000 A 
ATOM     14  S   UNL     1       1.608   5.292  20.186  0.00  0.00    +0.000 S 
ATOM     15  C   UNL     1       2.187   3.769  20.661  0.00  0.00    +0.000 A 
ATOM     16  C   UNL     1       1.279   2.835  21.398  0.00  0.00    +0.000 C 
ATOM     17  C   UNL     1       3.503   3.573  20.273  0.00  0.00    +0.000 A 
ATOM     18  C   UNL     1       4.284   2.327  20.582  0.00  0.00    +0.000 C 
BRANCH  13  19
ATOM     19  N   UNL     1       3.085   6.871  18.707  0.00  0.00    +0.000 N 
ATOM     20  H   UNL     1       3.567   7.000  17.825  0.00  0.00    +0.000 HD
ATOM     21  H   UNL     1       2.994   7.727  19.249  0.00  0.00    +0.000 HD
ENDBRANCH  13  19
ENDBRANCH   1  12
TORSDOF 3
ENDMDL
MODEL 6
REMARK VINA RESULT:      -6.9      1.604      2.042
REMARK  Name = 
REMARK  8 active torsions:
REMARK  status: ('A' for Active; 'I' for Inactive)
REMARK    1  A    between atoms: C_1  and  C_2
REMARK    2  A    between atoms: C_4  and  C_5
REMARK    3  A    between atoms: C_6  and  C_7
REMARK    4  A    between atoms: C_7  and  C_9
REMARK    5  A    between atoms: C_10  and  N_11
REMARK    6  A    between atoms: C_13  and  C_14
REMARK    7  A    between atoms: C_15  and  C_16
REMARK    8  A    between atoms: C_17  and  C_18
REMARK                            x       y       z     vdW  Elec       q    Type
REMARK                         _______ _______ _______ _____ _____    ______ ____
ROOT
ATOM      1  C   UNL     1       5.692   4.680  19.034  0.00  0.00    +0.000 C 
ATOM      2  O   UNL     1       6.528   5.177  19.792  0.00  0.00    +0.000 OA
ENDROOT
BRANCH   1   8
ATOM      3  C   UNL     1       6.995   4.875  13.341  0.00  0.00    +0.000 C 
ATOM      4  C   UNL     1       6.647   4.847  14.802  0.00  0.00    +0.000 A 
ATOM      5  C   UNL     1       7.281   5.688  15.714  0.00  0.00    +0.000 A 
ATOM      6  C   UNL     1       6.973   5.643  17.086  0.00  0.00    +0.000 A 
ATOM      7  C   UNL     1       7.702   6.614  17.984  0.00  0.00    +0.000 C 
ATOM      8  C   UNL     1       6.002   4.717  17.564  0.00  0.00    +0.000 A 
ATOM      9  C   UNL     1       5.310   3.910  16.626  0.00  0.00    +0.000 A 
ATOM     10  C   UNL     1       4.195   2.952  16.965  0.00  0.00    +0.000 C 
ATOM     11  C   UNL     1       5.676   3.961  15.267  0.00  0.00    +0.000 A 
ENDBRANCH   1   8
BRANCH   1  12
ATOM     12  C   UNL     1       4.430   4.120  19.571  0.00  0.00    +0.000 A 
ATOM     13  C   UNL     1       4.246   2.846  20.093  0.00  0.00    +0.000 A 
ATOM     14  S   UNL     1       2.612   2.546  20.505  0.00  0.00    +0.000 S 
ATOM     15  C   UNL     1       2.130   4.133  20.142  0.00  0.00    +0.000 A 
ATOM     16  C   UNL     1       0.713   4.546  20.390  0.00  0.00    +0.000 C 
ATOM     17  C   UNL     1       3.178   4.888  19.639  0.00  0.00    +0.000 A 
ATOM     18  C   UNL     1       3.037   6.320  19.206  0.00  0.00    +0.000 C 
BRANCH  13  19
ATOM     19  N   UNL     1       5.126   1.841  20.293  0.00  0.00    +0.000 N 
ATOM     20  H   UNL     1       6.026   1.790  19.830  0.00  0.00    +0.000 HD
ATOM     21  H   UNL     1       4.759   0.934  20.567  0.00  0.00    +0.000 HD
ENDBRANCH  13  19
ENDBRANCH   1  12
TORSDOF 3
ENDMDL
MODEL 7
REMARK VINA RESULT:      -6.9      2.323      3.512
REMARK  Name = 
REMARK  8 active torsions:
REMARK  status: ('A' for Active; 'I' for Inactive)
REMARK    1  A    between atoms: C_1  and  C_2
REMARK    2  A    between atoms: C_4  and  C_5
REMARK    3  A    between atoms: C_6  and  C_7
REMARK    4  A    between atoms: C_7  and  C_9
REMARK    5  A    between atoms: C_10  and  N_11
REMARK    6  A    between atoms: C_13  and  C_14
REMARK    7  A    between atoms: C_15  and  C_16
REMARK    8  A    between atoms: C_17  and  C_18
REMARK                            x       y       z     vdW  Elec       q    Type
REMARK                         _______ _______ _______ _____ _____    ______ ____
ROOT
ATOM      1  C   UNL     1       4.454   4.590  17.118  0.00  0.00    +0.000 C 
ATOM      2  O   UNL     1       4.273   4.169  15.974  0.00  0.00    +0.000 OA
ENDROOT
BRANCH   1   8
ATOM      3  C   UNL     1       8.129   9.084  17.784  0.00  0.00    +0.000 C 
ATOM      4  C   UNL     1       7.180   7.937  17.589  0.00  0.00    +0.000 A 
ATOM      5  C   UNL     1       5.799   8.124  17.634  0.00  0.00    +0.000 A 
ATOM      6  C   UNL     1       4.911   7.044  17.477  0.00  0.00    +0.000 A 
ATOM      7  C   UNL     1       3.434   7.361  17.521  0.00  0.00    +0.000 C 
ATOM      8  C   UNL     1       5.420   5.730  17.277  0.00  0.00    +0.000 A 
ATOM      9  C   UNL     1       6.823   5.553  17.163  0.00  0.00    +0.000 A 
ATOM     10  C   UNL     1       7.507   4.243  16.860  0.00  0.00    +0.000 C 
ATOM     11  C   UNL     1       7.677   6.654  17.364  0.00  0.00    +0.000 A 
ENDBRANCH   1   8
BRANCH   1  12
ATOM     12  C   UNL     1       3.772   3.953  18.269  0.00  0.00    +0.000 A 
ATOM     13  C   UNL     1       4.381   3.304  19.336  0.00  0.00    +0.000 A 
ATOM     14  S   UNL     1       3.240   2.606  20.403  0.00  0.00    +0.000 S 
ATOM     15  C   UNL     1       1.915   3.260  19.567  0.00  0.00    +0.000 A 
ATOM     16  C   UNL     1       0.533   3.050  20.100  0.00  0.00    +0.000 C 
ATOM     17  C   UNL     1       2.311   3.954  18.435  0.00  0.00    +0.000 A 
ATOM     18  C   UNL     1       1.351   4.616  17.488  0.00  0.00    +0.000 C 
BRANCH  13  19
ATOM     19  N   UNL     1       5.687   3.131  19.631  0.00  0.00    +0.000 N 
ATOM     20  H   UNL     1       6.432   3.270  18.958  0.00  0.00    +0.000 HD
ATOM     21  H   UNL     1       5.926   2.474  20.370  0.00  0.00    +0.000 HD
ENDBRANCH  13  19
ENDBRANCH   1  12
TORSDOF 3
ENDMDL
MODEL 8
REMARK VINA RESULT:      -6.9      6.214      8.349
REMARK  Name = 
REMARK  8 active torsions:
REMARK  status: ('A' for Active; 'I' for Inactive)
REMARK    1  A    between atoms: C_1  and  C_2
REMARK    2  A    between atoms: C_4  and  C_5
REMARK    3  A    between atoms: C_6  and  C_7
REMARK    4  A    between atoms: C_7  and  C_9
REMARK    5  A    between atoms: C_10  and  N_11
REMARK    6  A    between atoms: C_13  and  C_14
REMARK    7  A    between atoms: C_15  and  C_16
REMARK    8  A    between atoms: C_17  and  C_18
REMARK                            x       y       z     vdW  Elec       q    Type
REMARK                         _______ _______ _______ _____ _____    ______ ____
ROOT
ATOM      1  C   UNL     1       0.495  10.879  19.846  0.00  0.00    +0.000 C 
ATOM      2  O   UNL     1       1.347  11.761  19.974  0.00  0.00    +0.000 OA
ENDROOT
BRANCH   1   8
ATOM      3  C   UNL     1       2.364   5.376  20.445  0.00  0.00    +0.000 C 
ATOM      4  C   UNL     1       1.865   6.782  20.274  0.00  0.00    +0.000 A 
ATOM      5  C   UNL     1       2.169   7.525  19.135  0.00  0.00    +0.000 A 
ATOM      6  C   UNL     1       1.724   8.852  18.988  0.00  0.00    +0.000 A 
ATOM      7  C   UNL     1       2.090   9.559  17.704  0.00  0.00    +0.000 C 
ATOM      8  C   UNL     1       0.955   9.460  20.020  0.00  0.00    +0.000 A 
ATOM      9  C   UNL     1       0.590   8.680  21.147  0.00  0.00    +0.000 A 
ATOM     10  C   UNL     1      -0.294   9.152  22.275  0.00  0.00    +0.000 C 
ATOM     11  C   UNL     1       1.088   7.370  21.272  0.00  0.00    +0.000 A 
ENDBRANCH   1   8
BRANCH   1  12
ATOM     12  C   UNL     1      -0.901  11.231  19.493  0.00  0.00    +0.000 A 
ATOM     13  C   UNL     1      -1.586  10.847  18.346  0.00  0.00    +0.000 A 
ATOM     14  S   UNL     1      -3.142  11.553  18.258  0.00  0.00    +0.000 S 
ATOM     15  C   UNL     1      -3.012  12.265  19.794  0.00  0.00    +0.000 A 
ATOM     16  C   UNL     1      -4.177  13.013  20.359  0.00  0.00    +0.000 C 
ATOM     17  C   UNL     1      -1.768  12.040  20.362  0.00  0.00    +0.000 A 
ATOM     18  C   UNL     1      -1.359  12.575  21.706  0.00  0.00    +0.000 C 
BRANCH  13  19
ATOM     19  N   UNL     1      -1.210  10.052  17.322  0.00  0.00    +0.000 N 
ATOM     20  H   UNL     1      -0.473   9.361  17.396  0.00  0.00    +0.000 HD
ATOM     21  H   UNL     1      -1.349  10.397  16.376  0.00  0.00    +0.000 HD
ENDBRANCH  13  19
ENDBRANCH   1  12
TORSDOF 3
ENDMDL
MODEL 9
REMARK VINA RESULT:      -6.9      6.247      8.432
REMARK  Name = 
REMARK  8 active torsions:
REMARK  status: ('A' for Active; 'I' for Inactive)
REMARK    1  A    between atoms: C_1  and  C_2
REMARK    2  A    between atoms: C_4  and  C_5
REMARK    3  A    between atoms: C_6  and  C_7
REMARK    4  A    between atoms: C_7  and  C_9
REMARK    5  A    between atoms: C_10  and  N_11
REMARK    6  A    between atoms: C_13  and  C_14
REMARK    7  A    between atoms: C_15  and  C_16
REMARK    8  A    between atoms: C_17  and  C_18
REMARK                            x       y       z     vdW  Elec       q    Type
REMARK                         _______ _______ _______ _____ _____    ______ ____
ROOT
ATOM      1  C   UNL     1       0.436  10.903  19.889  0.00  0.00    +0.000 C 
ATOM      2  O   UNL     1       1.257  11.798  20.098  0.00  0.00    +0.000 OA
ENDROOT
BRANCH   1   8
ATOM      3  C   UNL     1       2.280   5.382  20.393  0.00  0.00    +0.000 C 
ATOM      4  C   UNL     1       1.825   6.808  20.279  0.00  0.00    +0.000 A 
ATOM      5  C   UNL     1       1.106   7.423  21.303  0.00  0.00    +0.000 A 
ATOM      6  C   UNL     1       0.658   8.751  21.185  0.00  0.00    +0.000 A 
ATOM      7  C   UNL     1      -0.093   9.328  22.363  0.00  0.00    +0.000 C 
ATOM      8  C   UNL     1       0.929   9.488  19.998  0.00  0.00    +0.000 A 
ATOM      9  C   UNL     1       1.718   8.884  18.986  0.00  0.00    +0.000 A 
ATOM     10  C   UNL     1       2.167   9.564  17.717  0.00  0.00    +0.000 C 
ATOM     11  C   UNL     1       2.115   7.541  19.129  0.00  0.00    +0.000 A 
ENDBRANCH   1   8
BRANCH   1  12
ATOM     12  C   UNL     1      -0.957  11.237  19.505  0.00  0.00    +0.000 A 
ATOM     13  C   UNL     1      -1.612  10.845  18.345  0.00  0.00    +0.000 A 
ATOM     14  S   UNL     1      -3.175  11.532  18.223  0.00  0.00    +0.000 S 
ATOM     15  C   UNL     1      -3.085  12.248  19.760  0.00  0.00    +0.000 A 
ATOM     16  C   UNL     1      -4.271  12.984  20.299  0.00  0.00    +0.000 C 
ATOM     17  C   UNL     1      -1.851  12.038  20.355  0.00  0.00    +0.000 A 
ATOM     18  C   UNL     1      -1.477  12.580  21.706  0.00  0.00    +0.000 C 
BRANCH  13  19
ATOM     19  N   UNL     1      -1.206  10.052  17.331  0.00  0.00    +0.000 N 
ATOM     20  H   UNL     1      -1.698   9.985  16.447  0.00  0.00    +0.000 HD
ATOM     21  H   UNL     1      -0.671   9.220  17.561  0.00  0.00    +0.000 HD
ENDBRANCH  13  19
ENDBRANCH   1  12
TORSDOF 3
ENDMDL
