MODEL 1
REMARK VINA RESULT:      -8.4      0.000      0.000
REMARK  Name = 
REMARK  7 active torsions:
REMARK  status: ('A' for Active; 'I' for Inactive)
REMARK    1  A    between atoms: C_2  and  C_3
REMARK    2  A    between atoms: C_2  and  O_12
REMARK    3  A    between atoms: C_3  and  N_4
REMARK    4  A    between atoms: C_5  and  C_7
REMARK    5  A    between atoms: O_12  and  C_13
REMARK    6  A    between atoms: C_13  and  C_14
REMARK    7  A    between atoms: C_14  and  C_16
REMARK                            x       y       z     vdW  Elec       q    Type
REMARK                         _______ _______ _______ _____ _____    ______ ____
ROOT
ATOM      1  O   UNL     1       7.769   6.705  16.464  0.00  0.00    +0.000 OA
ENDROOT
BRANCH   1   3
ATOM      2  O   UNL     1       7.941   6.573  18.748  0.00  0.00    +0.000 OA
ATOM      3  C   UNL     1       7.761   7.217  17.722  0.00  0.00    +0.000 C 
BRANCH   3   4
ATOM      4  C   UNL     1       7.602   8.732  17.690  0.00  0.00    +0.000 C 
BRANCH   4   5
ATOM      5  N   UNL     1       8.658   9.408  18.417  0.00  0.00    +0.000 N 
ATOM      6  C   UNL     1       8.901  10.754  18.248  0.00  0.00    +0.000 C 
ATOM      7  O   UNL     1       8.219  11.447  17.494  0.00  0.00    +0.000 OA
ATOM      8  H   UNL     1       9.306   8.878  18.990  0.00  0.00    +0.000 HD
BRANCH   6   9
ATOM      9  C   UNL     1      10.007  11.279  19.017  0.00  0.00    +0.000 A 
ATOM     10  C   UNL     1      11.324  11.498  18.665  0.00  0.00    +0.000 A 
ATOM     11  C   UNL     1      11.972  12.028  19.806  0.00  0.00    +0.000 A 
ATOM     12  C   UNL     1      11.012  12.101  20.787  0.00  0.00    +0.000 A 
ATOM     13  O   UNL     1       9.817  11.653  20.323  0.00  0.00    +0.000 OA
ENDBRANCH   6   9
ENDBRANCH   4   5
ENDBRANCH   3   4
ENDBRANCH   1   3
BRANCH   1  14
ATOM     14  C   UNL     1       6.965   5.545  16.222  0.00  0.00    +0.000 C 
BRANCH  14  15
ATOM     15  C   UNL     1       5.493   5.936  16.130  0.00  0.00    +0.000 C 
ATOM     16  O   UNL     1       5.099   6.849  15.404  0.00  0.00    +0.000 OA
BRANCH  15  17
ATOM     17  C   UNL     1       4.499   5.187  16.961  0.00  0.00    +0.000 A 
ATOM     18  C   UNL     1       4.211   3.860  16.621  0.00  0.00    +0.000 A 
ATOM     19  C   UNL     1       3.299   3.116  17.373  0.00  0.00    +0.000 A 
ATOM     20  C   UNL     1       2.662   3.680  18.484  0.00  0.00    +0.000 A 
ATOM     21  C   UNL     1       2.921   5.022  18.818  0.00  0.00    +0.000 A 
ATOM     22  C   UNL     1       3.850   5.762  18.060  0.00  0.00    +0.000 A 
ATOM     23  C   UNL     1       2.271   5.675  20.017  0.00  0.00    +0.000 C 
ATOM     24  C   UNL     1       1.053   4.916  20.539  0.00  0.00    +0.000 C 
ATOM     25  C   UNL     1       1.357   3.428  20.644  0.00  0.00    +0.000 C 
ATOM     26  C   UNL     1       1.668   2.852  19.263  0.00  0.00    +0.000 C 
ENDBRANCH  15  17
ENDBRANCH  14  15
ENDBRANCH   1  14
TORSDOF 7
ENDMDL
MODEL 2
REMARK VINA RESULT:      -8.3      0.607      1.466
REMARK  Name = 
REMARK  7 active torsions:
REMARK  status: ('A' for Active; 'I' for Inactive)
REMARK    1  A    between atoms: C_2  and  C_3
REMARK    2  A    between atoms: C_2  and  O_12
REMARK    3  A    between atoms: C_3  and  N_4
REMARK    4  A    between atoms: C_5  and  C_7
REMARK    5  A    between atoms: O_12  and  C_13
REMARK    6  A    between atoms: C_13  and  C_14
REMARK    7  A    between atoms: C_14  and  C_16
REMARK                            x       y       z     vdW  Elec       q    Type
REMARK                         _______ _______ _______ _____ _____    ______ ____
ROOT
ATOM      1  O   UNL     1       7.568   6.709  16.516  0.00  0.00    +0.000 OA
ENDROOT
BRANCH   1   3
ATOM      2  O   UNL     1       8.065   6.663  18.756  0.00  0.00    +0.000 OA
ATOM      3  C   UNL     1       7.765   7.272  17.737  0.00  0.00    +0.000 C 
BRANCH   3   4
ATOM      4  C   UNL     1       7.668   8.790  17.655  0.00  0.00    +0.000 C 
BRANCH   4   5
ATOM      5  N   UNL     1       8.740   9.446  18.377  0.00  0.00    +0.000 N 
ATOM      6  C   UNL     1       8.966  10.801  18.256  0.00  0.00    +0.000 C 
ATOM      7  O   UNL     1       8.254  11.517  17.553  0.00  0.00    +0.000 OA
ATOM      8  H   UNL     1       9.411   8.901  18.907  0.00  0.00    +0.000 HD
BRANCH   6   9
ATOM      9  C   UNL     1      10.091  11.305  19.011  0.00  0.00    +0.000 A 
ATOM     10  C   UNL     1      11.409  11.493  18.646  0.00  0.00    +0.000 A 
ATOM     11  C   UNL     1      12.080  12.014  19.777  0.00  0.00    +0.000 A 
ATOM     12  C   UNL     1      11.131  12.115  20.767  0.00  0.00    +0.000 A 
ATOM     13  O   UNL     1       9.921  11.691  20.317  0.00  0.00    +0.000 OA
ENDBRANCH   6   9
ENDBRANCH   4   5
ENDBRANCH   3   4
ENDBRANCH   1   3
BRANCH   1  14
ATOM     14  C   UNL     1       7.092   5.359  16.486  0.00  0.00    +0.000 C 
BRANCH  14  15
ATOM     15  C   UNL     1       5.619   5.330  16.092  0.00  0.00    +0.000 C 
ATOM     16  O   UNL     1       5.249   5.410  14.920  0.00  0.00    +0.000 OA
BRANCH  15  17
ATOM     17  C   UNL     1       4.590   5.209  17.172  0.00  0.00    +0.000 A 
ATOM     18  C   UNL     1       4.124   6.378  17.783  0.00  0.00    +0.000 A 
ATOM     19  C   UNL     1       3.156   6.316  18.788  0.00  0.00    +0.000 A 
ATOM     20  C   UNL     1       2.629   5.086  19.197  0.00  0.00    +0.000 A 
ATOM     21  C   UNL     1       3.112   3.901  18.612  0.00  0.00    +0.000 A 
ATOM     22  C   UNL     1       4.081   3.973  17.592  0.00  0.00    +0.000 A 
ATOM     23  C   UNL     1       2.567   2.548  19.006  0.00  0.00    +0.000 C 
ATOM     24  C   UNL     1       1.801   2.561  20.327  0.00  0.00    +0.000 C 
ATOM     25  C   UNL     1       0.832   3.735  20.371  0.00  0.00    +0.000 C 
ATOM     26  C   UNL     1       1.597   5.056  20.299  0.00  0.00    +0.000 C 
ENDBRANCH  15  17
ENDBRANCH  14  15
ENDBRANCH   1  14
TORSDOF 7
ENDMDL
MODEL 3
REMARK VINA RESULT:      -8.1      4.604      6.664
REMARK  Name = 
REMARK  7 active torsions:
REMARK  status: ('A' for Active; 'I' for Inactive)
REMARK    1  A    between atoms: C_2  and  C_3
REMARK    2  A    between atoms: C_2  and  O_12
REMARK    3  A    between atoms: C_3  and  N_4
REMARK    4  A    between atoms: C_5  and  C_7
REMARK    5  A    between atoms: O_12  and  C_13
REMARK    6  A    between atoms: C_13  and  C_14
REMARK    7  A    between atoms: C_14  and  C_16
REMARK                            x       y       z     vdW  Elec       q    Type
REMARK                         _______ _______ _______ _____ _____    ______ ____
ROOT
ATOM      1  O   UNL     1       3.759   4.829  19.635  0.00  0.00    +0.000 OA
ENDROOT
BRANCH   1   3
ATOM      2  O   UNL     1       4.389   2.631  19.446  0.00  0.00    +0.000 OA
ATOM      3  C   UNL     1       4.634   3.827  19.358  0.00  0.00    +0.000 C 
BRANCH   3   4
ATOM      4  C   UNL     1       5.943   4.387  18.816  0.00  0.00    +0.000 C 
BRANCH   4   5
ATOM      5  N   UNL     1       6.053   4.225  17.379  0.00  0.00    +0.000 N 
ATOM      6  C   UNL     1       6.932   4.982  16.635  0.00  0.00    +0.000 C 
ATOM      7  O   UNL     1       7.680   5.809  17.157  0.00  0.00    +0.000 OA
ATOM      8  H   UNL     1       5.409   3.621  16.880  0.00  0.00    +0.000 HD
BRANCH   6   9
ATOM      9  C   UNL     1       6.906   4.730  15.212  0.00  0.00    +0.000 A 
ATOM     10  C   UNL     1       6.126   3.870  14.464  0.00  0.00    +0.000 A 
ATOM     11  C   UNL     1       6.516   4.028  13.114  0.00  0.00    +0.000 A 
ATOM     12  C   UNL     1       7.512   4.977  13.116  0.00  0.00    +0.000 A 
ATOM     13  O   UNL     1       7.756   5.412  14.379  0.00  0.00    +0.000 OA
ENDBRANCH   6   9
ENDBRANCH   4   5
ENDBRANCH   3   4
ENDBRANCH   1   3
BRANCH   1  14
ATOM     14  C   UNL     1       2.835   5.197  18.605  0.00  0.00    +0.000 C 
BRANCH  14  15
ATOM     15  C   UNL     1       3.144   6.602  18.100  0.00  0.00    +0.000 C 
ATOM     16  O   UNL     1       4.020   6.823  17.263  0.00  0.00    +0.000 OA
BRANCH  15  17
ATOM     17  C   UNL     1       2.358   7.751  18.651  0.00  0.00    +0.000 A 
ATOM     18  C   UNL     1       2.121   8.855  17.823  0.00  0.00    +0.000 A 
ATOM     19  C   UNL     1       1.383   9.945  18.289  0.00  0.00    +0.000 A 
ATOM     20  C   UNL     1       0.860   9.952  19.587  0.00  0.00    +0.000 A 
ATOM     21  C   UNL     1       1.118   8.862  20.438  0.00  0.00    +0.000 A 
ATOM     22  C   UNL     1       1.854   7.761  19.958  0.00  0.00    +0.000 A 
ATOM     23  C   UNL     1       0.564   8.812  21.843  0.00  0.00    +0.000 C 
ATOM     24  C   UNL     1       0.095  10.170  22.363  0.00  0.00    +0.000 C 
ATOM     25  C   UNL     1      -0.750  10.879  21.313  0.00  0.00    +0.000 C 
ATOM     26  C   UNL     1       0.083  11.156  20.062  0.00  0.00    +0.000 C 
ENDBRANCH  15  17
ENDBRANCH  14  15
ENDBRANCH   1  14
TORSDOF 7
ENDMDL
MODEL 4
REMARK VINA RESULT:      -8.1      3.862      6.178
REMARK  Name = 
REMARK  7 active torsions:
REMARK  status: ('A' for Active; 'I' for Inactive)
REMARK    1  A    between atoms: C_2  and  C_3
REMARK    2  A    between atoms: C_2  and  O_12
REMARK    3  A    between atoms: C_3  and  N_4
REMARK    4  A    between atoms: C_5  and  C_7
REMARK    5  A    between atoms: O_12  and  C_13
REMARK    6  A    between atoms: C_13  and  C_14
REMARK    7  A    between atoms: C_14  and  C_16
REMARK                            x       y       z     vdW  Elec       q    Type
REMARK                         _______ _______ _______ _____ _____    ______ ____
ROOT
ATOM      1  O   UNL     1       6.306   4.105  18.419  0.00  0.00    +0.000 OA
ENDROOT
BRANCH   1   3
ATOM      2  O   UNL     1       7.106   5.456  20.093  0.00  0.00    +0.000 OA
ATOM      3  C   UNL     1       6.933   5.207  18.906  0.00  0.00    +0.000 C 
BRANCH   3   4
ATOM      4  C   UNL     1       7.496   6.056  17.772  0.00  0.00    +0.000 C 
BRANCH   4   5
ATOM      5  N   UNL     1       7.407   5.384  16.491  0.00  0.00    +0.000 N 
ATOM      6  C   UNL     1       6.425   5.701  15.578  0.00  0.00    +0.000 C 
ATOM      7  O   UNL     1       5.596   6.584  15.797  0.00  0.00    +0.000 OA
ATOM      8  H   UNL     1       8.008   4.593  16.284  0.00  0.00    +0.000 HD
BRANCH   6   9
ATOM      9  C   UNL     1       6.446   4.924  14.359  0.00  0.00    +0.000 A 
ATOM     10  C   UNL     1       7.392   4.850  13.355  0.00  0.00    +0.000 A 
ATOM     11  C   UNL     1       6.904   3.931  12.397  0.00  0.00    +0.000 A 
ATOM     12  C   UNL     1       5.689   3.497  12.873  0.00  0.00    +0.000 A 
ATOM     13  O   UNL     1       5.400   4.088  14.061  0.00  0.00    +0.000 OA
ENDBRANCH   6   9
ENDBRANCH   4   5
ENDBRANCH   3   4
ENDBRANCH   1   3
BRANCH   1  14
ATOM     14  C   UNL     1       5.035   3.770  18.986  0.00  0.00    +0.000 C 
BRANCH  14  15
ATOM     15  C   UNL     1       3.912   4.393  18.163  0.00  0.00    +0.000 C 
ATOM     16  O   UNL     1       3.613   3.984  17.041  0.00  0.00    +0.000 OA
BRANCH  15  17
ATOM     17  C   UNL     1       3.157   5.549  18.741  0.00  0.00    +0.000 A 
ATOM     18  C   UNL     1       2.726   5.467  20.070  0.00  0.00    +0.000 A 
ATOM     19  C   UNL     1       2.027   6.525  20.656  0.00  0.00    +0.000 A 
ATOM     20  C   UNL     1       1.753   7.689  19.930  0.00  0.00    +0.000 A 
ATOM     21  C   UNL     1       2.154   7.771  18.584  0.00  0.00    +0.000 A 
ATOM     22  C   UNL     1       2.867   6.704  18.003  0.00  0.00    +0.000 A 
ATOM     23  C   UNL     1       1.896   9.011  17.760  0.00  0.00    +0.000 C 
ATOM     24  C   UNL     1       0.839   9.934  18.361  0.00  0.00    +0.000 C 
ATOM     25  C   UNL     1       1.092  10.136  19.850  0.00  0.00    +0.000 C 
ATOM     26  C   UNL     1       0.979   8.805  20.591  0.00  0.00    +0.000 C 
ENDBRANCH  15  17
ENDBRANCH  14  15
ENDBRANCH   1  14
TORSDOF 7
ENDMDL
MODEL 5
REMARK VINA RESULT:      -7.9      3.792      6.192
REMARK  Name = 
REMARK  7 active torsions:
REMARK  status: ('A' for Active; 'I' for Inactive)
REMARK    1  A    between atoms: C_2  and  C_3
REMARK    2  A    between atoms: C_2  and  O_12
REMARK    3  A    between atoms: C_3  and  N_4
REMARK    4  A    between atoms: C_5  and  C_7
REMARK    5  A    between atoms: O_12  and  C_13
REMARK    6  A    between atoms: C_13  and  C_14
REMARK    7  A    between atoms: C_14  and  C_16
REMARK                            x       y       z     vdW  Elec       q    Type
REMARK                         _______ _______ _______ _____ _____    ______ ____
ROOT
ATOM      1  O   UNL     1       5.906   5.331  19.313  0.00  0.00    +0.000 OA
ENDROOT
BRANCH   1   3
ATOM      2  O   UNL     1       8.188   5.116  19.410  0.00  0.00    +0.000 OA
ATOM      3  C   UNL     1       7.178   5.619  18.935  0.00  0.00    +0.000 C 
BRANCH   3   4
ATOM      4  C   UNL     1       7.187   6.584  17.755  0.00  0.00    +0.000 C 
BRANCH   4   5
ATOM      5  N   UNL     1       7.283   5.892  16.484  0.00  0.00    +0.000 N 
ATOM      6  C   UNL     1       6.197   5.775  15.644  0.00  0.00    +0.000 C 
ATOM      7  O   UNL     1       5.106   6.273  15.921  0.00  0.00    +0.000 OA
ATOM      8  H   UNL     1       8.129   5.392  16.235  0.00  0.00    +0.000 HD
BRANCH   6   9
ATOM      9  C   UNL     1       6.438   5.031  14.429  0.00  0.00    +0.000 A 
ATOM     10  C   UNL     1       5.784   3.937  13.898  0.00  0.00    +0.000 A 
ATOM     11  C   UNL     1       6.438   3.615  12.685  0.00  0.00    +0.000 A 
ATOM     12  C   UNL     1       7.452   4.533  12.546  0.00  0.00    +0.000 A 
ATOM     13  O   UNL     1       7.463   5.398  13.593  0.00  0.00    +0.000 OA
ENDBRANCH   6   9
ENDBRANCH   4   5
ENDBRANCH   3   4
ENDBRANCH   1   3
BRANCH   1  14
ATOM     14  C   UNL     1       5.307   4.155  18.758  0.00  0.00    +0.000 C 
BRANCH  14  15
ATOM     15  C   UNL     1       3.845   4.059  19.183  0.00  0.00    +0.000 C 
ATOM     16  O   UNL     1       3.270   2.980  19.324  0.00  0.00    +0.000 OA
BRANCH  15  17
ATOM     17  C   UNL     1       3.086   5.326  19.429  0.00  0.00    +0.000 A 
ATOM     18  C   UNL     1       2.402   5.468  20.642  0.00  0.00    +0.000 A 
ATOM     19  C   UNL     1       1.689   6.636  20.921  0.00  0.00    +0.000 A 
ATOM     20  C   UNL     1       1.651   7.688  19.999  0.00  0.00    +0.000 A 
ATOM     21  C   UNL     1       2.310   7.544  18.764  0.00  0.00    +0.000 A 
ATOM     22  C   UNL     1       3.035   6.367  18.494  0.00  0.00    +0.000 A 
ATOM     23  C   UNL     1       2.313   8.655  17.739  0.00  0.00    +0.000 C 
ATOM     24  C   UNL     1       1.236   9.710  17.980  0.00  0.00    +0.000 C 
ATOM     25  C   UNL     1       1.213  10.124  19.445  0.00  0.00    +0.000 C 
ATOM     26  C   UNL     1       0.855   8.929  20.327  0.00  0.00    +0.000 C 
ENDBRANCH  15  17
ENDBRANCH  14  15
ENDBRANCH   1  14
TORSDOF 7
ENDMDL
MODEL 6
REMARK VINA RESULT:      -7.8      4.397      6.834
REMARK  Name = 
REMARK  7 active torsions:
REMARK  status: ('A' for Active; 'I' for Inactive)
REMARK    1  A    between atoms: C_2  and  C_3
REMARK    2  A    between atoms: C_2  and  O_12
REMARK    3  A    between atoms: C_3  and  N_4
REMARK    4  A    between atoms: C_5  and  C_7
REMARK    5  A    between atoms: O_12  and  C_13
REMARK    6  A    between atoms: C_13  and  C_14
REMARK    7  A    between atoms: C_14  and  C_16
REMARK                            x       y       z     vdW  Elec       q    Type
REMARK                         _______ _______ _______ _____ _____    ______ ____
ROOT
ATOM      1  O   UNL     1       1.465   2.611  19.572  0.00  0.00    +0.000 OA
ENDROOT
BRANCH   1   3
ATOM      2  O   UNL     1       1.119   3.384  17.439  0.00  0.00    +0.000 OA
ATOM      3  C   UNL     1       1.763   2.732  18.252  0.00  0.00    +0.000 C 
BRANCH   3   4
ATOM      4  C   UNL     1       3.077   2.032  17.927  0.00  0.00    +0.000 C 
BRANCH   4   5
ATOM      5  N   UNL     1       4.228   2.808  18.346  0.00  0.00    +0.000 N 
ATOM      6  C   UNL     1       4.744   3.813  17.557  0.00  0.00    +0.000 C 
ATOM      7  O   UNL     1       4.238   4.115  16.477  0.00  0.00    +0.000 OA
ATOM      8  H   UNL     1       4.738   2.556  19.185  0.00  0.00    +0.000 HD
BRANCH   6   9
ATOM      9  C   UNL     1       5.911   4.476  18.094  0.00  0.00    +0.000 A 
ATOM     10  C   UNL     1       7.185   4.614  17.578  0.00  0.00    +0.000 A 
ATOM     11  C   UNL     1       7.932   5.357  18.521  0.00  0.00    +0.000 A 
ATOM     12  C   UNL     1       7.070   5.631  19.557  0.00  0.00    +0.000 A 
ATOM     13  O   UNL     1       5.843   5.105  19.311  0.00  0.00    +0.000 OA
ENDBRANCH   6   9
ENDBRANCH   4   5
ENDBRANCH   3   4
ENDBRANCH   1   3
BRANCH   1  14
ATOM     14  C   UNL     1       0.981   3.778  20.245  0.00  0.00    +0.000 C 
BRANCH  14  15
ATOM     15  C   UNL     1       2.123   4.761  20.480  0.00  0.00    +0.000 C 
ATOM     16  O   UNL     1       3.147   4.447  21.089  0.00  0.00    +0.000 OA
BRANCH  15  17
ATOM     17  C   UNL     1       1.988   6.157  19.957  0.00  0.00    +0.000 A 
ATOM     18  C   UNL     1       2.356   6.411  18.631  0.00  0.00    +0.000 A 
ATOM     19  C   UNL     1       2.236   7.695  18.095  0.00  0.00    +0.000 A 
ATOM     20  C   UNL     1       1.739   8.749  18.870  0.00  0.00    +0.000 A 
ATOM     21  C   UNL     1       1.394   8.513  20.213  0.00  0.00    +0.000 A 
ATOM     22  C   UNL     1       1.508   7.212  20.743  0.00  0.00    +0.000 A 
ATOM     23  C   UNL     1       0.838   9.612  21.088  0.00  0.00    +0.000 C 
ATOM     24  C   UNL     1       1.083  11.014  20.536  0.00  0.00    +0.000 C 
ATOM     25  C   UNL     1       0.736  11.071  19.054  0.00  0.00    +0.000 C 
ATOM     26  C   UNL     1       1.641  10.128  18.262  0.00  0.00    +0.000 C 
ENDBRANCH  15  17
ENDBRANCH  14  15
ENDBRANCH   1  14
TORSDOF 7
ENDMDL
MODEL 7
REMARK VINA RESULT:      -7.8      4.155      7.032
REMARK  Name = 
REMARK  7 active torsions:
REMARK  status: ('A' for Active; 'I' for Inactive)
REMARK    1  A    between atoms: C_2  and  C_3
REMARK    2  A    between atoms: C_2  and  O_12
REMARK    3  A    between atoms: C_3  and  N_4
REMARK    4  A    between atoms: C_5  and  C_7
REMARK    5  A    between atoms: O_12  and  C_13
REMARK    6  A    between atoms: C_13  and  C_14
REMARK    7  A    between atoms: C_14  and  C_16
REMARK                            x       y       z     vdW  Elec       q    Type
REMARK                         _______ _______ _______ _____ _____    ______ ____
ROOT
ATOM      1  O   UNL     1       1.456   3.435  19.441  0.00  0.00    +0.000 OA
ENDROOT
BRANCH   1   3
ATOM      2  O   UNL     1       1.493   2.273  21.419  0.00  0.00    +0.000 OA
ATOM      3  C   UNL     1       1.675   3.298  20.775  0.00  0.00    +0.000 C 
BRANCH   3   4
ATOM      4  C   UNL     1       2.283   4.568  21.357  0.00  0.00    +0.000 C 
BRANCH   4   5
ATOM      5  N   UNL     1       2.461   5.599  20.353  0.00  0.00    +0.000 N 
ATOM      6  C   UNL     1       1.795   6.803  20.433  0.00  0.00    +0.000 C 
ATOM      7  O   UNL     1       1.042   7.069  21.370  0.00  0.00    +0.000 OA
ATOM      8  H   UNL     1       3.002   5.413  19.517  0.00  0.00    +0.000 HD
BRANCH   6   9
ATOM      9  C   UNL     1       2.050   7.718  19.343  0.00  0.00    +0.000 A 
ATOM     10  C   UNL     1       1.484   8.942  19.044  0.00  0.00    +0.000 A 
ATOM     11  C   UNL     1       2.106   9.406  17.862  0.00  0.00    +0.000 A 
ATOM     12  C   UNL     1       3.018   8.438  17.509  0.00  0.00    +0.000 A 
ATOM     13  O   UNL     1       2.996   7.412  18.398  0.00  0.00    +0.000 OA
ENDBRANCH   6   9
ENDBRANCH   4   5
ENDBRANCH   3   4
ENDBRANCH   1   3
BRANCH   1  14
ATOM     14  C   UNL     1       1.715   2.296  18.613  0.00  0.00    +0.000 C 
BRANCH  14  15
ATOM     15  C   UNL     1       3.217   2.066  18.491  0.00  0.00    +0.000 C 
ATOM     16  O   UNL     1       3.740   0.980  18.743  0.00  0.00    +0.000 OA
BRANCH  15  17
ATOM     17  C   UNL     1       4.084   3.207  18.055  0.00  0.00    +0.000 A 
ATOM     18  C   UNL     1       3.906   3.725  16.767  0.00  0.00    +0.000 A 
ATOM     19  C   UNL     1       4.682   4.796  16.320  0.00  0.00    +0.000 A 
ATOM     20  C   UNL     1       5.646   5.376  17.152  0.00  0.00    +0.000 A 
ATOM     21  C   UNL     1       5.855   4.844  18.438  0.00  0.00    +0.000 A 
ATOM     22  C   UNL     1       5.061   3.770  18.885  0.00  0.00    +0.000 A 
ATOM     23  C   UNL     1       6.873   5.442  19.382  0.00  0.00    +0.000 C 
ATOM     24  C   UNL     1       7.891   6.345  18.689  0.00  0.00    +0.000 C 
ATOM     25  C   UNL     1       7.191   7.302  17.733  0.00  0.00    +0.000 C 
ATOM     26  C   UNL     1       6.480   6.521  16.628  0.00  0.00    +0.000 C 
ENDBRANCH  15  17
ENDBRANCH  14  15
ENDBRANCH   1  14
TORSDOF 7
ENDMDL
MODEL 8
REMARK VINA RESULT:      -7.7      4.202      6.550
REMARK  Name = 
REMARK  7 active torsions:
REMARK  status: ('A' for Active; 'I' for Inactive)
REMARK    1  A    between atoms: C_2  and  C_3
REMARK    2  A    between atoms: C_2  and  O_12
REMARK    3  A    between atoms: C_3  and  N_4
REMARK    4  A    between atoms: C_5  and  C_7
REMARK    5  A    between atoms: O_12  and  C_13
REMARK    6  A    between atoms: C_13  and  C_14
REMARK    7  A    between atoms: C_14  and  C_16
REMARK                            x       y       z     vdW  Elec       q    Type
REMARK                         _______ _______ _______ _____ _____    ______ ____
ROOT
ATOM      1  O   UNL     1       5.472   5.375  19.244  0.00  0.00    +0.000 OA
ENDROOT
BRANCH   1   3
ATOM      2  O   UNL     1       6.156   6.967  17.740  0.00  0.00    +0.000 OA
ATOM      3  C   UNL     1       6.193   5.827  18.185  0.00  0.00    +0.000 C 
BRANCH   3   4
ATOM      4  C   UNL     1       7.145   4.750  17.679  0.00  0.00    +0.000 C 
BRANCH   4   5
ATOM      5  N   UNL     1       7.320   4.808  16.241  0.00  0.00    +0.000 N 
ATOM      6  C   UNL     1       6.426   4.206  15.382  0.00  0.00    +0.000 C 
ATOM      7  O   UNL     1       5.428   3.615  15.793  0.00  0.00    +0.000 OA
ATOM      8  H   UNL     1       8.162   5.208  15.842  0.00  0.00    +0.000 HD
BRANCH   6   9
ATOM      9  C   UNL     1       6.751   4.323  13.978  0.00  0.00    +0.000 A 
ATOM     10  C   UNL     1       6.327   3.583  12.891  0.00  0.00    +0.000 A 
ATOM     11  C   UNL     1       6.957   4.130  11.749  0.00  0.00    +0.000 A 
ATOM     12  C   UNL     1       7.728   5.173  12.206  0.00  0.00    +0.000 A 
ATOM     13  O   UNL     1       7.611   5.303  13.553  0.00  0.00    +0.000 OA
ENDBRANCH   6   9
ENDBRANCH   4   5
ENDBRANCH   3   4
ENDBRANCH   1   3
BRANCH   1  14
ATOM     14  C   UNL     1       4.684   4.195  19.046  0.00  0.00    +0.000 C 
BRANCH  14  15
ATOM     15  C   UNL     1       3.304   4.569  18.517  0.00  0.00    +0.000 C 
ATOM     16  O   UNL     1       2.715   3.889  17.675  0.00  0.00    +0.000 OA
BRANCH  15  17
ATOM     17  C   UNL     1       2.649   5.811  19.036  0.00  0.00    +0.000 A 
ATOM     18  C   UNL     1       2.078   5.779  20.314  0.00  0.00    +0.000 A 
ATOM     19  C   UNL     1       1.466   6.916  20.846  0.00  0.00    +0.000 A 
ATOM     20  C   UNL     1       1.419   8.110  20.116  0.00  0.00    +0.000 A 
ATOM     21  C   UNL     1       1.962   8.145  18.818  0.00  0.00    +0.000 A 
ATOM     22  C   UNL     1       2.586   6.996  18.293  0.00  0.00    +0.000 A 
ATOM     23  C   UNL     1       1.950   9.411  17.994  0.00  0.00    +0.000 C 
ATOM     24  C   UNL     1       0.966  10.461  18.503  0.00  0.00    +0.000 C 
ATOM     25  C   UNL     1       1.091  10.622  20.012  0.00  0.00    +0.000 C 
ATOM     26  C   UNL     1       0.732   9.314  20.715  0.00  0.00    +0.000 C 
ENDBRANCH  15  17
ENDBRANCH  14  15
ENDBRANCH   1  14
TORSDOF 7
ENDMDL
MODEL 9
REMARK VINA RESULT:      -7.7      4.938      7.337
REMARK  Name = 
REMARK  7 active torsions:
REMARK  status: ('A' for Active; 'I' for Inactive)
REMARK    1  A    between atoms: C_2  and  C_3
REMARK    2  A    between atoms: C_2  and  O_12
REMARK    3  A    between atoms: C_3  and  N_4
REMARK    4  A    between atoms: C_5  and  C_7
REMARK    5  A    between atoms: O_12  and  C_13
REMARK    6  A    between atoms: C_13  and  C_14
REMARK    7  A    between atoms: C_14  and  C_16
REMARK                            x       y       z     vdW  Elec       q    Type
REMARK                         _______ _______ _______ _____ _____    ______ ____
ROOT
ATOM      1  O   UNL     1       2.337   2.949  20.557  0.00  0.00    +0.000 OA
ENDROOT
BRANCH   1   3
ATOM      2  O   UNL     1       0.715   2.679  18.956  0.00  0.00    +0.000 OA
ATOM      3  C   UNL     1       1.830   2.442  19.403  0.00  0.00    +0.000 C 
BRANCH   3   4
ATOM      4  C   UNL     1       2.878   1.614  18.669  0.00  0.00    +0.000 C 
BRANCH   4   5
ATOM      5  N   UNL     1       3.964   2.430  18.163  0.00  0.00    +0.000 N 
ATOM      6  C   UNL     1       3.788   3.276  17.090  0.00  0.00    +0.000 C 
ATOM      7  O   UNL     1       2.699   3.397  16.530  0.00  0.00    +0.000 OA
ATOM      8  H   UNL     1       4.903   2.317  18.527  0.00  0.00    +0.000 HD
BRANCH   6   9
ATOM      9  C   UNL     1       4.969   4.002  16.680  0.00  0.00    +0.000 A 
ATOM     10  C   UNL     1       5.275   4.623  15.485  0.00  0.00    +0.000 A 
ATOM     11  C   UNL     1       6.567   5.181  15.630  0.00  0.00    +0.000 A 
ATOM     12  C   UNL     1       6.973   4.869  16.906  0.00  0.00    +0.000 A 
ATOM     13  O   UNL     1       6.015   4.157  17.554  0.00  0.00    +0.000 OA
ENDBRANCH   6   9
ENDBRANCH   4   5
ENDBRANCH   3   4
ENDBRANCH   1   3
BRANCH   1  14
ATOM     14  C   UNL     1       1.984   4.296  20.891  0.00  0.00    +0.000 C 
BRANCH  14  15
ATOM     15  C   UNL     1       2.910   5.274  20.176  0.00  0.00    +0.000 C 
ATOM     16  O   UNL     1       4.080   4.999  19.911  0.00  0.00    +0.000 OA
BRANCH  15  17
ATOM     17  C   UNL     1       2.374   6.618  19.791  0.00  0.00    +0.000 A 
ATOM     18  C   UNL     1       2.635   7.096  18.502  0.00  0.00    +0.000 A 
ATOM     19  C   UNL     1       2.146   8.339  18.093  0.00  0.00    +0.000 A 
ATOM     20  C   UNL     1       1.380   9.126  18.962  0.00  0.00    +0.000 A 
ATOM     21  C   UNL     1       1.137   8.669  20.270  0.00  0.00    +0.000 A 
ATOM     22  C   UNL     1       1.625   7.410  20.670  0.00  0.00    +0.000 A 
ATOM     23  C   UNL     1       0.303   9.472  21.242  0.00  0.00    +0.000 C 
ATOM     24  C   UNL     1       0.129  10.933  20.834  0.00  0.00    +0.000 C 
ATOM     25  C   UNL     1      -0.241  11.035  19.360  0.00  0.00    +0.000 C 
ATOM     26  C   UNL     1       0.883  10.472  18.492  0.00  0.00    +0.000 C 
ENDBRANCH  15  17
ENDBRANCH  14  15
ENDBRANCH   1  14
TORSDOF 7
ENDMDL
