MODEL 1
REMARK VINA RESULT:      -9.8      0.000      0.000
REMARK  Name = 
REMARK  8 active torsions:
REMARK  status: ('A' for Active; 'I' for Inactive)
REMARK    1  A    between atoms: C_2  and  C_4
REMARK    2  A    between atoms: C_4  and  O_5
REMARK    3  A    between atoms: O_5  and  C_6
REMARK    4  A    between atoms: C_10  and  C_11
REMARK    5  A    between atoms: C_11  and  C_12
REMARK    6  A    between atoms: C_17  and  C_18
REMARK    7  A    between atoms: C_20  and  C_21
REMARK    8  A    between atoms: C_27  and  C_28
REMARK                            x       y       z     vdW  Elec       q    Type
REMARK                         _______ _______ _______ _____ _____    ______ ____
ROOT
ATOM      1  C   UNL     1       2.146   4.611  19.729  0.00  0.00    +0.000 A 
ATOM      2  C   UNL     1       1.011   4.153  20.437  0.00  0.00    +0.000 A 
ATOM      3  C   UNL     1       0.297   3.040  20.002  0.00  0.00    +0.000 A 
ATOM      4  C   UNL     1       0.704   2.364  18.859  0.00  0.00    +0.000 A 
ATOM      5  C   UNL     1       1.832   2.796  18.154  0.00  0.00    +0.000 A 
ATOM      6  C   UNL     1       2.572   3.921  18.568  0.00  0.00    +0.000 A 
ENDROOT
BRANCH   6   7
ATOM      7  C   UNL     1       3.696   4.389  17.749  0.00  0.00    +0.000 A 
ATOM      8  N   UNL     1       3.974   4.117  16.492  0.00  0.00    +0.000 NA
ATOM      9  C   UNL     1       5.170   4.742  16.256  0.00  0.00    +0.000 A 
ATOM     10  C   UNL     1       5.542   5.479  17.367  0.00  0.00    +0.000 A 
ATOM     11  O   UNL     1       4.612   5.221  18.350  0.00  0.00    +0.000 OA
BRANCH   9  12
ATOM     12  C   UNL     1       5.877   4.600  14.998  0.00  0.00    +0.000 A 
ATOM     13  C   UNL     1       7.098   5.257  14.809  0.00  0.00    +0.000 A 
ATOM     14  C   UNL     1       7.800   5.113  13.610  0.00  0.00    +0.000 A 
ATOM     15  C   UNL     1       7.282   4.314  12.591  0.00  0.00    +0.000 A 
ATOM     16  C   UNL     1       6.057   3.672  12.760  0.00  0.00    +0.000 A 
ATOM     17  C   UNL     1       5.349   3.831  13.951  0.00  0.00    +0.000 A 
ENDBRANCH   9  12
BRANCH  10  18
ATOM     18  C   UNL     1       6.612   6.409  17.706  0.00  0.00    +0.000 A 
ATOM     19  C   UNL     1       7.569   6.069  18.678  0.00  0.00    +0.000 A 
ATOM     20  C   UNL     1       8.555   6.976  19.068  0.00  0.00    +0.000 A 
ATOM     21  C   UNL     1       8.623   8.227  18.464  0.00  0.00    +0.000 A 
ATOM     22  C   UNL     1       7.703   8.569  17.475  0.00  0.00    +0.000 A 
ATOM     23  C   UNL     1       6.702   7.667  17.099  0.00  0.00    +0.000 A 
ENDBRANCH  10  18
ENDBRANCH   6   7
BRANCH   1  24
ATOM     24  C   UNL     1       2.793   5.901  20.215  0.00  0.00    +0.000 C 
BRANCH  24  29
ATOM     25  C   UNL     1       0.691   9.112  19.927  0.00  0.00    +0.000 A 
ATOM     26  C   UNL     1       0.933   9.454  18.599  0.00  0.00    +0.000 A 
ATOM     27  C   UNL     1       1.820   8.704  17.827  0.00  0.00    +0.000 A 
ATOM     28  C   UNL     1       2.444   7.580  18.373  0.00  0.00    +0.000 A 
ATOM     29  C   UNL     1       2.181   7.191  19.696  0.00  0.00    +0.000 A 
ATOM     30  C   UNL     1       1.305   7.981  20.465  0.00  0.00    +0.000 A 
BRANCH  25  31
ATOM     31  O   UNL     1      -0.221   9.880  20.598  0.00  0.00    +0.000 OA
BRANCH  31  32
ATOM     32  C   UNL     1       0.296  10.695  21.664  0.00  0.00    +0.000 C 
BRANCH  32  34
ATOM     33  O   UNL     1      -1.525  10.766  23.252  0.00  0.00    +0.000 OA
ATOM     34  C   UNL     1      -0.366  10.328  22.976  0.00  0.00    +0.000 C 
ATOM     35  O   UNL     1       0.266   9.636  23.834  0.00  0.00    +0.000 OA
ENDBRANCH  32  34
ENDBRANCH  31  32
ENDBRANCH  25  31
ENDBRANCH  24  29
ENDBRANCH   1  24
TORSDOF 8
ENDMDL
MODEL 2
REMARK VINA RESULT:      -9.6      0.393      1.223
REMARK  Name = 
REMARK  8 active torsions:
REMARK  status: ('A' for Active; 'I' for Inactive)
REMARK    1  A    between atoms: C_2  and  C_4
REMARK    2  A    between atoms: C_4  and  O_5
REMARK    3  A    between atoms: O_5  and  C_6
REMARK    4  A    between atoms: C_10  and  C_11
REMARK    5  A    between atoms: C_11  and  C_12
REMARK    6  A    between atoms: C_17  and  C_18
REMARK    7  A    between atoms: C_20  and  C_21
REMARK    8  A    between atoms: C_27  and  C_28
REMARK                            x       y       z     vdW  Elec       q    Type
REMARK                         _______ _______ _______ _____ _____    ______ ____
ROOT
ATOM      1  C   UNL     1       2.161   4.418  19.769  0.00  0.00    +0.000 A 
ATOM      2  C   UNL     1       1.030   3.929  20.461  0.00  0.00    +0.000 A 
ATOM      3  C   UNL     1       0.306   2.845  19.972  0.00  0.00    +0.000 A 
ATOM      4  C   UNL     1       0.698   2.230  18.790  0.00  0.00    +0.000 A 
ATOM      5  C   UNL     1       1.823   2.693  18.100  0.00  0.00    +0.000 A 
ATOM      6  C   UNL     1       2.574   3.790  18.568  0.00  0.00    +0.000 A 
ENDROOT
BRANCH   6   7
ATOM      7  C   UNL     1       3.693   4.296  17.766  0.00  0.00    +0.000 A 
ATOM      8  N   UNL     1       3.993   4.041  16.509  0.00  0.00    +0.000 NA
ATOM      9  C   UNL     1       5.173   4.701  16.292  0.00  0.00    +0.000 A 
ATOM     10  C   UNL     1       5.511   5.440  17.413  0.00  0.00    +0.000 A 
ATOM     11  O   UNL     1       4.578   5.148  18.383  0.00  0.00    +0.000 OA
BRANCH   9  12
ATOM     12  C   UNL     1       5.898   4.589  15.042  0.00  0.00    +0.000 A 
ATOM     13  C   UNL     1       5.384   3.799  14.007  0.00  0.00    +0.000 A 
ATOM     14  C   UNL     1       6.062   3.697  12.790  0.00  0.00    +0.000 A 
ATOM     15  C   UNL     1       7.262   4.384  12.602  0.00  0.00    +0.000 A 
ATOM     16  C   UNL     1       7.795   5.157  13.632  0.00  0.00    +0.000 A 
ATOM     17  C   UNL     1       7.125   5.242  14.853  0.00  0.00    +0.000 A 
ENDBRANCH   9  12
BRANCH  10  18
ATOM     18  C   UNL     1       6.551   6.398  17.771  0.00  0.00    +0.000 A 
ATOM     19  C   UNL     1       6.607   7.654  17.144  0.00  0.00    +0.000 A 
ATOM     20  C   UNL     1       7.639   8.553  17.419  0.00  0.00    +0.000 A 
ATOM     21  C   UNL     1       8.611   8.224  18.357  0.00  0.00    +0.000 A 
ATOM     22  C   UNL     1       8.553   6.996  19.014  0.00  0.00    +0.000 A 
ATOM     23  C   UNL     1       7.530   6.087  18.721  0.00  0.00    +0.000 A 
ENDBRANCH  10  18
ENDBRANCH   6   7
BRANCH   1  24
ATOM     24  C   UNL     1       2.821   5.676  20.318  0.00  0.00    +0.000 C 
BRANCH  24  29
ATOM     25  C   UNL     1       0.763   8.921  20.111  0.00  0.00    +0.000 A 
ATOM     26  C   UNL     1       1.056   9.324  18.810  0.00  0.00    +0.000 A 
ATOM     27  C   UNL     1       1.963   8.601  18.035  0.00  0.00    +0.000 A 
ATOM     28  C   UNL     1       2.555   7.445  18.548  0.00  0.00    +0.000 A 
ATOM     29  C   UNL     1       2.241   6.996  19.841  0.00  0.00    +0.000 A 
ATOM     30  C   UNL     1       1.346   7.759  20.615  0.00  0.00    +0.000 A 
BRANCH  25  31
ATOM     31  O   UNL     1      -0.164   9.667  20.785  0.00  0.00    +0.000 OA
BRANCH  31  32
ATOM     32  C   UNL     1      -0.631   9.126  22.034  0.00  0.00    +0.000 C 
BRANCH  32  34
ATOM     33  O   UNL     1      -0.527  11.279  23.128  0.00  0.00    +0.000 OA
ATOM     34  C   UNL     1      -0.250  10.041  23.179  0.00  0.00    +0.000 C 
ATOM     35  O   UNL     1       0.410   9.585  24.164  0.00  0.00    +0.000 OA
ENDBRANCH  32  34
ENDBRANCH  31  32
ENDBRANCH  25  31
ENDBRANCH  24  29
ENDBRANCH   1  24
TORSDOF 8
ENDMDL
MODEL 3
REMARK VINA RESULT:      -9.4      0.872      1.363
REMARK  Name = 
REMARK  8 active torsions:
REMARK  status: ('A' for Active; 'I' for Inactive)
REMARK    1  A    between atoms: C_2  and  C_4
REMARK    2  A    between atoms: C_4  and  O_5
REMARK    3  A    between atoms: O_5  and  C_6
REMARK    4  A    between atoms: C_10  and  C_11
REMARK    5  A    between atoms: C_11  and  C_12
REMARK    6  A    between atoms: C_17  and  C_18
REMARK    7  A    between atoms: C_20  and  C_21
REMARK    8  A    between atoms: C_27  and  C_28
REMARK                            x       y       z     vdW  Elec       q    Type
REMARK                         _______ _______ _______ _____ _____    ______ ____
ROOT
ATOM      1  C   UNL     1       2.154   4.582  19.716  0.00  0.00    +0.000 A 
ATOM      2  C   UNL     1       1.014   4.129  20.420  0.00  0.00    +0.000 A 
ATOM      3  C   UNL     1       0.273   3.044  19.960  0.00  0.00    +0.000 A 
ATOM      4  C   UNL     1       0.657   2.391  18.796  0.00  0.00    +0.000 A 
ATOM      5  C   UNL     1       1.790   2.817  18.095  0.00  0.00    +0.000 A 
ATOM      6  C   UNL     1       2.557   3.914  18.534  0.00  0.00    +0.000 A 
ENDROOT
BRANCH   6   7
ATOM      7  C   UNL     1       3.685   4.380  17.719  0.00  0.00    +0.000 A 
ATOM      8  N   UNL     1       3.974   4.099  16.466  0.00  0.00    +0.000 NA
ATOM      9  C   UNL     1       5.168   4.726  16.234  0.00  0.00    +0.000 A 
ATOM     10  C   UNL     1       5.529   5.474  17.341  0.00  0.00    +0.000 A 
ATOM     11  O   UNL     1       4.593   5.221  18.320  0.00  0.00    +0.000 OA
BRANCH   9  12
ATOM     12  C   UNL     1       5.886   4.577  14.983  0.00  0.00    +0.000 A 
ATOM     13  C   UNL     1       5.354   3.773  13.968  0.00  0.00    +0.000 A 
ATOM     14  C   UNL     1       6.025   3.636  12.750  0.00  0.00    +0.000 A 
ATOM     15  C   UNL     1       7.234   4.299  12.542  0.00  0.00    +0.000 A 
ATOM     16  C   UNL     1       7.783   5.086  13.552  0.00  0.00    +0.000 A 
ATOM     17  C   UNL     1       7.121   5.207  14.774  0.00  0.00    +0.000 A 
ENDBRANCH   9  12
BRANCH  10  18
ATOM     18  C   UNL     1       6.593   6.412  17.681  0.00  0.00    +0.000 A 
ATOM     19  C   UNL     1       7.530   6.094  18.678  0.00  0.00    +0.000 A 
ATOM     20  C   UNL     1       8.509   7.009  19.067  0.00  0.00    +0.000 A 
ATOM     21  C   UNL     1       8.590   8.246  18.437  0.00  0.00    +0.000 A 
ATOM     22  C   UNL     1       7.690   8.566  17.422  0.00  0.00    +0.000 A 
ATOM     23  C   UNL     1       6.696   7.655  17.047  0.00  0.00    +0.000 A 
ENDBRANCH  10  18
ENDBRANCH   6   7
BRANCH   1  24
ATOM     24  C   UNL     1       2.832   5.844  20.231  0.00  0.00    +0.000 C 
BRANCH  24  29
ATOM     25  C   UNL     1       0.801   9.112  20.173  0.00  0.00    +0.000 A 
ATOM     26  C   UNL     1       0.951   9.479  18.837  0.00  0.00    +0.000 A 
ATOM     27  C   UNL     1       1.756   8.724  17.984  0.00  0.00    +0.000 A 
ATOM     28  C   UNL     1       2.389   7.573  18.457  0.00  0.00    +0.000 A 
ATOM     29  C   UNL     1       2.218   7.160  19.788  0.00  0.00    +0.000 A 
ATOM     30  C   UNL     1       1.424   7.954  20.638  0.00  0.00    +0.000 A 
BRANCH  25  31
ATOM     31  O   UNL     1      -0.036   9.887  20.928  0.00  0.00    +0.000 OA
BRANCH  31  32
ATOM     32  C   UNL     1      -0.318  11.202  20.417  0.00  0.00    +0.000 C 
BRANCH  32  34
ATOM     33  O   UNL     1       1.668  12.342  21.193  0.00  0.00    +0.000 OA
ATOM     34  C   UNL     1       0.403  12.251  21.239  0.00  0.00    +0.000 C 
ATOM     35  O   UNL     1      -0.253  12.998  22.030  0.00  0.00    +0.000 OA
ENDBRANCH  32  34
ENDBRANCH  31  32
ENDBRANCH  25  31
ENDBRANCH  24  29
ENDBRANCH   1  24
TORSDOF 8
ENDMDL
MODEL 4
REMARK VINA RESULT:      -9.2      3.693      6.910
REMARK  Name = 
REMARK  8 active torsions:
REMARK  status: ('A' for Active; 'I' for Inactive)
REMARK    1  A    between atoms: C_2  and  C_4
REMARK    2  A    between atoms: C_4  and  O_5
REMARK    3  A    between atoms: O_5  and  C_6
REMARK    4  A    between atoms: C_10  and  C_11
REMARK    5  A    between atoms: C_11  and  C_12
REMARK    6  A    between atoms: C_17  and  C_18
REMARK    7  A    between atoms: C_20  and  C_21
REMARK    8  A    between atoms: C_27  and  C_28
REMARK                            x       y       z     vdW  Elec       q    Type
REMARK                         _______ _______ _______ _____ _____    ______ ____
ROOT
ATOM      1  C   UNL     1       0.043  10.241  20.321  0.00  0.00    +0.000 A 
ATOM      2  C   UNL     1      -0.703  11.234  20.996  0.00  0.00    +0.000 A 
ATOM      3  C   UNL     1      -0.856  11.198  22.380  0.00  0.00    +0.000 A 
ATOM      4  C   UNL     1      -0.266  10.175  23.112  0.00  0.00    +0.000 A 
ATOM      5  C   UNL     1       0.487   9.192  22.461  0.00  0.00    +0.000 A 
ATOM      6  C   UNL     1       0.657   9.201  21.063  0.00  0.00    +0.000 A 
ENDROOT
BRANCH   6   7
ATOM      7  C   UNL     1       1.380   8.102  20.415  0.00  0.00    +0.000 A 
ATOM      8  N   UNL     1       2.271   8.153  19.447  0.00  0.00    +0.000 NA
ATOM      9  C   UNL     1       2.560   6.843  19.169  0.00  0.00    +0.000 A 
ATOM     10  C   UNL     1       1.903   6.017  20.064  0.00  0.00    +0.000 A 
ATOM     11  O   UNL     1       1.106   6.825  20.846  0.00  0.00    +0.000 OA
BRANCH   9  12
ATOM     12  C   UNL     1       3.437   6.464  18.079  0.00  0.00    +0.000 A 
ATOM     13  C   UNL     1       3.945   7.446  17.221  0.00  0.00    +0.000 A 
ATOM     14  C   UNL     1       4.806   7.096  16.177  0.00  0.00    +0.000 A 
ATOM     15  C   UNL     1       5.161   5.761  15.985  0.00  0.00    +0.000 A 
ATOM     16  C   UNL     1       4.645   4.772  16.820  0.00  0.00    +0.000 A 
ATOM     17  C   UNL     1       3.771   5.121  17.850  0.00  0.00    +0.000 A 
ENDBRANCH   9  12
BRANCH  10  18
ATOM     18  C   UNL     1       1.872   4.589  20.355  0.00  0.00    +0.000 A 
ATOM     19  C   UNL     1       1.138   3.712  19.538  0.00  0.00    +0.000 A 
ATOM     20  C   UNL     1       1.037   2.354  19.844  0.00  0.00    +0.000 A 
ATOM     21  C   UNL     1       1.701   1.844  20.954  0.00  0.00    +0.000 A 
ATOM     22  C   UNL     1       2.462   2.692  21.757  0.00  0.00    +0.000 A 
ATOM     23  C   UNL     1       2.545   4.057  21.461  0.00  0.00    +0.000 A 
ENDBRANCH  10  18
ENDBRANCH   6   7
BRANCH   1  24
ATOM     24  C   UNL     1       0.060  10.300  18.800  0.00  0.00    +0.000 C 
BRANCH  24  29
ATOM     25  C   UNL     1      -2.858   9.975  16.313  0.00  0.00    +0.000 A 
ATOM     26  C   UNL     1      -3.728  10.941  16.816  0.00  0.00    +0.000 A 
ATOM     27  C   UNL     1      -3.412  11.636  17.984  0.00  0.00    +0.000 A 
ATOM     28  C   UNL     1      -2.202  11.391  18.636  0.00  0.00    +0.000 A 
ATOM     29  C   UNL     1      -1.291  10.454  18.123  0.00  0.00    +0.000 A 
ATOM     30  C   UNL     1      -1.645   9.744  16.959  0.00  0.00    +0.000 A 
BRANCH  25  31
ATOM     31  O   UNL     1      -3.231   9.370  15.144  0.00  0.00    +0.000 OA
BRANCH  31  32
ATOM     32  C   UNL     1      -3.757  10.232  14.121  0.00  0.00    +0.000 C 
BRANCH  32  34
ATOM     33  O   UNL     1      -2.186   9.361  12.503  0.00  0.00    +0.000 OA
ATOM     34  C   UNL     1      -3.381   9.710  12.749  0.00  0.00    +0.000 C 
ATOM     35  O   UNL     1      -4.247   9.686  11.820  0.00  0.00    +0.000 OA
ENDBRANCH  32  34
ENDBRANCH  31  32
ENDBRANCH  25  31
ENDBRANCH  24  29
ENDBRANCH   1  24
TORSDOF 8
ENDMDL
MODEL 5
REMARK VINA RESULT:      -9.1      3.324      6.322
REMARK  Name = 
REMARK  8 active torsions:
REMARK  status: ('A' for Active; 'I' for Inactive)
REMARK    1  A    between atoms: C_2  and  C_4
REMARK    2  A    between atoms: C_4  and  O_5
REMARK    3  A    between atoms: O_5  and  C_6
REMARK    4  A    between atoms: C_10  and  C_11
REMARK    5  A    between atoms: C_11  and  C_12
REMARK    6  A    between atoms: C_17  and  C_18
REMARK    7  A    between atoms: C_20  and  C_21
REMARK    8  A    between atoms: C_27  and  C_28
REMARK                            x       y       z     vdW  Elec       q    Type
REMARK                         _______ _______ _______ _____ _____    ______ ____
ROOT
ATOM      1  C   UNL     1      -0.140  10.313  20.499  0.00  0.00    +0.000 A 
ATOM      2  C   UNL     1      -0.918  11.276  21.180  0.00  0.00    +0.000 A 
ATOM      3  C   UNL     1      -1.087  11.215  22.561  0.00  0.00    +0.000 A 
ATOM      4  C   UNL     1      -0.480  10.195  23.285  0.00  0.00    +0.000 A 
ATOM      5  C   UNL     1       0.305   9.242  22.628  0.00  0.00    +0.000 A 
ATOM      6  C   UNL     1       0.490   9.276  21.232  0.00  0.00    +0.000 A 
ENDROOT
BRANCH   6   7
ATOM      7  C   UNL     1       1.249   8.205  20.577  0.00  0.00    +0.000 A 
ATOM      8  N   UNL     1       2.202   8.298  19.673  0.00  0.00    +0.000 NA
ATOM      9  C   UNL     1       2.500   7.002  19.347  0.00  0.00    +0.000 A 
ATOM     10  C   UNL     1       1.781   6.137  20.153  0.00  0.00    +0.000 A 
ATOM     11  O   UNL     1       0.939   6.910  20.922  0.00  0.00    +0.000 OA
BRANCH   9  12
ATOM     12  C   UNL     1       3.445   6.671  18.297  0.00  0.00    +0.000 A 
ATOM     13  C   UNL     1       3.631   7.552  17.226  0.00  0.00    +0.000 A 
ATOM     14  C   UNL     1       4.551   7.255  16.218  0.00  0.00    +0.000 A 
ATOM     15  C   UNL     1       5.289   6.073  16.275  0.00  0.00    +0.000 A 
ATOM     16  C   UNL     1       5.098   5.178  17.326  0.00  0.00    +0.000 A 
ATOM     17  C   UNL     1       4.165   5.468  18.322  0.00  0.00    +0.000 A 
ENDBRANCH   9  12
BRANCH  10  18
ATOM     18  C   UNL     1       1.723   4.695  20.366  0.00  0.00    +0.000 A 
ATOM     19  C   UNL     1       2.296   4.123  21.514  0.00  0.00    +0.000 A 
ATOM     20  C   UNL     1       2.316   2.739  21.698  0.00  0.00    +0.000 A 
ATOM     21  C   UNL     1       1.728   1.907  20.752  0.00  0.00    +0.000 A 
ATOM     22  C   UNL     1       1.125   2.459  19.623  0.00  0.00    +0.000 A 
ATOM     23  C   UNL     1       1.124   3.845  19.430  0.00  0.00    +0.000 A 
ENDBRANCH  10  18
ENDBRANCH   6   7
BRANCH   1  24
ATOM     24  C   UNL     1      -0.106  10.395  18.979  0.00  0.00    +0.000 C 
BRANCH  24  29
ATOM     25  C   UNL     1      -3.727  11.445  18.206  0.00  0.00    +0.000 A 
ATOM     26  C   UNL     1      -3.974  10.680  17.068  0.00  0.00    +0.000 A 
ATOM     27  C   UNL     1      -2.965   9.893  16.514  0.00  0.00    +0.000 A 
ATOM     28  C   UNL     1      -1.708   9.840  17.119  0.00  0.00    +0.000 A 
ATOM     29  C   UNL     1      -1.449  10.568  18.291  0.00  0.00    +0.000 A 
ATOM     30  C   UNL     1      -2.475  11.379  18.816  0.00  0.00    +0.000 A 
BRANCH  25  31
ATOM     31  O   UNL     1      -4.783  12.158  18.702  0.00  0.00    +0.000 OA
BRANCH  31  32
ATOM     32  C   UNL     1      -6.061  11.498  18.683  0.00  0.00    +0.000 C 
BRANCH  32  34
ATOM     33  O   UNL     1      -7.683  10.722  20.298  0.00  0.00    +0.000 OA
ATOM     34  C   UNL     1      -6.590  11.334  20.093  0.00  0.00    +0.000 C 
ATOM     35  O   UNL     1      -5.976  11.868  21.067  0.00  0.00    +0.000 OA
ENDBRANCH  32  34
ENDBRANCH  31  32
ENDBRANCH  25  31
ENDBRANCH  24  29
ENDBRANCH   1  24
TORSDOF 8
ENDMDL
MODEL 6
REMARK VINA RESULT:      -9.0      0.569      1.098
REMARK  Name = 
REMARK  8 active torsions:
REMARK  status: ('A' for Active; 'I' for Inactive)
REMARK    1  A    between atoms: C_2  and  C_4
REMARK    2  A    between atoms: C_4  and  O_5
REMARK    3  A    between atoms: O_5  and  C_6
REMARK    4  A    between atoms: C_10  and  C_11
REMARK    5  A    between atoms: C_11  and  C_12
REMARK    6  A    between atoms: C_17  and  C_18
REMARK    7  A    between atoms: C_20  and  C_21
REMARK    8  A    between atoms: C_27  and  C_28
REMARK                            x       y       z     vdW  Elec       q    Type
REMARK                         _______ _______ _______ _____ _____    ______ ____
ROOT
ATOM      1  C   UNL     1       2.171   4.417  19.794  0.00  0.00    +0.000 A 
ATOM      2  C   UNL     1       1.045   3.927  20.494  0.00  0.00    +0.000 A 
ATOM      3  C   UNL     1       0.301   2.860  19.996  0.00  0.00    +0.000 A 
ATOM      4  C   UNL     1       0.670   2.263  18.797  0.00  0.00    +0.000 A 
ATOM      5  C   UNL     1       1.790   2.727  18.099  0.00  0.00    +0.000 A 
ATOM      6  C   UNL     1       2.559   3.806  18.576  0.00  0.00    +0.000 A 
ENDROOT
BRANCH   6   7
ATOM      7  C   UNL     1       3.672   4.315  17.767  0.00  0.00    +0.000 A 
ATOM      8  N   UNL     1       3.973   4.051  16.513  0.00  0.00    +0.000 NA
ATOM      9  C   UNL     1       5.146   4.721  16.288  0.00  0.00    +0.000 A 
ATOM     10  C   UNL     1       5.479   5.473  17.400  0.00  0.00    +0.000 A 
ATOM     11  O   UNL     1       4.550   5.183  18.375  0.00  0.00    +0.000 OA
BRANCH   9  12
ATOM     12  C   UNL     1       5.871   4.603  15.037  0.00  0.00    +0.000 A 
ATOM     13  C   UNL     1       7.086   5.278  14.871  0.00  0.00    +0.000 A 
ATOM     14  C   UNL     1       7.804   5.158  13.679  0.00  0.00    +0.000 A 
ATOM     15  C   UNL     1       7.310   4.364  12.645  0.00  0.00    +0.000 A 
ATOM     16  C   UNL     1       6.091   3.704  12.790  0.00  0.00    +0.000 A 
ATOM     17  C   UNL     1       5.366   3.839  13.975  0.00  0.00    +0.000 A 
ENDBRANCH   9  12
BRANCH  10  18
ATOM     18  C   UNL     1       6.510   6.445  17.747  0.00  0.00    +0.000 A 
ATOM     19  C   UNL     1       6.517   7.718  17.152  0.00  0.00    +0.000 A 
ATOM     20  C   UNL     1       7.537   8.633  17.415  0.00  0.00    +0.000 A 
ATOM     21  C   UNL     1       8.549   8.302  18.310  0.00  0.00    +0.000 A 
ATOM     22  C   UNL     1       8.541   7.057  18.936  0.00  0.00    +0.000 A 
ATOM     23  C   UNL     1       7.528   6.133  18.655  0.00  0.00    +0.000 A 
ENDBRANCH  10  18
ENDBRANCH   6   7
BRANCH   1  24
ATOM     24  C   UNL     1       2.852   5.657  20.357  0.00  0.00    +0.000 C 
BRANCH  24  29
ATOM     25  C   UNL     1       0.780   8.898  20.475  0.00  0.00    +0.000 A 
ATOM     26  C   UNL     1       0.932   9.343  19.164  0.00  0.00    +0.000 A 
ATOM     27  C   UNL     1       1.752   8.650  18.273  0.00  0.00    +0.000 A 
ATOM     28  C   UNL     1       2.397   7.481  18.684  0.00  0.00    +0.000 A 
ATOM     29  C   UNL     1       2.223   6.990  19.987  0.00  0.00    +0.000 A 
ATOM     30  C   UNL     1       1.414   7.723  20.876  0.00  0.00    +0.000 A 
BRANCH  25  31
ATOM     31  O   UNL     1      -0.072   9.617  21.268  0.00  0.00    +0.000 OA
BRANCH  31  32
ATOM     32  C   UNL     1       0.051  11.049  21.198  0.00  0.00    +0.000 C 
BRANCH  32  34
ATOM     33  O   UNL     1      -1.022  10.968  23.362  0.00  0.00    +0.000 OA
ATOM     34  C   UNL     1      -0.572  11.691  22.421  0.00  0.00    +0.000 C 
ATOM     35  O   UNL     1      -0.707  12.952  22.476  0.00  0.00    +0.000 OA
ENDBRANCH  32  34
ENDBRANCH  31  32
ENDBRANCH  25  31
ENDBRANCH  24  29
ENDBRANCH   1  24
TORSDOF 8
ENDMDL
MODEL 7
REMARK VINA RESULT:      -9.0      3.044      6.202
REMARK  Name = 
REMARK  8 active torsions:
REMARK  status: ('A' for Active; 'I' for Inactive)
REMARK    1  A    between atoms: C_2  and  C_4
REMARK    2  A    between atoms: C_4  and  O_5
REMARK    3  A    between atoms: O_5  and  C_6
REMARK    4  A    between atoms: C_10  and  C_11
REMARK    5  A    between atoms: C_11  and  C_12
REMARK    6  A    between atoms: C_17  and  C_18
REMARK    7  A    between atoms: C_20  and  C_21
REMARK    8  A    between atoms: C_27  and  C_28
REMARK                            x       y       z     vdW  Elec       q    Type
REMARK                         _______ _______ _______ _____ _____    ______ ____
ROOT
ATOM      1  C   UNL     1      -0.106  10.344  20.401  0.00  0.00    +0.000 A 
ATOM      2  C   UNL     1      -0.869  11.321  21.081  0.00  0.00    +0.000 A 
ATOM      3  C   UNL     1      -1.018  11.277  22.465  0.00  0.00    +0.000 A 
ATOM      4  C   UNL     1      -0.407  10.263  23.192  0.00  0.00    +0.000 A 
ATOM      5  C   UNL     1       0.362   9.296  22.537  0.00  0.00    +0.000 A 
ATOM      6  C   UNL     1       0.528   9.313  21.138  0.00  0.00    +0.000 A 
ENDROOT
BRANCH   6   7
ATOM      7  C   UNL     1       1.270   8.229  20.485  0.00  0.00    +0.000 A 
ATOM      8  N   UNL     1       2.182   8.302  19.538  0.00  0.00    +0.000 NA
ATOM      9  C   UNL     1       2.482   6.999  19.241  0.00  0.00    +0.000 A 
ATOM     10  C   UNL     1       1.808   6.153  20.105  0.00  0.00    +0.000 A 
ATOM     11  O   UNL     1       0.992   6.943  20.885  0.00  0.00    +0.000 OA
BRANCH   9  12
ATOM     12  C   UNL     1       3.383   6.644  18.163  0.00  0.00    +0.000 A 
ATOM     13  C   UNL     1       3.844   7.634  17.286  0.00  0.00    +0.000 A 
ATOM     14  C   UNL     1       4.728   7.309  16.255  0.00  0.00    +0.000 A 
ATOM     15  C   UNL     1       5.155   5.991  16.092  0.00  0.00    +0.000 A 
ATOM     16  C   UNL     1       4.687   4.994  16.945  0.00  0.00    +0.000 A 
ATOM     17  C   UNL     1       3.790   5.316  17.963  0.00  0.00    +0.000 A 
ENDBRANCH   9  12
BRANCH  10  18
ATOM     18  C   UNL     1       1.778   4.719  20.368  0.00  0.00    +0.000 A 
ATOM     19  C   UNL     1       1.113   3.849  19.487  0.00  0.00    +0.000 A 
ATOM     20  C   UNL     1       1.009   2.485  19.760  0.00  0.00    +0.000 A 
ATOM     21  C   UNL     1       1.603   1.962  20.904  0.00  0.00    +0.000 A 
ATOM     22  C   UNL     1       2.296   2.803  21.772  0.00  0.00    +0.000 A 
ATOM     23  C   UNL     1       2.381   4.175  21.507  0.00  0.00    +0.000 A 
ENDBRANCH  10  18
ENDBRANCH   6   7
BRANCH   1  24
ATOM     24  C   UNL     1      -0.094  10.407  18.880  0.00  0.00    +0.000 C 
BRANCH  24  29
ATOM     25  C   UNL     1      -3.739  11.422  18.178  0.00  0.00    +0.000 A 
ATOM     26  C   UNL     1      -3.982  10.702  17.010  0.00  0.00    +0.000 A 
ATOM     27  C   UNL     1      -2.962   9.959  16.414  0.00  0.00    +0.000 A 
ATOM     28  C   UNL     1      -1.700   9.903  17.009  0.00  0.00    +0.000 A 
ATOM     29  C   UNL     1      -1.446  10.585  18.209  0.00  0.00    +0.000 A 
ATOM     30  C   UNL     1      -2.482  11.352  18.776  0.00  0.00    +0.000 A 
BRANCH  25  31
ATOM     31  O   UNL     1      -4.805  12.092  18.712  0.00  0.00    +0.000 OA
BRANCH  31  32
ATOM     32  C   UNL     1      -4.548  12.842  19.912  0.00  0.00    +0.000 C 
BRANCH  32  34
ATOM     33  O   UNL     1      -4.927  12.422  22.262  0.00  0.00    +0.000 OA
ATOM     34  C   UNL     1      -5.337  12.268  21.071  0.00  0.00    +0.000 C 
ATOM     35  O   UNL     1      -6.375  11.571  20.848  0.00  0.00    +0.000 OA
ENDBRANCH  32  34
ENDBRANCH  31  32
ENDBRANCH  25  31
ENDBRANCH  24  29
ENDBRANCH   1  24
TORSDOF 8
ENDMDL
MODEL 8
REMARK VINA RESULT:      -9.0      3.384      6.389
REMARK  Name = 
REMARK  8 active torsions:
REMARK  status: ('A' for Active; 'I' for Inactive)
REMARK    1  A    between atoms: C_2  and  C_4
REMARK    2  A    between atoms: C_4  and  O_5
REMARK    3  A    between atoms: O_5  and  C_6
REMARK    4  A    between atoms: C_10  and  C_11
REMARK    5  A    between atoms: C_11  and  C_12
REMARK    6  A    between atoms: C_17  and  C_18
REMARK    7  A    between atoms: C_20  and  C_21
REMARK    8  A    between atoms: C_27  and  C_28
REMARK                            x       y       z     vdW  Elec       q    Type
REMARK                         _______ _______ _______ _____ _____    ______ ____
ROOT
ATOM      1  C   UNL     1      -0.040  10.383  20.561  0.00  0.00    +0.000 A 
ATOM      2  C   UNL     1      -0.832  11.333  21.245  0.00  0.00    +0.000 A 
ATOM      3  C   UNL     1      -1.089  11.203  22.607  0.00  0.00    +0.000 A 
ATOM      4  C   UNL     1      -0.558  10.128  23.309  0.00  0.00    +0.000 A 
ATOM      5  C   UNL     1       0.240   9.187  22.650  0.00  0.00    +0.000 A 
ATOM      6  C   UNL     1       0.514   9.290  21.272  0.00  0.00    +0.000 A 
ENDROOT
BRANCH   6   7
ATOM      7  C   UNL     1       1.282   8.233  20.606  0.00  0.00    +0.000 A 
ATOM      8  N   UNL     1       2.282   8.344  19.757  0.00  0.00    +0.000 NA
ATOM      9  C   UNL     1       2.569   7.058  19.386  0.00  0.00    +0.000 A 
ATOM     10  C   UNL     1       1.791   6.174  20.113  0.00  0.00    +0.000 A 
ATOM     11  O   UNL     1       0.928   6.931  20.874  0.00  0.00    +0.000 OA
BRANCH   9  12
ATOM     12  C   UNL     1       3.559   6.753  18.371  0.00  0.00    +0.000 A 
ATOM     13  C   UNL     1       4.488   5.730  18.590  0.00  0.00    +0.000 A 
ATOM     14  C   UNL     1       5.435   5.413  17.613  0.00  0.00    +0.000 A 
ATOM     15  C   UNL     1       5.459   6.120  16.411  0.00  0.00    +0.000 A 
ATOM     16  C   UNL     1       4.552   7.154  16.189  0.00  0.00    +0.000 A 
ATOM     17  C   UNL     1       3.619   7.482  17.174  0.00  0.00    +0.000 A 
ENDBRANCH   9  12
BRANCH  10  18
ATOM     18  C   UNL     1       1.692   4.726  20.255  0.00  0.00    +0.000 A 
ATOM     19  C   UNL     1       2.104   4.098  21.443  0.00  0.00    +0.000 A 
ATOM     20  C   UNL     1       2.086   2.708  21.569  0.00  0.00    +0.000 A 
ATOM     21  C   UNL     1       1.619   1.924  20.519  0.00  0.00    +0.000 A 
ATOM     22  C   UNL     1       1.174   2.531  19.346  0.00  0.00    +0.000 A 
ATOM     23  C   UNL     1       1.212   3.924  19.213  0.00  0.00    +0.000 A 
ENDBRANCH  10  18
ENDBRANCH   6   7
BRANCH   1  24
ATOM     24  C   UNL     1       0.091  10.546  19.052  0.00  0.00    +0.000 C 
BRANCH  24  29
ATOM     25  C   UNL     1      -3.477  11.470  17.947  0.00  0.00    +0.000 A 
ATOM     26  C   UNL     1      -3.664  10.559  16.909  0.00  0.00    +0.000 A 
ATOM     27  C   UNL     1      -2.628   9.708  16.521  0.00  0.00    +0.000 A 
ATOM     28  C   UNL     1      -1.407   9.742  17.197  0.00  0.00    +0.000 A 
ATOM     29  C   UNL     1      -1.211  10.620  18.274  0.00  0.00    +0.000 A 
ATOM     30  C   UNL     1      -2.261  11.490  18.628  0.00  0.00    +0.000 A 
BRANCH  25  31
ATOM     31  O   UNL     1      -4.557  12.238  18.285  0.00  0.00    +0.000 OA
BRANCH  31  32
ATOM     32  C   UNL     1      -5.317  11.801  19.425  0.00  0.00    +0.000 C 
BRANCH  32  34
ATOM     33  O   UNL     1      -7.129  10.213  19.619  0.00  0.00    +0.000 OA
ATOM     34  C   UNL     1      -6.630  11.190  18.980  0.00  0.00    +0.000 C 
ATOM     35  O   UNL     1      -7.199  11.609  17.925  0.00  0.00    +0.000 OA
ENDBRANCH  32  34
ENDBRANCH  31  32
ENDBRANCH  25  31
ENDBRANCH  24  29
ENDBRANCH   1  24
TORSDOF 8
ENDMDL
MODEL 9
REMARK VINA RESULT:      -9.0      4.175      7.177
REMARK  Name = 
REMARK  8 active torsions:
REMARK  status: ('A' for Active; 'I' for Inactive)
REMARK    1  A    between atoms: C_2  and  C_4
REMARK    2  A    between atoms: C_4  and  O_5
REMARK    3  A    between atoms: O_5  and  C_6
REMARK    4  A    between atoms: C_10  and  C_11
REMARK    5  A    between atoms: C_11  and  C_12
REMARK    6  A    between atoms: C_17  and  C_18
REMARK    7  A    between atoms: C_20  and  C_21
REMARK    8  A    between atoms: C_27  and  C_28
REMARK                            x       y       z     vdW  Elec       q    Type
REMARK                         _______ _______ _______ _____ _____    ______ ____
ROOT
ATOM      1  C   UNL     1       0.525  10.944  18.398  0.00  0.00    +0.000 A 
ATOM      2  C   UNL     1       0.278  12.334  18.481  0.00  0.00    +0.000 A 
ATOM      3  C   UNL     1       1.319  13.253  18.386  0.00  0.00    +0.000 A 
ATOM      4  C   UNL     1       2.621  12.803  18.203  0.00  0.00    +0.000 A 
ATOM      5  C   UNL     1       2.881  11.432  18.105  0.00  0.00    +0.000 A 
ATOM      6  C   UNL     1       1.848  10.479  18.201  0.00  0.00    +0.000 A 
ENDROOT
BRANCH   6   7
ATOM      7  C   UNL     1       2.179   9.050  18.181  0.00  0.00    +0.000 A 
ATOM      8  N   UNL     1       1.462   8.027  18.598  0.00  0.00    +0.000 NA
ATOM      9  C   UNL     1       2.273   6.938  18.423  0.00  0.00    +0.000 A 
ATOM     10  C   UNL     1       3.446   7.322  17.795  0.00  0.00    +0.000 A 
ATOM     11  O   UNL     1       3.406   8.693  17.673  0.00  0.00    +0.000 OA
BRANCH   9  12
ATOM     12  C   UNL     1       1.885   5.612  18.861  0.00  0.00    +0.000 A 
ATOM     13  C   UNL     1       1.701   5.356  20.225  0.00  0.00    +0.000 A 
ATOM     14  C   UNL     1       1.308   4.087  20.659  0.00  0.00    +0.000 A 
ATOM     15  C   UNL     1       1.100   3.067  19.732  0.00  0.00    +0.000 A 
ATOM     16  C   UNL     1       1.300   3.304  18.373  0.00  0.00    +0.000 A 
ATOM     17  C   UNL     1       1.710   4.566  17.943  0.00  0.00    +0.000 A 
ENDBRANCH   9  12
BRANCH  10  18
ATOM     18  C   UNL     1       4.624   6.650  17.259  0.00  0.00    +0.000 A 
ATOM     19  C   UNL     1       4.844   6.597  15.873  0.00  0.00    +0.000 A 
ATOM     20  C   UNL     1       5.926   5.895  15.339  0.00  0.00    +0.000 A 
ATOM     21  C   UNL     1       6.828   5.265  16.189  0.00  0.00    +0.000 A 
ATOM     22  C   UNL     1       6.645   5.334  17.569  0.00  0.00    +0.000 A 
ATOM     23  C   UNL     1       5.548   6.021  18.101  0.00  0.00    +0.000 A 
ENDBRANCH  10  18
ENDBRANCH   6   7
BRANCH   1  24
ATOM     24  C   UNL     1      -0.659  10.014  18.626  0.00  0.00    +0.000 C 
BRANCH  24  29
ATOM     25  C   UNL     1      -3.074  10.091  15.632  0.00  0.00    +0.000 A 
ATOM     26  C   UNL     1      -4.074  10.921  16.135  0.00  0.00    +0.000 A 
ATOM     27  C   UNL     1      -4.009  11.390  17.447  0.00  0.00    +0.000 A 
ATOM     28  C   UNL     1      -2.918  11.057  18.254  0.00  0.00    +0.000 A 
ATOM     29  C   UNL     1      -1.878  10.259  17.754  0.00  0.00    +0.000 A 
ATOM     30  C   UNL     1      -1.981   9.774  16.436  0.00  0.00    +0.000 A 
BRANCH  25  31
ATOM     31  O   UNL     1      -3.200   9.710  14.324  0.00  0.00    +0.000 OA
BRANCH  31  32
ATOM     32  C   UNL     1      -4.390  10.147  13.645  0.00  0.00    +0.000 C 
BRANCH  32  34
ATOM     33  O   UNL     1      -5.433   9.497  11.564  0.00  0.00    +0.000 OA
ATOM     34  C   UNL     1      -4.353   9.721  12.192  0.00  0.00    +0.000 C 
ATOM     35  O   UNL     1      -3.238   9.521  11.618  0.00  0.00    +0.000 OA
ENDBRANCH  32  34
ENDBRANCH  31  32
ENDBRANCH  25  31
ENDBRANCH  24  29
ENDBRANCH   1  24
TORSDOF 8
ENDMDL
