MODEL 1
REMARK VINA RESULT:      -7.5      0.000      0.000
REMARK  Name = 
REMARK  18 active torsions:
REMARK  status: ('A' for Active; 'I' for Inactive)
REMARK    1  A    between atoms: C_1  and  O_2
REMARK    2  A    between atoms: O_2  and  C_3
REMARK    3  A    between atoms: C_3  and  C_5
REMARK    4  A    between atoms: C_10  and  C_12
REMARK    5  A    between atoms: C_12  and  C_13
REMARK    6  A    between atoms: C_12  and  C_14
REMARK    7  A    between atoms: C_14  and  C_15
REMARK    8  A    between atoms: C_14  and  N_32
REMARK    9  A    between atoms: C_16  and  C_17
REMARK   10  A    between atoms: C_17  and  C_18
REMARK   11  A    between atoms: C_19  and  C_20
REMARK   12  A    between atoms: C_20  and  C_21
REMARK   13  A    between atoms: C_20  and  C_22
REMARK   14  A    between atoms: C_22  and  C_23
REMARK   15  A    between atoms: C_22  and  O_30
REMARK   16  A    between atoms: C_23  and  C_24
REMARK   17  A    between atoms: O_30  and  C_31
REMARK   18  A    between atoms: C_33  and  C_34
REMARK                            x       y       z     vdW  Elec       q    Type
REMARK                         _______ _______ _______ _____ _____    ______ ____
ROOT
ATOM      1  C   UNL     1       0.733  10.237  18.644  0.00  0.00    +0.000 C 
ENDROOT
BRANCH   1   2
ATOM      2  N   UNL     1      -0.255  10.515  17.597  0.00  0.00    +0.000 N 
ATOM      3  C   UNL     1      -1.598  10.246  17.711  0.00  0.00    +0.000 C 
ATOM      4  C   UNL     1      -2.414  10.690  16.521  0.00  0.00    +0.000 C 
ATOM      5  O   UNL     1      -2.114   9.704  18.682  0.00  0.00    +0.000 OA
ATOM      6  H   UNL     1       0.113  10.812  16.701  0.00  0.00    +0.000 HD
ENDBRANCH   1   2
BRANCH   1   7
ATOM      7  C   UNL     1       1.163  11.591  19.302  0.00  0.00    +0.000 C 
ATOM      8  C   UNL     1       2.163  12.404  18.489  0.00  0.00    +0.000 C 
BRANCH   7  14
ATOM      9  C   UNL     1      -0.314  11.507  22.103  0.00  0.00    +0.000 C 
ATOM     10  C   UNL     1      -1.638  11.443  22.883  0.00  0.00    +0.000 C 
ATOM     11  C   UNL     1      -2.272  12.783  22.566  0.00  0.00    +0.000 C 
ATOM     12  C   UNL     1      -1.907  12.998  21.110  0.00  0.00    +0.000 C 
ATOM     13  N   UNL     1      -0.745  12.152  20.852  0.00  0.00    +0.000 N 
ATOM     14  C   UNL     1      -0.046  12.430  19.695  0.00  0.00    +0.000 C 
ATOM     15  O   UNL     1      -0.461  13.323  18.949  0.00  0.00    +0.000 OA
BRANCH   9  16
ATOM     16  C   UNL     1       0.325  10.114  22.209  0.00  0.00    +0.000 C 
ATOM     17  O   UNL     1       1.364   9.832  22.783  0.00  0.00    +0.000 OA
BRANCH  16  19
ATOM     18  C   UNL     1      -0.160   7.851  21.578  0.00  0.00    +0.000 C 
ATOM     19  O   UNL     1      -0.444   9.249  21.477  0.00  0.00    +0.000 OA
ENDBRANCH  16  19
ENDBRANCH   9  16
ENDBRANCH   7  14
ENDBRANCH   1   7
BRANCH   1  20
ATOM     20  C   UNL     1       1.709   9.227  18.060  0.00  0.00    +0.000 C 
ATOM     21  C   UNL     1       2.056   8.003  18.492  0.00  0.00    +0.000 C 
BRANCH  21  22
ATOM     22  C   UNL     1       2.996   7.118  17.820  0.00  0.00    +0.000 C 
ATOM     23  C   UNL     1       4.057   7.806  16.992  0.00  0.00    +0.000 C 
ATOM     24  C   UNL     1       3.062   5.776  17.943  0.00  0.00    +0.000 C 
BRANCH  24  25
ATOM     25  C   UNL     1       2.343   4.786  18.842  0.00  0.00    +0.000 C 
ATOM     26  C   UNL     1       1.332   3.881  18.122  0.00  0.00    +0.000 C 
BRANCH  25  27
ATOM     27  C   UNL     1       3.267   3.973  19.795  0.00  0.00    +0.000 C 
BRANCH  27  28
ATOM     28  O   UNL     1       2.470   2.916  20.361  0.00  0.00    +0.000 OA
ATOM     29  C   UNL     1       1.996   3.141  21.678  0.00  0.00    +0.000 C 
ENDBRANCH  27  28
BRANCH  27  30
ATOM     30  C   UNL     1       4.560   3.423  19.137  0.00  0.00    +0.000 C 
BRANCH  30  31
ATOM     31  C   UNL     1       5.581   4.391  18.559  0.00  0.00    +0.000 A 
ATOM     32  C   UNL     1       6.337   5.274  19.344  0.00  0.00    +0.000 A 
ATOM     33  C   UNL     1       7.276   6.127  18.751  0.00  0.00    +0.000 A 
ATOM     34  C   UNL     1       7.491   6.093  17.375  0.00  0.00    +0.000 A 
ATOM     35  C   UNL     1       6.774   5.200  16.586  0.00  0.00    +0.000 A 
ATOM     36  C   UNL     1       5.832   4.347  17.173  0.00  0.00    +0.000 A 
ENDBRANCH  30  31
ENDBRANCH  27  30
ENDBRANCH  25  27
ENDBRANCH  24  25
ENDBRANCH  21  22
ENDBRANCH   1  20
TORSDOF 12
ENDMDL
MODEL 2
REMARK VINA RESULT:      -7.5      2.893      9.209
REMARK  Name = 
REMARK  18 active torsions:
REMARK  status: ('A' for Active; 'I' for Inactive)
REMARK    1  A    between atoms: C_1  and  O_2
REMARK    2  A    between atoms: O_2  and  C_3
REMARK    3  A    between atoms: C_3  and  C_5
REMARK    4  A    between atoms: C_10  and  C_12
REMARK    5  A    between atoms: C_12  and  C_13
REMARK    6  A    between atoms: C_12  and  C_14
REMARK    7  A    between atoms: C_14  and  C_15
REMARK    8  A    between atoms: C_14  and  N_32
REMARK    9  A    between atoms: C_16  and  C_17
REMARK   10  A    between atoms: C_17  and  C_18
REMARK   11  A    between atoms: C_19  and  C_20
REMARK   12  A    between atoms: C_20  and  C_21
REMARK   13  A    between atoms: C_20  and  C_22
REMARK   14  A    between atoms: C_22  and  C_23
REMARK   15  A    between atoms: C_22  and  O_30
REMARK   16  A    between atoms: C_23  and  C_24
REMARK   17  A    between atoms: O_30  and  C_31
REMARK   18  A    between atoms: C_33  and  C_34
REMARK                            x       y       z     vdW  Elec       q    Type
REMARK                         _______ _______ _______ _____ _____    ______ ____
ROOT
ATOM      1  C   UNL     1       2.834   5.543  18.692  0.00  0.00    +0.000 C 
ENDROOT
BRANCH   1   2
ATOM      2  N   UNL     1       2.301   4.882  19.887  0.00  0.00    +0.000 N 
ATOM      3  C   UNL     1       1.409   3.836  19.859  0.00  0.00    +0.000 C 
ATOM      4  C   UNL     1       1.067   3.286  21.222  0.00  0.00    +0.000 C 
ATOM      5  O   UNL     1       0.926   3.369  18.834  0.00  0.00    +0.000 OA
ATOM      6  H   UNL     1       2.523   5.315  20.776  0.00  0.00    +0.000 HD
ENDBRANCH   1   2
BRANCH   1   7
ATOM      7  C   UNL     1       4.195   4.871  18.310  0.00  0.00    +0.000 C 
ATOM      8  C   UNL     1       4.657   3.781  19.270  0.00  0.00    +0.000 C 
BRANCH   7  14
ATOM      9  C   UNL     1       6.714   4.717  16.398  0.00  0.00    +0.000 C 
ATOM     10  C   UNL     1       7.325   4.993  15.013  0.00  0.00    +0.000 C 
ATOM     11  C   UNL     1       6.564   4.035  14.120  0.00  0.00    +0.000 C 
ATOM     12  C   UNL     1       5.159   4.081  14.688  0.00  0.00    +0.000 C 
ATOM     13  N   UNL     1       5.290   4.564  16.060  0.00  0.00    +0.000 N 
ATOM     14  C   UNL     1       4.189   4.376  16.870  0.00  0.00    +0.000 C 
ATOM     15  O   UNL     1       3.173   3.865  16.384  0.00  0.00    +0.000 OA
BRANCH   9  16
ATOM     16  C   UNL     1       7.292   5.775  17.350  0.00  0.00    +0.000 C 
ATOM     17  O   UNL     1       7.738   5.580  18.469  0.00  0.00    +0.000 OA
BRANCH  16  19
ATOM     18  C   UNL     1       7.599   8.151  17.462  0.00  0.00    +0.000 C 
ATOM     19  O   UNL     1       7.150   6.997  16.748  0.00  0.00    +0.000 OA
ENDBRANCH  16  19
ENDBRANCH   9  16
ENDBRANCH   7  14
ENDBRANCH   1   7
BRANCH   1  20
ATOM     20  C   UNL     1       2.656   7.038  18.909  0.00  0.00    +0.000 C 
ATOM     21  C   UNL     1       2.013   7.955  18.165  0.00  0.00    +0.000 C 
BRANCH  21  22
ATOM     22  C   UNL     1       1.895   9.366  18.501  0.00  0.00    +0.000 C 
ATOM     23  C   UNL     1       2.602  10.319  17.566  0.00  0.00    +0.000 C 
ATOM     24  C   UNL     1       1.150   9.892  19.496  0.00  0.00    +0.000 C 
BRANCH  24  25
ATOM     25  C   UNL     1       0.145   9.291  20.462  0.00  0.00    +0.000 C 
ATOM     26  C   UNL     1       0.757   8.695  21.738  0.00  0.00    +0.000 C 
BRANCH  25  27
ATOM     27  C   UNL     1      -1.082  10.196  20.780  0.00  0.00    +0.000 C 
BRANCH  27  28
ATOM     28  O   UNL     1      -0.939  10.643  22.141  0.00  0.00    +0.000 OA
ATOM     29  C   UNL     1      -0.667  12.025  22.308  0.00  0.00    +0.000 C 
ENDBRANCH  27  28
BRANCH  27  30
ATOM     30  C   UNL     1      -1.284  11.386  19.805  0.00  0.00    +0.000 C 
BRANCH  30  31
ATOM     31  C   UNL     1      -2.246  11.247  18.636  0.00  0.00    +0.000 A 
ATOM     32  C   UNL     1      -3.582  11.671  18.681  0.00  0.00    +0.000 A 
ATOM     33  C   UNL     1      -4.411  11.532  17.561  0.00  0.00    +0.000 A 
ATOM     34  C   UNL     1      -3.913  10.992  16.377  0.00  0.00    +0.000 A 
ATOM     35  C   UNL     1      -2.581  10.597  16.305  0.00  0.00    +0.000 A 
ATOM     36  C   UNL     1      -1.749  10.731  17.422  0.00  0.00    +0.000 A 
ENDBRANCH  30  31
ENDBRANCH  27  30
ENDBRANCH  25  27
ENDBRANCH  24  25
ENDBRANCH  21  22
ENDBRANCH   1  20
TORSDOF 12
ENDMDL
MODEL 3
REMARK VINA RESULT:      -7.1      2.734      4.901
REMARK  Name = 
REMARK  18 active torsions:
REMARK  status: ('A' for Active; 'I' for Inactive)
REMARK    1  A    between atoms: C_1  and  O_2
REMARK    2  A    between atoms: O_2  and  C_3
REMARK    3  A    between atoms: C_3  and  C_5
REMARK    4  A    between atoms: C_10  and  C_12
REMARK    5  A    between atoms: C_12  and  C_13
REMARK    6  A    between atoms: C_12  and  C_14
REMARK    7  A    between atoms: C_14  and  C_15
REMARK    8  A    between atoms: C_14  and  N_32
REMARK    9  A    between atoms: C_16  and  C_17
REMARK   10  A    between atoms: C_17  and  C_18
REMARK   11  A    between atoms: C_19  and  C_20
REMARK   12  A    between atoms: C_20  and  C_21
REMARK   13  A    between atoms: C_20  and  C_22
REMARK   14  A    between atoms: C_22  and  C_23
REMARK   15  A    between atoms: C_22  and  O_30
REMARK   16  A    between atoms: C_23  and  C_24
REMARK   17  A    between atoms: O_30  and  C_31
REMARK   18  A    between atoms: C_33  and  C_34
REMARK                            x       y       z     vdW  Elec       q    Type
REMARK                         _______ _______ _______ _____ _____    ______ ____
ROOT
ATOM      1  C   UNL     1      -2.156  11.380  19.824  0.00  0.00    +0.000 C 
ENDROOT
BRANCH   1   2
ATOM      2  N   UNL     1      -2.169  11.554  18.368  0.00  0.00    +0.000 N 
ATOM      3  C   UNL     1      -2.588  10.593  17.479  0.00  0.00    +0.000 C 
ATOM      4  C   UNL     1      -2.569  11.042  16.039  0.00  0.00    +0.000 C 
ATOM      5  O   UNL     1      -2.955   9.468  17.800  0.00  0.00    +0.000 OA
ATOM      6  H   UNL     1      -1.727  12.394  18.013  0.00  0.00    +0.000 HD
ENDBRANCH   1   2
BRANCH   1   7
ATOM      7  C   UNL     1      -2.735  12.672  20.491  0.00  0.00    +0.000 C 
ATOM      8  C   UNL     1      -2.021  13.962  20.104  0.00  0.00    +0.000 C 
BRANCH   7  14
ATOM      9  C   UNL     1      -4.866  13.411  22.713  0.00  0.00    +0.000 C 
ATOM     10  C   UNL     1      -6.217  13.107  23.385  0.00  0.00    +0.000 C 
ATOM     11  C   UNL     1      -7.211  13.443  22.291  0.00  0.00    +0.000 C 
ATOM     12  C   UNL     1      -6.516  12.954  21.035  0.00  0.00    +0.000 C 
ATOM     13  N   UNL     1      -5.093  12.888  21.356  0.00  0.00    +0.000 N 
ATOM     14  C   UNL     1      -4.239  12.785  20.278  0.00  0.00    +0.000 C 
ATOM     15  O   UNL     1      -4.721  12.711  19.142  0.00  0.00    +0.000 OA
BRANCH   9  16
ATOM     16  C   UNL     1      -3.777  12.925  23.681  0.00  0.00    +0.000 C 
ATOM     17  O   UNL     1      -3.464  11.766  23.902  0.00  0.00    +0.000 OA
BRANCH  16  19
ATOM     18  C   UNL     1      -3.021  15.197  23.527  0.00  0.00    +0.000 C 
ATOM     19  O   UNL     1      -3.262  14.026  24.312  0.00  0.00    +0.000 OA
ENDBRANCH  16  19
ENDBRANCH   9  16
ENDBRANCH   7  14
ENDBRANCH   1   7
BRANCH   1  20
ATOM     20  C   UNL     1      -0.805  10.774  20.175  0.00  0.00    +0.000 C 
ATOM     21  C   UNL     1      -0.501   9.583  20.720  0.00  0.00    +0.000 C 
BRANCH  21  22
ATOM     22  C   UNL     1       0.850   9.110  20.985  0.00  0.00    +0.000 C 
ATOM     23  C   UNL     1       1.203   8.936  22.444  0.00  0.00    +0.000 C 
ATOM     24  C   UNL     1       1.760   8.732  20.064  0.00  0.00    +0.000 C 
BRANCH  24  25
ATOM     25  C   UNL     1       1.690   8.544  18.559  0.00  0.00    +0.000 C 
ATOM     26  C   UNL     1       2.027   9.797  17.739  0.00  0.00    +0.000 C 
BRANCH  25  27
ATOM     27  C   UNL     1       2.432   7.286  18.020  0.00  0.00    +0.000 C 
BRANCH  27  28
ATOM     28  O   UNL     1       3.552   7.753  17.245  0.00  0.00    +0.000 OA
ATOM     29  C   UNL     1       4.706   6.930  17.275  0.00  0.00    +0.000 C 
ENDBRANCH  27  28
BRANCH  27  30
ATOM     30  C   UNL     1       2.874   6.272  19.109  0.00  0.00    +0.000 C 
BRANCH  30  31
ATOM     31  C   UNL     1       2.197   4.913  19.190  0.00  0.00    +0.000 A 
ATOM     32  C   UNL     1       2.310   3.935  18.191  0.00  0.00    +0.000 A 
ATOM     33  C   UNL     1       1.677   2.693  18.336  0.00  0.00    +0.000 A 
ATOM     34  C   UNL     1       0.947   2.404  19.487  0.00  0.00    +0.000 A 
ATOM     35  C   UNL     1       0.854   3.350  20.502  0.00  0.00    +0.000 A 
ATOM     36  C   UNL     1       1.482   4.593  20.361  0.00  0.00    +0.000 A 
ENDBRANCH  30  31
ENDBRANCH  27  30
ENDBRANCH  25  27
ENDBRANCH  24  25
ENDBRANCH  21  22
ENDBRANCH   1  20
TORSDOF 12
ENDMDL
MODEL 4
REMARK VINA RESULT:      -6.9      2.396      4.583
REMARK  Name = 
REMARK  18 active torsions:
REMARK  status: ('A' for Active; 'I' for Inactive)
REMARK    1  A    between atoms: C_1  and  O_2
REMARK    2  A    between atoms: O_2  and  C_3
REMARK    3  A    between atoms: C_3  and  C_5
REMARK    4  A    between atoms: C_10  and  C_12
REMARK    5  A    between atoms: C_12  and  C_13
REMARK    6  A    between atoms: C_12  and  C_14
REMARK    7  A    between atoms: C_14  and  C_15
REMARK    8  A    between atoms: C_14  and  N_32
REMARK    9  A    between atoms: C_16  and  C_17
REMARK   10  A    between atoms: C_17  and  C_18
REMARK   11  A    between atoms: C_19  and  C_20
REMARK   12  A    between atoms: C_20  and  C_21
REMARK   13  A    between atoms: C_20  and  C_22
REMARK   14  A    between atoms: C_22  and  C_23
REMARK   15  A    between atoms: C_22  and  O_30
REMARK   16  A    between atoms: C_23  and  C_24
REMARK   17  A    between atoms: O_30  and  C_31
REMARK   18  A    between atoms: C_33  and  C_34
REMARK                            x       y       z     vdW  Elec       q    Type
REMARK                         _______ _______ _______ _____ _____    ______ ____
ROOT
ATOM      1  C   UNL     1       1.506   9.241  19.807  0.00  0.00    +0.000 C 
ENDROOT
BRANCH   1   2
ATOM      2  N   UNL     1       0.553   9.109  20.913  0.00  0.00    +0.000 N 
ATOM      3  C   UNL     1       0.370  10.057  21.892  0.00  0.00    +0.000 C 
ATOM      4  C   UNL     1      -0.720   9.716  22.878  0.00  0.00    +0.000 C 
ATOM      5  O   UNL     1       1.015  11.096  21.976  0.00  0.00    +0.000 OA
ATOM      6  H   UNL     1       0.098   8.209  21.009  0.00  0.00    +0.000 HD
ENDBRANCH   1   2
BRANCH   1   7
ATOM      7  C   UNL     1       1.000  10.359  18.836  0.00  0.00    +0.000 C 
ATOM      8  C   UNL     1       2.093  11.022  18.005  0.00  0.00    +0.000 C 
BRANCH   7  14
ATOM      9  C   UNL     1      -1.821  11.759  18.507  0.00  0.00    +0.000 C 
ATOM     10  C   UNL     1      -3.353  11.622  18.464  0.00  0.00    +0.000 C 
ATOM     11  C   UNL     1      -3.577  10.826  17.194  0.00  0.00    +0.000 C 
ATOM     12  C   UNL     1      -2.424   9.842  17.199  0.00  0.00    +0.000 C 
ATOM     13  N   UNL     1      -1.398  10.420  18.064  0.00  0.00    +0.000 N 
ATOM     14  C   UNL     1      -0.141   9.863  17.959  0.00  0.00    +0.000 C 
ATOM     15  O   UNL     1       0.024   8.907  17.193  0.00  0.00    +0.000 OA
BRANCH   9  16
ATOM     16  C   UNL     1      -1.476  12.395  19.861  0.00  0.00    +0.000 C 
ATOM     17  O   UNL     1      -2.089  12.258  20.907  0.00  0.00    +0.000 OA
BRANCH  16  19
ATOM     18  C   UNL     1      -0.263  13.874  18.413  0.00  0.00    +0.000 C 
ATOM     19  O   UNL     1      -0.391  13.209  19.673  0.00  0.00    +0.000 OA
ENDBRANCH  16  19
ENDBRANCH   9  16
ENDBRANCH   7  14
ENDBRANCH   1   7
BRANCH   1  20
ATOM     20  C   UNL     1       1.855   7.826  19.368  0.00  0.00    +0.000 C 
ATOM     21  C   UNL     1       2.751   7.392  18.464  0.00  0.00    +0.000 C 
BRANCH  21  22
ATOM     22  C   UNL     1       3.005   5.994  18.151  0.00  0.00    +0.000 C 
ATOM     23  C   UNL     1       1.792   5.184  17.759  0.00  0.00    +0.000 C 
ATOM     24  C   UNL     1       4.213   5.395  18.088  0.00  0.00    +0.000 C 
BRANCH  24  25
ATOM     25  C   UNL     1       5.633   5.923  18.179  0.00  0.00    +0.000 C 
ATOM     26  C   UNL     1       6.463   5.342  19.332  0.00  0.00    +0.000 C 
BRANCH  25  27
ATOM     27  C   UNL     1       6.424   5.912  16.837  0.00  0.00    +0.000 C 
BRANCH  27  28
ATOM     28  O   UNL     1       7.703   6.521  17.093  0.00  0.00    +0.000 OA
ATOM     29  C   UNL     1       7.677   7.908  17.382  0.00  0.00    +0.000 C 
ENDBRANCH  27  28
BRANCH  27  30
ATOM     30  C   UNL     1       6.578   4.513  16.183  0.00  0.00    +0.000 C 
BRANCH  30  31
ATOM     31  C   UNL     1       6.703   4.400  14.671  0.00  0.00    +0.000 A 
ATOM     32  C   UNL     1       5.893   3.563  13.891  0.00  0.00    +0.000 A 
ATOM     33  C   UNL     1       6.046   3.520  12.499  0.00  0.00    +0.000 A 
ATOM     34  C   UNL     1       6.990   4.327  11.868  0.00  0.00    +0.000 A 
ATOM     35  C   UNL     1       7.779   5.187  12.624  0.00  0.00    +0.000 A 
ATOM     36  C   UNL     1       7.632   5.232  14.015  0.00  0.00    +0.000 A 
ENDBRANCH  30  31
ENDBRANCH  27  30
ENDBRANCH  25  27
ENDBRANCH  24  25
ENDBRANCH  21  22
ENDBRANCH   1  20
TORSDOF 12
ENDMDL
MODEL 5
REMARK VINA RESULT:      -6.9      2.885      9.216
REMARK  Name = 
REMARK  18 active torsions:
REMARK  status: ('A' for Active; 'I' for Inactive)
REMARK    1  A    between atoms: C_1  and  O_2
REMARK    2  A    between atoms: O_2  and  C_3
REMARK    3  A    between atoms: C_3  and  C_5
REMARK    4  A    between atoms: C_10  and  C_12
REMARK    5  A    between atoms: C_12  and  C_13
REMARK    6  A    between atoms: C_12  and  C_14
REMARK    7  A    between atoms: C_14  and  C_15
REMARK    8  A    between atoms: C_14  and  N_32
REMARK    9  A    between atoms: C_16  and  C_17
REMARK   10  A    between atoms: C_17  and  C_18
REMARK   11  A    between atoms: C_19  and  C_20
REMARK   12  A    between atoms: C_20  and  C_21
REMARK   13  A    between atoms: C_20  and  C_22
REMARK   14  A    between atoms: C_22  and  C_23
REMARK   15  A    between atoms: C_22  and  O_30
REMARK   16  A    between atoms: C_23  and  C_24
REMARK   17  A    between atoms: O_30  and  C_31
REMARK   18  A    between atoms: C_33  and  C_34
REMARK                            x       y       z     vdW  Elec       q    Type
REMARK                         _______ _______ _______ _____ _____    ______ ____
ROOT
ATOM      1  C   UNL     1       2.899   4.966  18.373  0.00  0.00    +0.000 C 
ENDROOT
BRANCH   1   2
ATOM      2  N   UNL     1       2.124   4.483  19.521  0.00  0.00    +0.000 N 
ATOM      3  C   UNL     1       1.382   3.326  19.520  0.00  0.00    +0.000 C 
ATOM      4  C   UNL     1       0.734   3.014  20.846  0.00  0.00    +0.000 C 
ATOM      5  O   UNL     1       1.248   2.593  18.547  0.00  0.00    +0.000 OA
ATOM      6  H   UNL     1       2.050   5.115  20.310  0.00  0.00    +0.000 HD
ENDBRANCH   1   2
BRANCH   1   7
ATOM      7  C   UNL     1       4.342   4.365  18.451  0.00  0.00    +0.000 C 
ATOM      8  C   UNL     1       4.660   3.644  19.755  0.00  0.00    +0.000 C 
BRANCH   7  14
ATOM      9  C   UNL     1       6.052   5.227  15.929  0.00  0.00    +0.000 C 
ATOM     10  C   UNL     1       6.195   5.272  14.398  0.00  0.00    +0.000 C 
ATOM     11  C   UNL     1       6.367   3.810  14.040  0.00  0.00    +0.000 C 
ATOM     12  C   UNL     1       5.422   3.110  14.997  0.00  0.00    +0.000 C 
ATOM     13  N   UNL     1       5.206   4.036  16.106  0.00  0.00    +0.000 N 
ATOM     14  C   UNL     1       4.647   3.490  17.243  0.00  0.00    +0.000 C 
ATOM     15  O   UNL     1       4.333   2.294  17.236  0.00  0.00    +0.000 OA
BRANCH   9  16
ATOM     16  C   UNL     1       5.686   6.650  16.377  0.00  0.00    +0.000 C 
ATOM     17  O   UNL     1       5.007   7.455  15.760  0.00  0.00    +0.000 OA
BRANCH  16  19
ATOM     18  C   UNL     1       7.681   7.320  17.528  0.00  0.00    +0.000 C 
ATOM     19  O   UNL     1       6.319   6.885  17.568  0.00  0.00    +0.000 OA
ENDBRANCH  16  19
ENDBRANCH   9  16
ENDBRANCH   7  14
ENDBRANCH   1   7
BRANCH   1  20
ATOM     20  C   UNL     1       2.602   6.453  18.248  0.00  0.00    +0.000 C 
ATOM     21  C   UNL     1       2.089   7.317  19.142  0.00  0.00    +0.000 C 
BRANCH  21  22
ATOM     22  C   UNL     1       1.876   8.736  18.901  0.00  0.00    +0.000 C 
ATOM     23  C   UNL     1       2.406   9.259  17.586  0.00  0.00    +0.000 C 
ATOM     24  C   UNL     1       1.179   9.585  19.684  0.00  0.00    +0.000 C 
BRANCH  24  25
ATOM     25  C   UNL     1       0.323   9.382  20.922  0.00  0.00    +0.000 C 
ATOM     26  C   UNL     1       1.113   9.139  22.216  0.00  0.00    +0.000 C 
BRANCH  25  27
ATOM     27  C   UNL     1      -0.802  10.439  21.123  0.00  0.00    +0.000 C 
BRANCH  27  28
ATOM     28  O   UNL     1      -0.537  11.110  22.369  0.00  0.00    +0.000 OA
ATOM     29  C   UNL     1      -1.676  11.432  23.149  0.00  0.00    +0.000 C 
ENDBRANCH  27  28
BRANCH  27  30
ATOM     30  C   UNL     1      -0.965  11.448  19.955  0.00  0.00    +0.000 C 
BRANCH  30  31
ATOM     31  C   UNL     1      -1.927  11.134  18.819  0.00  0.00    +0.000 A 
ATOM     32  C   UNL     1      -3.180  11.747  18.678  0.00  0.00    +0.000 A 
ATOM     33  C   UNL     1      -4.010  11.428  17.596  0.00  0.00    +0.000 A 
ATOM     34  C   UNL     1      -3.592  10.514  16.631  0.00  0.00    +0.000 A 
ATOM     35  C   UNL     1      -2.338   9.922  16.738  0.00  0.00    +0.000 A 
ATOM     36  C   UNL     1      -1.505  10.235  17.818  0.00  0.00    +0.000 A 
ENDBRANCH  30  31
ENDBRANCH  27  30
ENDBRANCH  25  27
ENDBRANCH  24  25
ENDBRANCH  21  22
ENDBRANCH   1  20
TORSDOF 12
ENDMDL
MODEL 6
REMARK VINA RESULT:      -6.9      1.386      3.107
REMARK  Name = 
REMARK  18 active torsions:
REMARK  status: ('A' for Active; 'I' for Inactive)
REMARK    1  A    between atoms: C_1  and  O_2
REMARK    2  A    between atoms: O_2  and  C_3
REMARK    3  A    between atoms: C_3  and  C_5
REMARK    4  A    between atoms: C_10  and  C_12
REMARK    5  A    between atoms: C_12  and  C_13
REMARK    6  A    between atoms: C_12  and  C_14
REMARK    7  A    between atoms: C_14  and  C_15
REMARK    8  A    between atoms: C_14  and  N_32
REMARK    9  A    between atoms: C_16  and  C_17
REMARK   10  A    between atoms: C_17  and  C_18
REMARK   11  A    between atoms: C_19  and  C_20
REMARK   12  A    between atoms: C_20  and  C_21
REMARK   13  A    between atoms: C_20  and  C_22
REMARK   14  A    between atoms: C_22  and  C_23
REMARK   15  A    between atoms: C_22  and  O_30
REMARK   16  A    between atoms: C_23  and  C_24
REMARK   17  A    between atoms: O_30  and  C_31
REMARK   18  A    between atoms: C_33  and  C_34
REMARK                            x       y       z     vdW  Elec       q    Type
REMARK                         _______ _______ _______ _____ _____    ______ ____
ROOT
ATOM      1  C   UNL     1       0.490  10.529  19.624  0.00  0.00    +0.000 C 
ENDROOT
BRANCH   1   2
ATOM      2  N   UNL     1       1.420  11.496  20.216  0.00  0.00    +0.000 N 
ATOM      3  C   UNL     1       1.739  12.707  19.649  0.00  0.00    +0.000 C 
ATOM      4  C   UNL     1       2.667  13.551  20.489  0.00  0.00    +0.000 C 
ATOM      5  O   UNL     1       1.317  13.095  18.565  0.00  0.00    +0.000 OA
ATOM      6  H   UNL     1       1.937  11.182  21.028  0.00  0.00    +0.000 HD
ENDBRANCH   1   2
BRANCH   1   7
ATOM      7  C   UNL     1      -0.525  10.069  20.724  0.00  0.00    +0.000 C 
ATOM      8  C   UNL     1      -0.171   8.750  21.402  0.00  0.00    +0.000 C 
BRANCH   7  14
ATOM      9  C   UNL     1      -2.773  12.290  20.531  0.00  0.00    +0.000 C 
ATOM     10  C   UNL     1      -3.161  13.774  20.651  0.00  0.00    +0.000 C 
ATOM     11  C   UNL     1      -3.001  14.037  22.135  0.00  0.00    +0.000 C 
ATOM     12  C   UNL     1      -1.768  13.230  22.494  0.00  0.00    +0.000 C 
ATOM     13  N   UNL     1      -1.629  12.214  21.454  0.00  0.00    +0.000 N 
ATOM     14  C   UNL     1      -0.777  11.169  21.746  0.00  0.00    +0.000 C 
ATOM     15  O   UNL     1      -0.168  11.181  22.821  0.00  0.00    +0.000 OA
BRANCH   9  16
ATOM     16  C   UNL     1      -2.724  11.970  19.029  0.00  0.00    +0.000 C 
ATOM     17  O   UNL     1      -1.825  12.255  18.254  0.00  0.00    +0.000 OA
BRANCH  16  19
ATOM     18  C   UNL     1      -4.443  11.623  17.393  0.00  0.00    +0.000 C 
ATOM     19  O   UNL     1      -3.908  11.369  18.694  0.00  0.00    +0.000 OA
ENDBRANCH  16  19
ENDBRANCH   9  16
ENDBRANCH   7  14
ENDBRANCH   1   7
BRANCH   1  20
ATOM     20  C   UNL     1       1.331   9.575  18.790  0.00  0.00    +0.000 C 
ATOM     21  C   UNL     1       1.811   8.354  19.085  0.00  0.00    +0.000 C 
BRANCH  21  22
ATOM     22  C   UNL     1       2.593   7.526  18.178  0.00  0.00    +0.000 C 
ATOM     23  C   UNL     1       3.560   8.270  17.288  0.00  0.00    +0.000 C 
ATOM     24  C   UNL     1       2.599   6.177  18.131  0.00  0.00    +0.000 C 
BRANCH  24  25
ATOM     25  C   UNL     1       1.963   5.110  19.003  0.00  0.00    +0.000 C 
ATOM     26  C   UNL     1       1.316   3.951  18.231  0.00  0.00    +0.000 C 
BRANCH  25  27
ATOM     27  C   UNL     1       2.856   4.598  20.170  0.00  0.00    +0.000 C 
BRANCH  27  28
ATOM     28  O   UNL     1       1.996   3.892  21.085  0.00  0.00    +0.000 OA
ATOM     29  C   UNL     1       2.477   2.637  21.536  0.00  0.00    +0.000 C 
ENDBRANCH  27  28
BRANCH  27  30
ATOM     30  C   UNL     1       4.064   3.726  19.734  0.00  0.00    +0.000 C 
BRANCH  30  31
ATOM     31  C   UNL     1       5.105   4.304  18.788  0.00  0.00    +0.000 A 
ATOM     32  C   UNL     1       6.084   5.225  19.189  0.00  0.00    +0.000 A 
ATOM     33  C   UNL     1       7.028   5.704  18.272  0.00  0.00    +0.000 A 
ATOM     34  C   UNL     1       7.024   5.253  16.954  0.00  0.00    +0.000 A 
ATOM     35  C   UNL     1       6.081   4.314  16.549  0.00  0.00    +0.000 A 
ATOM     36  C   UNL     1       5.134   3.834  17.460  0.00  0.00    +0.000 A 
ENDBRANCH  30  31
ENDBRANCH  27  30
ENDBRANCH  25  27
ENDBRANCH  24  25
ENDBRANCH  21  22
ENDBRANCH   1  20
TORSDOF 12
ENDMDL
MODEL 7
REMARK VINA RESULT:      -6.8      1.780      2.767
REMARK  Name = 
REMARK  18 active torsions:
REMARK  status: ('A' for Active; 'I' for Inactive)
REMARK    1  A    between atoms: C_1  and  O_2
REMARK    2  A    between atoms: O_2  and  C_3
REMARK    3  A    between atoms: C_3  and  C_5
REMARK    4  A    between atoms: C_10  and  C_12
REMARK    5  A    between atoms: C_12  and  C_13
REMARK    6  A    between atoms: C_12  and  C_14
REMARK    7  A    between atoms: C_14  and  C_15
REMARK    8  A    between atoms: C_14  and  N_32
REMARK    9  A    between atoms: C_16  and  C_17
REMARK   10  A    between atoms: C_17  and  C_18
REMARK   11  A    between atoms: C_19  and  C_20
REMARK   12  A    between atoms: C_20  and  C_21
REMARK   13  A    between atoms: C_20  and  C_22
REMARK   14  A    between atoms: C_22  and  C_23
REMARK   15  A    between atoms: C_22  and  O_30
REMARK   16  A    between atoms: C_23  and  C_24
REMARK   17  A    between atoms: O_30  and  C_31
REMARK   18  A    between atoms: C_33  and  C_34
REMARK                            x       y       z     vdW  Elec       q    Type
REMARK                         _______ _______ _______ _____ _____    ______ ____
ROOT
ATOM      1  C   UNL     1      -0.320   9.899  20.217  0.00  0.00    +0.000 C 
ENDROOT
BRANCH   1   2
ATOM      2  N   UNL     1      -0.856  10.873  19.261  0.00  0.00    +0.000 N 
ATOM      3  C   UNL     1      -1.832  10.590  18.335  0.00  0.00    +0.000 C 
ATOM      4  C   UNL     1      -2.261  11.781  17.514  0.00  0.00    +0.000 C 
ATOM      5  O   UNL     1      -2.330   9.481  18.174  0.00  0.00    +0.000 OA
ATOM      6  H   UNL     1      -0.382  11.768  19.218  0.00  0.00    +0.000 HD
ENDBRANCH   1   2
BRANCH   1   7
ATOM      7  C   UNL     1      -0.347  10.531  21.648  0.00  0.00    +0.000 C 
ATOM      8  C   UNL     1       0.199   9.631  22.751  0.00  0.00    +0.000 C 
BRANCH   7  14
ATOM      9  C   UNL     1      -1.483  13.120  23.075  0.00  0.00    +0.000 C 
ATOM     10  C   UNL     1      -1.792  14.625  23.002  0.00  0.00    +0.000 C 
ATOM     11  C   UNL     1      -0.409  15.243  22.939  0.00  0.00    +0.000 C 
ATOM     12  C   UNL     1       0.358  14.273  22.061  0.00  0.00    +0.000 C 
ATOM     13  N   UNL     1      -0.367  13.007  22.122  0.00  0.00    +0.000 N 
ATOM     14  C   UNL     1       0.320  11.900  21.668  0.00  0.00    +0.000 C 
ATOM     15  O   UNL     1       1.458  12.052  21.211  0.00  0.00    +0.000 OA
BRANCH   9  16
ATOM     16  C   UNL     1      -2.829  12.390  22.955  0.00  0.00    +0.000 C 
ATOM     17  O   UNL     1      -3.379  11.729  23.822  0.00  0.00    +0.000 OA
BRANCH  16  19
ATOM     18  C   UNL     1      -4.684  12.693  21.464  0.00  0.00    +0.000 C 
ATOM     19  O   UNL     1      -3.276  12.552  21.671  0.00  0.00    +0.000 OA
ENDBRANCH  16  19
ENDBRANCH   9  16
ENDBRANCH   7  14
ENDBRANCH   1   7
BRANCH   1  20
ATOM     20  C   UNL     1       0.924   9.304  19.574  0.00  0.00    +0.000 C 
ATOM     21  C   UNL     1       1.199   8.035  19.223  0.00  0.00    +0.000 C 
BRANCH  21  22
ATOM     22  C   UNL     1       2.433   7.597  18.586  0.00  0.00    +0.000 C 
ATOM     23  C   UNL     1       3.038   8.570  17.602  0.00  0.00    +0.000 C 
ATOM     24  C   UNL     1       3.118   6.467  18.862  0.00  0.00    +0.000 C 
BRANCH  24  25
ATOM     25  C   UNL     1       2.957   5.395  19.924  0.00  0.00    +0.000 C 
ATOM     26  C   UNL     1       1.641   5.462  20.712  0.00  0.00    +0.000 C 
BRANCH  25  27
ATOM     27  C   UNL     1       3.270   3.946  19.448  0.00  0.00    +0.000 C 
BRANCH  27  28
ATOM     28  O   UNL     1       2.548   3.738  18.219  0.00  0.00    +0.000 OA
ATOM     29  C   UNL     1       2.272   2.388  17.889  0.00  0.00    +0.000 C 
ENDBRANCH  27  28
BRANCH  27  30
ATOM     30  C   UNL     1       4.779   3.625  19.284  0.00  0.00    +0.000 C 
BRANCH  30  31
ATOM     31  C   UNL     1       5.665   4.563  18.478  0.00  0.00    +0.000 A 
ATOM     32  C   UNL     1       5.551   4.728  17.090  0.00  0.00    +0.000 A 
ATOM     33  C   UNL     1       6.385   5.624  16.410  0.00  0.00    +0.000 A 
ATOM     34  C   UNL     1       7.324   6.383  17.106  0.00  0.00    +0.000 A 
ATOM     35  C   UNL     1       7.427   6.255  18.487  0.00  0.00    +0.000 A 
ATOM     36  C   UNL     1       6.598   5.359  19.172  0.00  0.00    +0.000 A 
ENDBRANCH  30  31
ENDBRANCH  27  30
ENDBRANCH  25  27
ENDBRANCH  24  25
ENDBRANCH  21  22
ENDBRANCH   1  20
TORSDOF 12
ENDMDL
MODEL 8
REMARK VINA RESULT:      -6.7      2.315      3.533
REMARK  Name = 
REMARK  18 active torsions:
REMARK  status: ('A' for Active; 'I' for Inactive)
REMARK    1  A    between atoms: C_1  and  O_2
REMARK    2  A    between atoms: O_2  and  C_3
REMARK    3  A    between atoms: C_3  and  C_5
REMARK    4  A    between atoms: C_10  and  C_12
REMARK    5  A    between atoms: C_12  and  C_13
REMARK    6  A    between atoms: C_12  and  C_14
REMARK    7  A    between atoms: C_14  and  C_15
REMARK    8  A    between atoms: C_14  and  N_32
REMARK    9  A    between atoms: C_16  and  C_17
REMARK   10  A    between atoms: C_17  and  C_18
REMARK   11  A    between atoms: C_19  and  C_20
REMARK   12  A    between atoms: C_20  and  C_21
REMARK   13  A    between atoms: C_20  and  C_22
REMARK   14  A    between atoms: C_22  and  C_23
REMARK   15  A    between atoms: C_22  and  O_30
REMARK   16  A    between atoms: C_23  and  C_24
REMARK   17  A    between atoms: O_30  and  C_31
REMARK   18  A    between atoms: C_33  and  C_34
REMARK                            x       y       z     vdW  Elec       q    Type
REMARK                         _______ _______ _______ _____ _____    ______ ____
ROOT
ATOM      1  C   UNL     1      -1.767  11.090  19.772  0.00  0.00    +0.000 C 
ENDROOT
BRANCH   1   2
ATOM      2  N   UNL     1      -1.693  11.040  18.308  0.00  0.00    +0.000 N 
ATOM      3  C   UNL     1      -2.514  10.271  17.519  0.00  0.00    +0.000 C 
ATOM      4  C   UNL     1      -2.282  10.449  16.038  0.00  0.00    +0.000 C 
ATOM      5  O   UNL     1      -3.370   9.507  17.951  0.00  0.00    +0.000 OA
ATOM      6  H   UNL     1      -0.906  11.516  17.883  0.00  0.00    +0.000 HD
ENDBRANCH   1   2
BRANCH   1   7
ATOM      7  C   UNL     1      -2.194  12.532  20.205  0.00  0.00    +0.000 C 
ATOM      8  C   UNL     1      -1.511  13.656  19.434  0.00  0.00    +0.000 C 
BRANCH   7  14
ATOM      9  C   UNL     1      -3.969  13.460  22.659  0.00  0.00    +0.000 C 
ATOM     10  C   UNL     1      -5.221  13.241  23.525  0.00  0.00    +0.000 C 
ATOM     11  C   UNL     1      -6.347  13.562  22.563  0.00  0.00    +0.000 C 
ATOM     12  C   UNL     1      -5.851  12.987  21.251  0.00  0.00    +0.000 C 
ATOM     13  N   UNL     1      -4.399  12.881  21.375  0.00  0.00    +0.000 N 
ATOM     14  C   UNL     1      -3.708  12.693  20.196  0.00  0.00    +0.000 C 
ATOM     15  O   UNL     1      -4.346  12.585  19.143  0.00  0.00    +0.000 OA
BRANCH   9  16
ATOM     16  C   UNL     1      -2.771  12.978  23.491  0.00  0.00    +0.000 C 
ATOM     17  O   UNL     1      -2.220  11.892  23.413  0.00  0.00    +0.000 OA
BRANCH  16  19
ATOM     18  C   UNL     1      -1.377  14.834  24.098  0.00  0.00    +0.000 C 
ATOM     19  O   UNL     1      -2.471  13.963  24.395  0.00  0.00    +0.000 OA
ENDBRANCH  16  19
ENDBRANCH   9  16
ENDBRANCH   7  14
ENDBRANCH   1   7
BRANCH   1  20
ATOM     20  C   UNL     1      -0.528  10.377  20.291  0.00  0.00    +0.000 C 
ATOM     21  C   UNL     1      -0.041   9.157  20.004  0.00  0.00    +0.000 C 
BRANCH  21  22
ATOM     22  C   UNL     1       1.182   8.597  20.560  0.00  0.00    +0.000 C 
ATOM     23  C   UNL     1       1.369   8.790  22.047  0.00  0.00    +0.000 C 
ATOM     24  C   UNL     1       2.096   7.857  19.898  0.00  0.00    +0.000 C 
BRANCH  24  25
ATOM     25  C   UNL     1       2.131   7.269  18.499  0.00  0.00    +0.000 C 
ATOM     26  C   UNL     1       2.643   8.224  17.413  0.00  0.00    +0.000 C 
BRANCH  25  27
ATOM     27  C   UNL     1       2.798   5.866  18.394  0.00  0.00    +0.000 C 
BRANCH  27  28
ATOM     28  O   UNL     1       1.760   4.927  18.055  0.00  0.00    +0.000 OA
ATOM     29  C   UNL     1       1.770   3.710  18.782  0.00  0.00    +0.000 C 
ENDBRANCH  27  28
BRANCH  27  30
ATOM     30  C   UNL     1       3.989   5.783  17.403  0.00  0.00    +0.000 C 
BRANCH  30  31
ATOM     31  C   UNL     1       5.403   6.036  17.904  0.00  0.00    +0.000 A 
ATOM     32  C   UNL     1       5.976   5.342  18.979  0.00  0.00    +0.000 A 
ATOM     33  C   UNL     1       7.292   5.609  19.378  0.00  0.00    +0.000 A 
ATOM     34  C   UNL     1       8.059   6.551  18.695  0.00  0.00    +0.000 A 
ATOM     35  C   UNL     1       7.516   7.225  17.606  0.00  0.00    +0.000 A 
ATOM     36  C   UNL     1       6.201   6.963  17.204  0.00  0.00    +0.000 A 
ENDBRANCH  30  31
ENDBRANCH  27  30
ENDBRANCH  25  27
ENDBRANCH  24  25
ENDBRANCH  21  22
ENDBRANCH   1  20
TORSDOF 12
ENDMDL
MODEL 9
REMARK VINA RESULT:      -6.7      2.928      9.888
REMARK  Name = 
REMARK  18 active torsions:
REMARK  status: ('A' for Active; 'I' for Inactive)
REMARK    1  A    between atoms: C_1  and  O_2
REMARK    2  A    between atoms: O_2  and  C_3
REMARK    3  A    between atoms: C_3  and  C_5
REMARK    4  A    between atoms: C_10  and  C_12
REMARK    5  A    between atoms: C_12  and  C_13
REMARK    6  A    between atoms: C_12  and  C_14
REMARK    7  A    between atoms: C_14  and  C_15
REMARK    8  A    between atoms: C_14  and  N_32
REMARK    9  A    between atoms: C_16  and  C_17
REMARK   10  A    between atoms: C_17  and  C_18
REMARK   11  A    between atoms: C_19  and  C_20
REMARK   12  A    between atoms: C_20  and  C_21
REMARK   13  A    between atoms: C_20  and  C_22
REMARK   14  A    between atoms: C_22  and  C_23
REMARK   15  A    between atoms: C_22  and  O_30
REMARK   16  A    between atoms: C_23  and  C_24
REMARK   17  A    between atoms: O_30  and  C_31
REMARK   18  A    between atoms: C_33  and  C_34
REMARK                            x       y       z     vdW  Elec       q    Type
REMARK                         _______ _______ _______ _____ _____    ______ ____
ROOT
ATOM      1  C   UNL     1       2.875   5.436  18.605  0.00  0.00    +0.000 C 
ENDROOT
BRANCH   1   2
ATOM      2  N   UNL     1       2.466   5.023  19.951  0.00  0.00    +0.000 N 
ATOM      3  C   UNL     1       1.676   3.929  20.216  0.00  0.00    +0.000 C 
ATOM      4  C   UNL     1       1.455   3.676  21.687  0.00  0.00    +0.000 C 
ATOM      5  O   UNL     1       1.190   3.204  19.356  0.00  0.00    +0.000 OA
ATOM      6  H   UNL     1       2.690   5.662  20.704  0.00  0.00    +0.000 HD
ENDBRANCH   1   2
BRANCH   1   7
ATOM      7  C   UNL     1       4.270   4.804  18.286  0.00  0.00    +0.000 C 
ATOM      8  C   UNL     1       4.702   3.700  19.245  0.00  0.00    +0.000 C 
BRANCH   7  14
ATOM      9  C   UNL     1       6.874   4.859  16.485  0.00  0.00    +0.000 C 
ATOM     10  C   UNL     1       7.525   5.208  15.135  0.00  0.00    +0.000 C 
ATOM     11  C   UNL     1       6.866   4.225  14.188  0.00  0.00    +0.000 C 
ATOM     12  C   UNL     1       5.438   4.168  14.694  0.00  0.00    +0.000 C 
ATOM     13  N   UNL     1       5.478   4.623  16.081  0.00  0.00    +0.000 N 
ATOM     14  C   UNL     1       4.358   4.345  16.837  0.00  0.00    +0.000 C 
ATOM     15  O   UNL     1       3.400   3.783  16.295  0.00  0.00    +0.000 OA
BRANCH   9  16
ATOM     16  C   UNL     1       7.340   5.928  17.485  0.00  0.00    +0.000 C 
ATOM     17  O   UNL     1       7.768   5.733  18.612  0.00  0.00    +0.000 OA
BRANCH  16  19
ATOM     18  C   UNL     1       7.695   8.299  17.549  0.00  0.00    +0.000 C 
ATOM     19  O   UNL     1       7.122   7.153  16.915  0.00  0.00    +0.000 OA
ENDBRANCH  16  19
ENDBRANCH   9  16
ENDBRANCH   7  14
ENDBRANCH   1   7
BRANCH   1  20
ATOM     20  C   UNL     1       2.571   6.923  18.499  0.00  0.00    +0.000 C 
ATOM     21  C   UNL     1       1.776   7.704  19.252  0.00  0.00    +0.000 C 
BRANCH  21  22
ATOM     22  C   UNL     1       1.588   9.134  19.056  0.00  0.00    +0.000 C 
ATOM     23  C   UNL     1       2.074   9.679  17.733  0.00  0.00    +0.000 C 
ATOM     24  C   UNL     1       0.949   9.979  19.892  0.00  0.00    +0.000 C 
BRANCH  24  25
ATOM     25  C   UNL     1       0.144   9.764  21.161  0.00  0.00    +0.000 C 
ATOM     26  C   UNL     1       0.804   8.837  22.191  0.00  0.00    +0.000 C 
BRANCH  25  27
ATOM     27  C   UNL     1      -0.399  11.065  21.821  0.00  0.00    +0.000 C 
BRANCH  27  28
ATOM     28  O   UNL     1       0.703  11.986  21.916  0.00  0.00    +0.000 OA
ATOM     29  C   UNL     1       0.494  13.259  21.328  0.00  0.00    +0.000 C 
ENDBRANCH  27  28
BRANCH  27  30
ATOM     30  C   UNL     1      -1.616  11.704  21.100  0.00  0.00    +0.000 C 
BRANCH  30  31
ATOM     31  C   UNL     1      -2.793  12.213  21.917  0.00  0.00    +0.000 A 
ATOM     32  C   UNL     1      -3.990  12.666  21.346  0.00  0.00    +0.000 A 
ATOM     33  C   UNL     1      -5.045  13.104  22.157  0.00  0.00    +0.000 A 
ATOM     34  C   UNL     1      -4.928  13.071  23.545  0.00  0.00    +0.000 A 
ATOM     35  C   UNL     1      -3.760  12.594  24.129  0.00  0.00    +0.000 A 
ATOM     36  C   UNL     1      -2.701  12.157  23.323  0.00  0.00    +0.000 A 
ENDBRANCH  30  31
ENDBRANCH  27  30
ENDBRANCH  25  27
ENDBRANCH  24  25
ENDBRANCH  21  22
ENDBRANCH   1  20
TORSDOF 12
ENDMDL
