MODEL 1
REMARK VINA RESULT:      -8.0      0.000      0.000
REMARK  Name = 
REMARK  3 active torsions:
REMARK  status: ('A' for Active; 'I' for Inactive)
REMARK    1  A    between atoms: C_4  and  C_5
REMARK    2  A    between atoms: C_13  and  C_15
REMARK    3  A    between atoms: C_21  and  C_22
REMARK                            x       y       z     vdW  Elec       q    Type
REMARK                         _______ _______ _______ _____ _____    ______ ____
ROOT
ATOM      1  O   UNL     1       2.564   9.156  17.190  0.00  0.00    +0.000 OA
ATOM      2  C   UNL     1       2.670   8.278  18.049  0.00  0.00    +0.000 C 
ATOM      3  C   UNL     1       3.525   7.063  17.805  0.00  0.00    +0.000 C 
ATOM      4  C   UNL     1       4.008   6.890  16.559  0.00  0.00    +0.000 C 
ATOM      5  C   UNL     1       3.784   6.152  18.960  0.00  0.00    +0.000 C 
ATOM      6  N   UNL     1       2.602   6.108  19.803  0.00  0.00    +0.000 N 
ATOM      7  C   UNL     1       1.723   5.034  19.978  0.00  0.00    +0.000 C 
ATOM      8  O   UNL     1       0.747   5.165  20.738  0.00  0.00    +0.000 OA
ATOM      9  C   UNL     1       2.301   7.384  20.434  0.00  0.00    +0.000 C 
ATOM     10  C   UNL     1       1.971   8.383  19.367  0.00  0.00    +0.000 C 
ATOM     11  C   UNL     1       1.079   9.383  19.506  0.00  0.00    +0.000 C 
ENDROOT
BRANCH   4  12
ATOM     12  C   UNL     1       4.844   5.766  16.124  0.00  0.00    +0.000 A 
ATOM     13  C   UNL     1       4.565   4.467  16.567  0.00  0.00    +0.000 A 
ATOM     14  C   UNL     1       5.332   3.389  16.118  0.00  0.00    +0.000 A 
ATOM     15  C   UNL     1       6.372   3.600  15.213  0.00  0.00    +0.000 A 
ATOM     16  C   UNL     1       6.663   4.892  14.778  0.00  0.00    +0.000 A 
ATOM     17  C   UNL     1       5.910   5.974  15.243  0.00  0.00    +0.000 A 
ENDBRANCH   4  12
BRANCH  11  18
ATOM     18  C   UNL     1       0.357   9.672  20.748  0.00  0.00    +0.000 A 
ATOM     19  C   UNL     1       0.072  10.996  21.096  0.00  0.00    +0.000 A 
ATOM     20  C   UNL     1      -0.612  11.281  22.279  0.00  0.00    +0.000 A 
ATOM     21  C   UNL     1      -1.019  10.243  23.116  0.00  0.00    +0.000 A 
ATOM     22  C   UNL     1      -0.730   8.921  22.777  0.00  0.00    +0.000 A 
ATOM     23  C   UNL     1      -0.039   8.635  21.598  0.00  0.00    +0.000 A 
ENDBRANCH  11  18
BRANCH   7  24
ATOM     24  C   UNL     1       1.937   3.677  19.249  0.00  0.00    +0.000 C 
ATOM     25  F   UNL     1       3.174   3.128  19.354  0.00  0.00    +0.000 F 
ATOM     26  F   UNL     1       1.077   2.724  19.710  0.00  0.00    +0.000 F 
ATOM     27  F   UNL     1       1.708   3.787  17.910  0.00  0.00    +0.000 F 
ENDBRANCH   7  24
TORSDOF 3
ENDMDL
MODEL 2
REMARK VINA RESULT:      -7.9      0.056      1.316
REMARK  Name = 
REMARK  3 active torsions:
REMARK  status: ('A' for Active; 'I' for Inactive)
REMARK    1  A    between atoms: C_4  and  C_5
REMARK    2  A    between atoms: C_13  and  C_15
REMARK    3  A    between atoms: C_21  and  C_22
REMARK                            x       y       z     vdW  Elec       q    Type
REMARK                         _______ _______ _______ _____ _____    ______ ____
ROOT
ATOM      1  O   UNL     1       2.549   9.186  17.193  0.00  0.00    +0.000 OA
ATOM      2  C   UNL     1       2.653   8.306  18.049  0.00  0.00    +0.000 C 
ATOM      3  C   UNL     1       3.498   7.085  17.799  0.00  0.00    +0.000 C 
ATOM      4  C   UNL     1       3.975   6.912  16.550  0.00  0.00    +0.000 C 
ATOM      5  C   UNL     1       3.755   6.169  18.950  0.00  0.00    +0.000 C 
ATOM      6  N   UNL     1       2.576   6.131  19.797  0.00  0.00    +0.000 N 
ATOM      7  C   UNL     1       1.691   5.064  19.974  0.00  0.00    +0.000 C 
ATOM      8  O   UNL     1       0.719   5.199  20.737  0.00  0.00    +0.000 OA
ATOM      9  C   UNL     1       2.287   7.408  20.434  0.00  0.00    +0.000 C 
ATOM     10  C   UNL     1       1.959   8.412  19.370  0.00  0.00    +0.000 C 
ATOM     11  C   UNL     1       1.076   9.418  19.515  0.00  0.00    +0.000 C 
ENDROOT
BRANCH   4  12
ATOM     12  C   UNL     1       4.801   5.783  16.109  0.00  0.00    +0.000 A 
ATOM     13  C   UNL     1       5.888   5.998  15.253  0.00  0.00    +0.000 A 
ATOM     14  C   UNL     1       6.703   4.931  14.867  0.00  0.00    +0.000 A 
ATOM     15  C   UNL     1       6.447   3.647  15.347  0.00  0.00    +0.000 A 
ATOM     16  C   UNL     1       5.360   3.424  16.190  0.00  0.00    +0.000 A 
ATOM     17  C   UNL     1       4.530   4.487  16.559  0.00  0.00    +0.000 A 
ENDBRANCH   4  12
BRANCH  11  18
ATOM     18  C   UNL     1       0.361   9.708  20.761  0.00  0.00    +0.000 A 
ATOM     19  C   UNL     1      -0.033   8.659  21.599  0.00  0.00    +0.000 A 
ATOM     20  C   UNL     1      -0.718   8.926  22.785  0.00  0.00    +0.000 A 
ATOM     21  C   UNL     1      -1.008  10.243  23.142  0.00  0.00    +0.000 A 
ATOM     22  C   UNL     1      -0.625  11.291  22.306  0.00  0.00    +0.000 A 
ATOM     23  C   UNL     1       0.054  11.026  21.115  0.00  0.00    +0.000 A 
ENDBRANCH  11  18
BRANCH   7  24
ATOM     24  C   UNL     1       1.892   3.707  19.240  0.00  0.00    +0.000 C 
ATOM     25  F   UNL     1       3.127   3.152  19.333  0.00  0.00    +0.000 F 
ATOM     26  F   UNL     1       1.031   2.757  19.705  0.00  0.00    +0.000 F 
ATOM     27  F   UNL     1       1.652   3.821  17.903  0.00  0.00    +0.000 F 
ENDBRANCH   7  24
TORSDOF 3
ENDMDL
MODEL 3
REMARK VINA RESULT:      -7.7      4.099      9.178
REMARK  Name = 
REMARK  3 active torsions:
REMARK  status: ('A' for Active; 'I' for Inactive)
REMARK    1  A    between atoms: C_4  and  C_5
REMARK    2  A    between atoms: C_13  and  C_15
REMARK    3  A    between atoms: C_21  and  C_22
REMARK                            x       y       z     vdW  Elec       q    Type
REMARK                         _______ _______ _______ _____ _____    ______ ____
ROOT
ATOM      1  O   UNL     1      -0.060   9.144  23.266  0.00  0.00    +0.000 OA
ATOM      2  C   UNL     1       0.086   9.720  22.187  0.00  0.00    +0.000 C 
ATOM      3  C   UNL     1      -0.431  11.119  21.986  0.00  0.00    +0.000 C 
ATOM      4  C   UNL     1      -1.211  11.633  22.958  0.00  0.00    +0.000 C 
ATOM      5  C   UNL     1      -0.033  11.836  20.737  0.00  0.00    +0.000 C 
ATOM      6  N   UNL     1       0.048  10.879  19.648  0.00  0.00    +0.000 N 
ATOM      7  C   UNL     1      -0.808  10.769  18.548  0.00  0.00    +0.000 C 
ATOM      8  O   UNL     1      -0.601   9.883  17.701  0.00  0.00    +0.000 OA
ATOM      9  C   UNL     1       1.103   9.894  19.829  0.00  0.00    +0.000 C 
ATOM     10  C   UNL     1       0.788   9.067  21.038  0.00  0.00    +0.000 C 
ATOM     11  C   UNL     1       1.092   7.762  21.173  0.00  0.00    +0.000 C 
ENDROOT
BRANCH   4  12
ATOM     12  C   UNL     1      -1.819  12.968  22.938  0.00  0.00    +0.000 A 
ATOM     13  C   UNL     1      -3.082  13.159  22.365  0.00  0.00    +0.000 A 
ATOM     14  C   UNL     1      -3.682  14.421  22.386  0.00  0.00    +0.000 A 
ATOM     15  C   UNL     1      -3.031  15.494  22.993  0.00  0.00    +0.000 A 
ATOM     16  C   UNL     1      -1.768  15.314  23.554  0.00  0.00    +0.000 A 
ATOM     17  C   UNL     1      -1.157  14.057  23.515  0.00  0.00    +0.000 A 
ENDBRANCH   4  12
BRANCH  11  18
ATOM     18  C   UNL     1       1.836   6.986  20.177  0.00  0.00    +0.000 A 
ATOM     19  C   UNL     1       2.041   5.616  20.373  0.00  0.00    +0.000 A 
ATOM     20  C   UNL     1       2.751   4.870  19.432  0.00  0.00    +0.000 A 
ATOM     21  C   UNL     1       3.257   5.489  18.288  0.00  0.00    +0.000 A 
ATOM     22  C   UNL     1       3.062   6.856  18.093  0.00  0.00    +0.000 A 
ATOM     23  C   UNL     1       2.358   7.605  19.038  0.00  0.00    +0.000 A 
ENDBRANCH  11  18
BRANCH   7  24
ATOM     24  C   UNL     1      -2.015  11.732  18.354  0.00  0.00    +0.000 C 
ATOM     25  F   UNL     1      -2.949  11.728  19.339  0.00  0.00    +0.000 F 
ATOM     26  F   UNL     1      -1.606  13.028  18.246  0.00  0.00    +0.000 F 
ATOM     27  F   UNL     1      -2.701  11.448  17.211  0.00  0.00    +0.000 F 
ENDBRANCH   7  24
TORSDOF 3
ENDMDL
MODEL 4
REMARK VINA RESULT:      -7.6      4.122      9.150
REMARK  Name = 
REMARK  3 active torsions:
REMARK  status: ('A' for Active; 'I' for Inactive)
REMARK    1  A    between atoms: C_4  and  C_5
REMARK    2  A    between atoms: C_13  and  C_15
REMARK    3  A    between atoms: C_21  and  C_22
REMARK                            x       y       z     vdW  Elec       q    Type
REMARK                         _______ _______ _______ _____ _____    ______ ____
ROOT
ATOM      1  O   UNL     1      -0.057   9.198  23.291  0.00  0.00    +0.000 OA
ATOM      2  C   UNL     1       0.079   9.765  22.206  0.00  0.00    +0.000 C 
ATOM      3  C   UNL     1      -0.442  11.162  21.997  0.00  0.00    +0.000 C 
ATOM      4  C   UNL     1      -1.214  11.683  22.971  0.00  0.00    +0.000 C 
ATOM      5  C   UNL     1      -0.056  11.868  20.739  0.00  0.00    +0.000 C 
ATOM      6  N   UNL     1       0.018  10.901  19.657  0.00  0.00    +0.000 N 
ATOM      7  C   UNL     1      -0.848  10.781  18.566  0.00  0.00    +0.000 C 
ATOM      8  O   UNL     1      -0.647   9.888  17.725  0.00  0.00    +0.000 OA
ATOM      9  C   UNL     1       1.076   9.919  19.837  0.00  0.00    +0.000 C 
ATOM     10  C   UNL     1       0.771   9.103  21.057  0.00  0.00    +0.000 C 
ATOM     11  C   UNL     1       1.079   7.799  21.200  0.00  0.00    +0.000 C 
ENDROOT
BRANCH   4  12
ATOM     12  C   UNL     1      -1.824  13.017  22.945  0.00  0.00    +0.000 A 
ATOM     13  C   UNL     1      -1.165  14.104  23.532  0.00  0.00    +0.000 A 
ATOM     14  C   UNL     1      -1.723  15.384  23.469  0.00  0.00    +0.000 A 
ATOM     15  C   UNL     1      -2.933  15.587  22.806  0.00  0.00    +0.000 A 
ATOM     16  C   UNL     1      -3.600  14.507  22.231  0.00  0.00    +0.000 A 
ATOM     17  C   UNL     1      -3.054  13.222  22.311  0.00  0.00    +0.000 A 
ENDBRANCH   4  12
BRANCH  11  18
ATOM     18  C   UNL     1       1.816   7.016  20.205  0.00  0.00    +0.000 A 
ATOM     19  C   UNL     1       2.331   7.645  19.066  0.00  0.00    +0.000 A 
ATOM     20  C   UNL     1       3.032   6.907  18.111  0.00  0.00    +0.000 A 
ATOM     21  C   UNL     1       3.223   5.537  18.292  0.00  0.00    +0.000 A 
ATOM     22  C   UNL     1       2.704   4.904  19.421  0.00  0.00    +0.000 A 
ATOM     23  C   UNL     1       1.997   5.640  20.374  0.00  0.00    +0.000 A 
ENDBRANCH  11  18
BRANCH   7  24
ATOM     24  C   UNL     1      -2.058  11.740  18.374  0.00  0.00    +0.000 C 
ATOM     25  F   UNL     1      -3.008  11.709  19.343  0.00  0.00    +0.000 F 
ATOM     26  F   UNL     1      -1.656  13.041  18.301  0.00  0.00    +0.000 F 
ATOM     27  F   UNL     1      -2.724  11.478  17.214  0.00  0.00    +0.000 F 
ENDBRANCH   7  24
TORSDOF 3
ENDMDL
MODEL 5
REMARK VINA RESULT:      -7.6      4.115      9.168
REMARK  Name = 
REMARK  3 active torsions:
REMARK  status: ('A' for Active; 'I' for Inactive)
REMARK    1  A    between atoms: C_4  and  C_5
REMARK    2  A    between atoms: C_13  and  C_15
REMARK    3  A    between atoms: C_21  and  C_22
REMARK                            x       y       z     vdW  Elec       q    Type
REMARK                         _______ _______ _______ _____ _____    ______ ____
ROOT
ATOM      1  O   UNL     1      -0.037   9.176  23.265  0.00  0.00    +0.000 OA
ATOM      2  C   UNL     1       0.104   9.744  22.181  0.00  0.00    +0.000 C 
ATOM      3  C   UNL     1      -0.408  11.144  21.973  0.00  0.00    +0.000 C 
ATOM      4  C   UNL     1      -1.178  11.668  22.946  0.00  0.00    +0.000 C 
ATOM      5  C   UNL     1      -0.015  11.849  20.716  0.00  0.00    +0.000 C 
ATOM      6  N   UNL     1       0.054  10.884  19.633  0.00  0.00    +0.000 N 
ATOM      7  C   UNL     1      -0.810  10.770  18.540  0.00  0.00    +0.000 C 
ATOM      8  O   UNL     1      -0.613   9.877  17.699  0.00  0.00    +0.000 OA
ATOM      9  C   UNL     1       1.106   9.895  19.814  0.00  0.00    +0.000 C 
ATOM     10  C   UNL     1       0.795   9.079  21.032  0.00  0.00    +0.000 C 
ATOM     11  C   UNL     1       1.094   7.773  21.175  0.00  0.00    +0.000 C 
ENDROOT
BRANCH   4  12
ATOM     12  C   UNL     1      -1.780  13.006  22.921  0.00  0.00    +0.000 A 
ATOM     13  C   UNL     1      -1.096  14.097  23.471  0.00  0.00    +0.000 A 
ATOM     14  C   UNL     1      -1.647  15.380  23.408  0.00  0.00    +0.000 A 
ATOM     15  C   UNL     1      -2.876  15.582  22.781  0.00  0.00    +0.000 A 
ATOM     16  C   UNL     1      -3.568  14.499  22.243  0.00  0.00    +0.000 A 
ATOM     17  C   UNL     1      -3.028  13.212  22.324  0.00  0.00    +0.000 A 
ENDBRANCH   4  12
BRANCH  11  18
ATOM     18  C   UNL     1       1.828   6.986  20.180  0.00  0.00    +0.000 A 
ATOM     19  C   UNL     1       1.980   5.607  20.357  0.00  0.00    +0.000 A 
ATOM     20  C   UNL     1       2.680   4.850  19.416  0.00  0.00    +0.000 A 
ATOM     21  C   UNL     1       3.227   5.468  18.292  0.00  0.00    +0.000 A 
ATOM     22  C   UNL     1       3.085   6.844  18.114  0.00  0.00    +0.000 A 
ATOM     23  C   UNL     1       2.390   7.604  19.059  0.00  0.00    +0.000 A 
ENDBRANCH  11  18
BRANCH   7  24
ATOM     24  C   UNL     1      -2.014  11.737  18.348  0.00  0.00    +0.000 C 
ATOM     25  F   UNL     1      -2.766  11.544  17.234  0.00  0.00    +0.000 F 
ATOM     26  F   UNL     1      -2.886  11.660  19.393  0.00  0.00    +0.000 F 
ATOM     27  F   UNL     1      -1.606  13.036  18.281  0.00  0.00    +0.000 F 
ENDBRANCH   7  24
TORSDOF 3
ENDMDL
MODEL 6
REMARK VINA RESULT:      -7.6      4.154      9.146
REMARK  Name = 
REMARK  3 active torsions:
REMARK  status: ('A' for Active; 'I' for Inactive)
REMARK    1  A    between atoms: C_4  and  C_5
REMARK    2  A    between atoms: C_13  and  C_15
REMARK    3  A    between atoms: C_21  and  C_22
REMARK                            x       y       z     vdW  Elec       q    Type
REMARK                         _______ _______ _______ _____ _____    ______ ____
ROOT
ATOM      1  O   UNL     1      -0.145   9.233  23.318  0.00  0.00    +0.000 OA
ATOM      2  C   UNL     1       0.034   9.790  22.233  0.00  0.00    +0.000 C 
ATOM      3  C   UNL     1      -0.447  11.198  22.003  0.00  0.00    +0.000 C 
ATOM      4  C   UNL     1      -1.232  11.744  22.953  0.00  0.00    +0.000 C 
ATOM      5  C   UNL     1      -0.010  11.887  20.752  0.00  0.00    +0.000 C 
ATOM      6  N   UNL     1       0.069  10.913  19.678  0.00  0.00    +0.000 N 
ATOM      7  C   UNL     1      -0.770  10.808  18.564  0.00  0.00    +0.000 C 
ATOM      8  O   UNL     1      -0.568   9.905  17.734  0.00  0.00    +0.000 OA
ATOM      9  C   UNL     1       1.097   9.906  19.892  0.00  0.00    +0.000 C 
ATOM     10  C   UNL     1       0.740   9.105  21.107  0.00  0.00    +0.000 C 
ATOM     11  C   UNL     1       1.012   7.795  21.266  0.00  0.00    +0.000 C 
ENDROOT
BRANCH   4  12
ATOM     12  C   UNL     1      -1.808  13.092  22.904  0.00  0.00    +0.000 A 
ATOM     13  C   UNL     1      -3.017  13.318  22.235  0.00  0.00    +0.000 A 
ATOM     14  C   UNL     1      -3.590  14.592  22.225  0.00  0.00    +0.000 A 
ATOM     15  C   UNL     1      -2.967  15.644  22.897  0.00  0.00    +0.000 A 
ATOM     16  C   UNL     1      -1.757  15.428  23.554  0.00  0.00    +0.000 A 
ATOM     17  C   UNL     1      -1.172  14.159  23.547  0.00  0.00    +0.000 A 
ENDBRANCH   4  12
BRANCH  11  18
ATOM     18  C   UNL     1       1.755   6.988  20.295  0.00  0.00    +0.000 A 
ATOM     19  C   UNL     1       2.296   7.593  19.155  0.00  0.00    +0.000 A 
ATOM     20  C   UNL     1       3.003   6.832  18.223  0.00  0.00    +0.000 A 
ATOM     21  C   UNL     1       3.176   5.463  18.428  0.00  0.00    +0.000 A 
ATOM     22  C   UNL     1       2.632   4.854  19.558  0.00  0.00    +0.000 A 
ATOM     23  C   UNL     1       1.919   5.613  20.488  0.00  0.00    +0.000 A 
ENDBRANCH  11  18
BRANCH   7  24
ATOM     24  C   UNL     1      -1.950  11.795  18.335  0.00  0.00    +0.000 C 
ATOM     25  F   UNL     1      -2.622  11.665  17.162  0.00  0.00    +0.000 F 
ATOM     26  F   UNL     1      -2.896  11.675  19.310  0.00  0.00    +0.000 F 
ATOM     27  F   UNL     1      -1.530  13.091  18.363  0.00  0.00    +0.000 F 
ENDBRANCH   7  24
TORSDOF 3
ENDMDL
MODEL 7
REMARK VINA RESULT:      -7.3      5.453     10.551
REMARK  Name = 
REMARK  3 active torsions:
REMARK  status: ('A' for Active; 'I' for Inactive)
REMARK    1  A    between atoms: C_4  and  C_5
REMARK    2  A    between atoms: C_13  and  C_15
REMARK    3  A    between atoms: C_21  and  C_22
REMARK                            x       y       z     vdW  Elec       q    Type
REMARK                         _______ _______ _______ _____ _____    ______ ____
ROOT
ATOM      1  O   UNL     1      -0.963  10.953  23.456  0.00  0.00    +0.000 OA
ATOM      2  C   UNL     1      -1.320  11.416  22.371  0.00  0.00    +0.000 C 
ATOM      3  C   UNL     1      -2.418  12.442  22.295  0.00  0.00    +0.000 C 
ATOM      4  C   UNL     1      -3.109  12.689  23.426  0.00  0.00    +0.000 C 
ATOM      5  C   UNL     1      -2.651  13.117  20.984  0.00  0.00    +0.000 C 
ATOM      6  N   UNL     1      -2.408  12.167  19.913  0.00  0.00    +0.000 N 
ATOM      7  C   UNL     1      -3.352  11.591  19.057  0.00  0.00    +0.000 C 
ATOM      8  O   UNL     1      -2.975  10.784  18.190  0.00  0.00    +0.000 OA
ATOM      9  C   UNL     1      -1.020  11.735  19.834  0.00  0.00    +0.000 C 
ATOM     10  C   UNL     1      -0.677  10.991  21.089  0.00  0.00    +0.000 C 
ATOM     11  C   UNL     1       0.180   9.953  21.152  0.00  0.00    +0.000 C 
ENDROOT
BRANCH   4  12
ATOM     12  C   UNL     1      -4.219  13.640  23.549  0.00  0.00    +0.000 A 
ATOM     13  C   UNL     1      -5.542  13.201  23.416  0.00  0.00    +0.000 A 
ATOM     14  C   UNL     1      -6.602  14.096  23.577  0.00  0.00    +0.000 A 
ATOM     15  C   UNL     1      -6.348  15.431  23.888  0.00  0.00    +0.000 A 
ATOM     16  C   UNL     1      -5.034  15.878  24.010  0.00  0.00    +0.000 A 
ATOM     17  C   UNL     1      -3.971  14.988  23.828  0.00  0.00    +0.000 A 
ENDBRANCH   4  12
BRANCH  11  18
ATOM     18  C   UNL     1       0.947   9.452  20.008  0.00  0.00    +0.000 A 
ATOM     19  C   UNL     1       1.534   8.183  20.066  0.00  0.00    +0.000 A 
ATOM     20  C   UNL     1       2.269   7.699  18.983  0.00  0.00    +0.000 A 
ATOM     21  C   UNL     1       2.417   8.479  17.836  0.00  0.00    +0.000 A 
ATOM     22  C   UNL     1       1.841   9.748  17.777  0.00  0.00    +0.000 A 
ATOM     23  C   UNL     1       1.111  10.237  18.863  0.00  0.00    +0.000 A 
ENDBRANCH  11  18
BRANCH   7  24
ATOM     24  C   UNL     1      -4.865  11.937  19.160  0.00  0.00    +0.000 C 
ATOM     25  F   UNL     1      -5.433  11.786  20.384  0.00  0.00    +0.000 F 
ATOM     26  F   UNL     1      -5.105  13.232  18.805  0.00  0.00    +0.000 F 
ATOM     27  F   UNL     1      -5.613  11.165  18.322  0.00  0.00    +0.000 F 
ENDBRANCH   7  24
TORSDOF 3
ENDMDL
MODEL 8
REMARK VINA RESULT:      -7.2      6.051     11.090
REMARK  Name = 
REMARK  3 active torsions:
REMARK  status: ('A' for Active; 'I' for Inactive)
REMARK    1  A    between atoms: C_4  and  C_5
REMARK    2  A    between atoms: C_13  and  C_15
REMARK    3  A    between atoms: C_21  and  C_22
REMARK                            x       y       z     vdW  Elec       q    Type
REMARK                         _______ _______ _______ _____ _____    ______ ____
ROOT
ATOM      1  O   UNL     1      -1.561  11.750  23.452  0.00  0.00    +0.000 OA
ATOM      2  C   UNL     1      -2.045  12.134  22.386  0.00  0.00    +0.000 C 
ATOM      3  C   UNL     1      -3.372  12.844  22.355  0.00  0.00    +0.000 C 
ATOM      4  C   UNL     1      -4.082  12.872  23.501  0.00  0.00    +0.000 C 
ATOM      5  C   UNL     1      -3.796  13.472  21.069  0.00  0.00    +0.000 C 
ATOM      6  N   UNL     1      -3.335  12.648  19.965  0.00  0.00    +0.000 N 
ATOM      7  C   UNL     1      -4.115  11.872  19.102  0.00  0.00    +0.000 C 
ATOM      8  O   UNL     1      -3.560  11.214  18.206  0.00  0.00    +0.000 OA
ATOM      9  C   UNL     1      -1.885  12.592  19.858  0.00  0.00    +0.000 C 
ATOM     10  C   UNL     1      -1.338  11.926  21.084  0.00  0.00    +0.000 C 
ATOM     11  C   UNL     1      -0.241  11.144  21.105  0.00  0.00    +0.000 C 
ENDROOT
BRANCH   4  12
ATOM     12  C   UNL     1      -5.397  13.500  23.667  0.00  0.00    +0.000 A 
ATOM     13  C   UNL     1      -5.509  14.895  23.727  0.00  0.00    +0.000 A 
ATOM     14  C   UNL     1      -6.766  15.496  23.840  0.00  0.00    +0.000 A 
ATOM     15  C   UNL     1      -7.917  14.710  23.876  0.00  0.00    +0.000 A 
ATOM     16  C   UNL     1      -7.810  13.321  23.828  0.00  0.00    +0.000 A 
ATOM     17  C   UNL     1      -6.553  12.716  23.738  0.00  0.00    +0.000 A 
ENDBRANCH   4  12
BRANCH  11  18
ATOM     18  C   UNL     1       0.607  10.891  19.937  0.00  0.00    +0.000 A 
ATOM     19  C   UNL     1       1.384  11.925  19.403  0.00  0.00    +0.000 A 
ATOM     20  C   UNL     1       2.192  11.694  18.289  0.00  0.00    +0.000 A 
ATOM     21  C   UNL     1       2.231  10.427  17.707  0.00  0.00    +0.000 A 
ATOM     22  C   UNL     1       1.453   9.395  18.231  0.00  0.00    +0.000 A 
ATOM     23  C   UNL     1       0.638   9.627  19.341  0.00  0.00    +0.000 A 
ENDBRANCH  11  18
BRANCH   7  24
ATOM     24  C   UNL     1      -5.664  11.812  19.233  0.00  0.00    +0.000 C 
ATOM     25  F   UNL     1      -6.336  12.952  18.928  0.00  0.00    +0.000 F 
ATOM     26  F   UNL     1      -6.195  10.850  18.425  0.00  0.00    +0.000 F 
ATOM     27  F   UNL     1      -6.047  11.502  20.503  0.00  0.00    +0.000 F 
ENDBRANCH   7  24
TORSDOF 3
ENDMDL
MODEL 9
REMARK VINA RESULT:      -7.2      5.525     10.652
REMARK  Name = 
REMARK  3 active torsions:
REMARK  status: ('A' for Active; 'I' for Inactive)
REMARK    1  A    between atoms: C_4  and  C_5
REMARK    2  A    between atoms: C_13  and  C_15
REMARK    3  A    between atoms: C_21  and  C_22
REMARK                            x       y       z     vdW  Elec       q    Type
REMARK                         _______ _______ _______ _____ _____    ______ ____
ROOT
ATOM      1  O   UNL     1      -1.012  10.971  23.522  0.00  0.00    +0.000 OA
ATOM      2  C   UNL     1      -1.374  11.462  22.451  0.00  0.00    +0.000 C 
ATOM      3  C   UNL     1      -2.481  12.480  22.406  0.00  0.00    +0.000 C 
ATOM      4  C   UNL     1      -3.172  12.689  23.544  0.00  0.00    +0.000 C 
ATOM      5  C   UNL     1      -2.721  13.191  21.114  0.00  0.00    +0.000 C 
ATOM      6  N   UNL     1      -2.470  12.274  20.016  0.00  0.00    +0.000 N 
ATOM      7  C   UNL     1      -3.410  11.715  19.145  0.00  0.00    +0.000 C 
ATOM      8  O   UNL     1      -3.027  10.936  18.255  0.00  0.00    +0.000 OA
ATOM      9  C   UNL     1      -1.079  11.856  19.925  0.00  0.00    +0.000 C 
ATOM     10  C   UNL     1      -0.728  11.079  21.157  0.00  0.00    +0.000 C 
ATOM     11  C   UNL     1       0.138  10.048  21.190  0.00  0.00    +0.000 C 
ENDROOT
BRANCH   4  12
ATOM     12  C   UNL     1      -4.291  13.627  23.695  0.00  0.00    +0.000 A 
ATOM     13  C   UNL     1      -4.045  14.979  23.962  0.00  0.00    +0.000 A 
ATOM     14  C   UNL     1      -5.107  15.882  24.061  0.00  0.00    +0.000 A 
ATOM     15  C   UNL     1      -6.417  15.443  23.879  0.00  0.00    +0.000 A 
ATOM     16  C   UNL     1      -6.669  14.096  23.625  0.00  0.00    +0.000 A 
ATOM     17  C   UNL     1      -5.610  13.187  23.547  0.00  0.00    +0.000 A 
ENDBRANCH   4  12
BRANCH  11  18
ATOM     18  C   UNL     1       0.908   9.587  20.032  0.00  0.00    +0.000 A 
ATOM     19  C   UNL     1       1.442   8.293  20.021  0.00  0.00    +0.000 A 
ATOM     20  C   UNL     1       2.179   7.846  18.924  0.00  0.00    +0.000 A 
ATOM     21  C   UNL     1       2.383   8.688  17.830  0.00  0.00    +0.000 A 
ATOM     22  C   UNL     1       1.860   9.981  17.840  0.00  0.00    +0.000 A 
ATOM     23  C   UNL     1       1.127  10.432  18.941  0.00  0.00    +0.000 A 
ENDBRANCH  11  18
BRANCH   7  24
ATOM     24  C   UNL     1      -4.926  12.045  19.259  0.00  0.00    +0.000 C 
ATOM     25  F   UNL     1      -5.761  11.305  18.486  0.00  0.00    +0.000 F 
ATOM     26  F   UNL     1      -5.376  11.885  20.537  0.00  0.00    +0.000 F 
ATOM     27  F   UNL     1      -5.182  13.341  18.921  0.00  0.00    +0.000 F 
ENDBRANCH   7  24
TORSDOF 3
ENDMDL
