MODEL 1
REMARK VINA RESULT:      -6.5      0.000      0.000
REMARK  Name = 
REMARK  4 active torsions:
REMARK  status: ('A' for Active; 'I' for Inactive)
REMARK    1  A    between atoms: C_1  and  C_2
REMARK    2  A    between atoms: C_11  and  O_12
REMARK    3  A    between atoms: C_17  and  O_18
REMARK    4  A    between atoms: C_20  and  O_21
REMARK                            x       y       z     vdW  Elec       q    Type
REMARK                         _______ _______ _______ _____ _____    ______ ____
ROOT
ATOM      1  C   UNL     1      -6.298  10.224  18.955  0.00  0.00    +0.000 C 
ATOM      2  C   UNL     1      -6.152  11.707  18.625  0.00  0.00    +0.000 C 
ATOM      3  C   UNL     1      -5.275  12.001  17.373  0.00  0.00    +0.000 C 
ATOM      4  C   UNL     1      -4.524  10.833  16.787  0.00  0.00    +0.000 C 
ATOM      5  O   UNL     1      -3.699  11.212  15.669  0.00  0.00    +0.000 OA
ATOM      6  C   UNL     1      -3.015  10.618  16.775  0.00  0.00    +0.000 C 
ATOM      7  C   UNL     1      -1.987  11.522  17.382  0.00  0.00    +0.000 C 
ATOM      8  C   UNL     1      -1.540  10.996  18.742  0.00  0.00    +0.000 C 
ATOM      9  C   UNL     1      -0.684  12.005  19.516  0.00  0.00    +0.000 C 
ATOM     10  C   UNL     1      -1.106  12.088  20.987  0.00  0.00    +0.000 C 
ATOM     11  C   UNL     1      -2.237  13.092  21.315  0.00  0.00    +0.000 C 
ATOM     12  C   UNL     1      -3.408  12.421  22.060  0.00  0.00    +0.000 C 
ATOM     13  C   UNL     1      -4.475  13.416  22.492  0.00  0.00    +0.000 A 
ATOM     14  C   UNL     1      -4.245  14.330  23.537  0.00  0.00    +0.000 A 
ATOM     15 CL   UNL     1      -2.794  14.288  24.490  0.00  0.00    +0.000 Cl
ATOM     16  C   UNL     1      -5.221  15.278  23.893  0.00  0.00    +0.000 A 
ATOM     17  C   UNL     1      -6.441  15.339  23.231  0.00  0.00    +0.000 A 
ATOM     18  C   UNL     1      -6.702  14.418  22.223  0.00  0.00    +0.000 A 
ATOM     19  C   UNL     1      -5.738  13.462  21.857  0.00  0.00    +0.000 A 
ATOM     20  C   UNL     1      -6.181  12.391  20.944  0.00  0.00    +0.000 C 
ATOM     21  O   UNL     1      -6.955  11.528  21.338  0.00  0.00    +0.000 OA
ATOM     22  O   UNL     1      -5.612  12.504  19.725  0.00  0.00    +0.000 OA
ENDROOT
BRANCH  11  23
ATOM     23  O   UNL     1      -2.711  13.769  20.151  0.00  0.00    +0.000 OA
ATOM     24  H   UNL     1      -2.991  14.666  20.403  0.00  0.00    +0.000 HD
ENDBRANCH  11  23
BRANCH  16  25
ATOM     25  O   UNL     1      -5.029  16.175  24.910  0.00  0.00    +0.000 OA
ATOM     26  H   UNL     1      -5.906  16.378  25.285  0.00  0.00    +0.000 HD
ENDBRANCH  16  25
BRANCH  18  27
ATOM     27  O   UNL     1      -7.916  14.444  21.591  0.00  0.00    +0.000 OA
ATOM     28  H   UNL     1      -7.796  14.709  20.663  0.00  0.00    +0.000 HD
ENDBRANCH  18  27
TORSDOF 3
ENDMDL
MODEL 2
REMARK VINA RESULT:      -6.2      4.371      7.331
REMARK  Name = 
REMARK  4 active torsions:
REMARK  status: ('A' for Active; 'I' for Inactive)
REMARK    1  A    between atoms: C_1  and  C_2
REMARK    2  A    between atoms: C_11  and  O_12
REMARK    3  A    between atoms: C_17  and  O_18
REMARK    4  A    between atoms: C_20  and  O_21
REMARK                            x       y       z     vdW  Elec       q    Type
REMARK                         _______ _______ _______ _____ _____    ______ ____
ROOT
ATOM      1  C   UNL     1      -2.928  13.957  23.616  0.00  0.00    +0.000 C 
ATOM      2  C   UNL     1      -1.419  13.853  23.822  0.00  0.00    +0.000 C 
ATOM      3  C   UNL     1      -0.668  15.214  23.757  0.00  0.00    +0.000 C 
ATOM      4  C   UNL     1      -1.469  16.404  23.297  0.00  0.00    +0.000 C 
ATOM      5  O   UNL     1      -0.678  17.605  23.217  0.00  0.00    +0.000 OA
ATOM      6  C   UNL     1      -1.299  17.186  22.000  0.00  0.00    +0.000 C 
ATOM      7  C   UNL     1      -0.316  16.890  20.910  0.00  0.00    +0.000 C 
ATOM      8  C   UNL     1      -0.983  16.128  19.771  0.00  0.00    +0.000 C 
ATOM      9  C   UNL     1       0.024  15.581  18.752  0.00  0.00    +0.000 C 
ATOM     10  C   UNL     1      -0.303  14.137  18.358  0.00  0.00    +0.000 C 
ATOM     11  C   UNL     1       0.302  13.033  19.257  0.00  0.00    +0.000 C 
ATOM     12  C   UNL     1      -0.773  12.068  19.793  0.00  0.00    +0.000 C 
ATOM     13  C   UNL     1      -0.182  10.910  20.583  0.00  0.00    +0.000 A 
ATOM     14  C   UNL     1       0.526   9.874  19.946  0.00  0.00    +0.000 A 
ATOM     15 CL   UNL     1       0.647   9.774  18.216  0.00  0.00    +0.000 Cl
ATOM     16  C   UNL     1       1.111   8.835  20.691  0.00  0.00    +0.000 A 
ATOM     17  C   UNL     1       1.005   8.796  22.076  0.00  0.00    +0.000 A 
ATOM     18  C   UNL     1       0.276   9.789  22.720  0.00  0.00    +0.000 A 
ATOM     19  C   UNL     1      -0.319  10.832  21.989  0.00  0.00    +0.000 A 
ATOM     20  C   UNL     1      -1.254  11.706  22.721  0.00  0.00    +0.000 C 
ATOM     21  O   UNL     1      -2.343  11.277  23.081  0.00  0.00    +0.000 OA
ATOM     22  O   UNL     1      -0.757  12.951  22.881  0.00  0.00    +0.000 OA
ENDROOT
BRANCH  11  23
ATOM     23  O   UNL     1       1.067  13.574  20.334  0.00  0.00    +0.000 OA
ATOM     24  H   UNL     1       0.471  14.060  20.929  0.00  0.00    +0.000 HD
ENDBRANCH  11  23
BRANCH  16  25
ATOM     25  O   UNL     1       1.798   7.810  20.100  0.00  0.00    +0.000 OA
ATOM     26  H   UNL     1       2.703   8.131  19.927  0.00  0.00    +0.000 HD
ENDBRANCH  16  25
BRANCH  18  27
ATOM     27  O   UNL     1       0.131   9.737  24.081  0.00  0.00    +0.000 OA
ATOM     28  H   UNL     1      -0.117  10.616  24.416  0.00  0.00    +0.000 HD
ENDBRANCH  18  27
TORSDOF 3
ENDMDL
MODEL 3
REMARK VINA RESULT:      -6.1      2.760      6.296
REMARK  Name = 
REMARK  4 active torsions:
REMARK  status: ('A' for Active; 'I' for Inactive)
REMARK    1  A    between atoms: C_1  and  C_2
REMARK    2  A    between atoms: C_11  and  O_12
REMARK    3  A    between atoms: C_17  and  O_18
REMARK    4  A    between atoms: C_20  and  O_21
REMARK                            x       y       z     vdW  Elec       q    Type
REMARK                         _______ _______ _______ _____ _____    ______ ____
ROOT
ATOM      1  C   UNL     1       1.314  11.295  19.780  0.00  0.00    +0.000 C 
ATOM      2  C   UNL     1       0.814  12.400  18.852  0.00  0.00    +0.000 C 
ATOM      3  C   UNL     1       1.392  13.810  19.165  0.00  0.00    +0.000 C 
ATOM      4  C   UNL     1       2.183  13.946  20.441  0.00  0.00    +0.000 C 
ATOM      5  O   UNL     1       2.631  15.295  20.672  0.00  0.00    +0.000 OA
ATOM      6  C   UNL     1       1.797  14.733  21.687  0.00  0.00    +0.000 C 
ATOM      7  C   UNL     1       0.526  15.498  21.893  0.00  0.00    +0.000 C 
ATOM      8  C   UNL     1      -0.468  14.685  22.715  0.00  0.00    +0.000 C 
ATOM      9  C   UNL     1      -1.868  15.309  22.741  0.00  0.00    +0.000 C 
ATOM     10  C   UNL     1      -2.958  14.254  22.530  0.00  0.00    +0.000 C 
ATOM     11  C   UNL     1      -3.334  13.949  21.060  0.00  0.00    +0.000 C 
ATOM     12  C   UNL     1      -3.223  12.447  20.733  0.00  0.00    +0.000 C 
ATOM     13  C   UNL     1      -3.701  12.115  19.328  0.00  0.00    +0.000 A 
ATOM     14  C   UNL     1      -5.066  12.157  18.988  0.00  0.00    +0.000 A 
ATOM     15 CL   UNL     1      -6.299  12.448  20.176  0.00  0.00    +0.000 Cl
ATOM     16  C   UNL     1      -5.490  11.897  17.673  0.00  0.00    +0.000 A 
ATOM     17  C   UNL     1      -4.578  11.587  16.671  0.00  0.00    +0.000 A 
ATOM     18  C   UNL     1      -3.230  11.502  16.996  0.00  0.00    +0.000 A 
ATOM     19  C   UNL     1      -2.790  11.755  18.307  0.00  0.00    +0.000 A 
ATOM     20  C   UNL     1      -1.385  11.422  18.611  0.00  0.00    +0.000 C 
ATOM     21  O   UNL     1      -1.028  10.253  18.668  0.00  0.00    +0.000 OA
ATOM     22  O   UNL     1      -0.642  12.529  18.824  0.00  0.00    +0.000 OA
ENDROOT
BRANCH  11  23
ATOM     23  O   UNL     1      -2.564  14.717  20.136  0.00  0.00    +0.000 OA
ATOM     24  H   UNL     1      -2.751  15.660  20.280  0.00  0.00    +0.000 HD
ENDBRANCH  11  23
BRANCH  16  25
ATOM     25  O   UNL     1      -6.810  11.923  17.314  0.00  0.00    +0.000 OA
ATOM     26  H   UNL     1      -6.845  12.091  16.353  0.00  0.00    +0.000 HD
ENDBRANCH  16  25
BRANCH  18  27
ATOM     27  O   UNL     1      -2.328  11.157  16.025  0.00  0.00    +0.000 OA
ATOM     28  H   UNL     1      -1.541  11.725  16.093  0.00  0.00    +0.000 HD
ENDBRANCH  18  27
TORSDOF 3
ENDMDL
MODEL 4
REMARK VINA RESULT:      -6.0      4.739      7.609
REMARK  Name = 
REMARK  4 active torsions:
REMARK  status: ('A' for Active; 'I' for Inactive)
REMARK    1  A    between atoms: C_1  and  C_2
REMARK    2  A    between atoms: C_11  and  O_12
REMARK    3  A    between atoms: C_17  and  O_18
REMARK    4  A    between atoms: C_20  and  O_21
REMARK                            x       y       z     vdW  Elec       q    Type
REMARK                         _______ _______ _______ _____ _____    ______ ____
ROOT
ATOM      1  C   UNL     1      -2.100  14.633  22.090  0.00  0.00    +0.000 C 
ATOM      2  C   UNL     1      -0.798  14.232  22.778  0.00  0.00    +0.000 C 
ATOM      3  C   UNL     1       0.240  15.385  22.907  0.00  0.00    +0.000 C 
ATOM      4  C   UNL     1      -0.073  16.659  22.166  0.00  0.00    +0.000 C 
ATOM      5  O   UNL     1       0.968  17.646  22.300  0.00  0.00    +0.000 OA
ATOM      6  C   UNL     1       0.667  17.234  20.965  0.00  0.00    +0.000 C 
ATOM      7  C   UNL     1       1.837  16.613  20.265  0.00  0.00    +0.000 C 
ATOM      8  C   UNL     1       1.388  15.888  19.001  0.00  0.00    +0.000 C 
ATOM      9  C   UNL     1       2.497  15.026  18.386  0.00  0.00    +0.000 C 
ATOM     10  C   UNL     1       1.970  13.651  17.963  0.00  0.00    +0.000 C 
ATOM     11  C   UNL     1       1.989  12.551  19.052  0.00  0.00    +0.000 C 
ATOM     12  C   UNL     1       0.603  11.906  19.248  0.00  0.00    +0.000 C 
ATOM     13  C   UNL     1       0.629  10.746  20.230  0.00  0.00    +0.000 A 
ATOM     14  C   UNL     1       1.228   9.516  19.898  0.00  0.00    +0.000 A 
ATOM     15 CL   UNL     1       1.846   9.198  18.306  0.00  0.00    +0.000 Cl
ATOM     16  C   UNL     1       1.291   8.468  20.832  0.00  0.00    +0.000 A 
ATOM     17  C   UNL     1       0.760   8.609  22.109  0.00  0.00    +0.000 A 
ATOM     18  C   UNL     1       0.129   9.801  22.442  0.00  0.00    +0.000 A 
ATOM     19  C   UNL     1       0.055  10.858  21.518  0.00  0.00    +0.000 A 
ATOM     20  C   UNL     1      -0.823  11.989  21.874  0.00  0.00    +0.000 C 
ATOM     21  O   UNL     1      -2.039  11.848  21.878  0.00  0.00    +0.000 OA
ATOM     22  O   UNL     1      -0.116  13.109  22.138  0.00  0.00    +0.000 OA
ENDROOT
BRANCH  11  23
ATOM     23  O   UNL     1       2.493  13.034  20.297  0.00  0.00    +0.000 OA
ATOM     24  H   UNL     1       2.371  13.998  20.332  0.00  0.00    +0.000 HD
ENDBRANCH  11  23
BRANCH  16  25
ATOM     25  O   UNL     1       1.861   7.259  20.536  0.00  0.00    +0.000 OA
ATOM     26  H   UNL     1       2.827   7.369  20.609  0.00  0.00    +0.000 HD
ENDBRANCH  16  25
BRANCH  18  27
ATOM     27  O   UNL     1      -0.433   9.937  23.684  0.00  0.00    +0.000 OA
ATOM     28  H   UNL     1       0.041  10.623  24.184  0.00  0.00    +0.000 HD
ENDBRANCH  18  27
TORSDOF 3
ENDMDL
MODEL 5
REMARK VINA RESULT:      -6.0      2.135      3.502
REMARK  Name = 
REMARK  4 active torsions:
REMARK  status: ('A' for Active; 'I' for Inactive)
REMARK    1  A    between atoms: C_1  and  C_2
REMARK    2  A    between atoms: C_11  and  O_12
REMARK    3  A    between atoms: C_17  and  O_18
REMARK    4  A    between atoms: C_20  and  O_21
REMARK                            x       y       z     vdW  Elec       q    Type
REMARK                         _______ _______ _______ _____ _____    ______ ____
ROOT
ATOM      1  C   UNL     1      -3.403   9.636  17.840  0.00  0.00    +0.000 C 
ATOM      2  C   UNL     1      -3.004  11.093  17.621  0.00  0.00    +0.000 C 
ATOM      3  C   UNL     1      -1.481  11.370  17.775  0.00  0.00    +0.000 C 
ATOM      4  C   UNL     1      -0.642  10.242  18.318  0.00  0.00    +0.000 C 
ATOM      5  O   UNL     1       0.742  10.609  18.476  0.00  0.00    +0.000 OA
ATOM      6  C   UNL     1       0.070  10.185  19.664  0.00  0.00    +0.000 C 
ATOM      7  C   UNL     1       0.038  11.239  20.727  0.00  0.00    +0.000 C 
ATOM      8  C   UNL     1      -0.968  10.880  21.816  0.00  0.00    +0.000 C 
ATOM      9  C   UNL     1      -1.226  12.035  22.791  0.00  0.00    +0.000 C 
ATOM     10  C   UNL     1      -2.720  12.197  23.088  0.00  0.00    +0.000 C 
ATOM     11  C   UNL     1      -3.513  13.101  22.114  0.00  0.00    +0.000 C 
ATOM     12  C   UNL     1      -4.736  12.377  21.518  0.00  0.00    +0.000 C 
ATOM     13  C   UNL     1      -5.591  13.288  20.650  0.00  0.00    +0.000 A 
ATOM     14  C   UNL     1      -6.383  14.306  21.212  0.00  0.00    +0.000 A 
ATOM     15 CL   UNL     1      -6.547  14.497  22.931  0.00  0.00    +0.000 Cl
ATOM     16  C   UNL     1      -7.130  15.173  20.396  0.00  0.00    +0.000 A 
ATOM     17  C   UNL     1      -7.115  15.050  19.012  0.00  0.00    +0.000 A 
ATOM     18  C   UNL     1      -6.370  14.026  18.440  0.00  0.00    +0.000 A 
ATOM     19  C   UNL     1      -5.621  13.148  19.242  0.00  0.00    +0.000 A 
ATOM     20  C   UNL     1      -5.049  11.963  18.574  0.00  0.00    +0.000 C 
ATOM     21  O   UNL     1      -5.781  11.060  18.191  0.00  0.00    +0.000 OA
ATOM     22  O   UNL     1      -3.703  12.032  18.497  0.00  0.00    +0.000 OA
ENDROOT
BRANCH  11  23
ATOM     23  O   UNL     1      -2.689  13.625  21.073  0.00  0.00    +0.000 OA
ATOM     24  H   UNL     1      -3.075  14.459  20.757  0.00  0.00    +0.000 HD
ENDBRANCH  11  23
BRANCH  16  25
ATOM     25  O   UNL     1      -7.915  16.168  20.914  0.00  0.00    +0.000 OA
ATOM     26  H   UNL     1      -7.381  16.984  20.922  0.00  0.00    +0.000 HD
ENDBRANCH  16  25
BRANCH  18  27
ATOM     27  O   UNL     1      -6.379  13.871  17.079  0.00  0.00    +0.000 OA
ATOM     28  H   UNL     1      -5.632  14.356  16.690  0.00  0.00    +0.000 HD
ENDBRANCH  18  27
TORSDOF 3
ENDMDL
MODEL 6
REMARK VINA RESULT:      -6.0      2.258      5.999
REMARK  Name = 
REMARK  4 active torsions:
REMARK  status: ('A' for Active; 'I' for Inactive)
REMARK    1  A    between atoms: C_1  and  C_2
REMARK    2  A    between atoms: C_11  and  O_12
REMARK    3  A    between atoms: C_17  and  O_18
REMARK    4  A    between atoms: C_20  and  O_21
REMARK                            x       y       z     vdW  Elec       q    Type
REMARK                         _______ _______ _______ _____ _____    ______ ____
ROOT
ATOM      1  C   UNL     1      -7.192  13.116  19.532  0.00  0.00    +0.000 C 
ATOM      2  C   UNL     1      -6.613  11.817  20.087  0.00  0.00    +0.000 C 
ATOM      3  C   UNL     1      -6.981  11.536  21.573  0.00  0.00    +0.000 C 
ATOM      4  C   UNL     1      -7.661  12.652  22.322  0.00  0.00    +0.000 C 
ATOM      5  O   UNL     1      -7.912  12.320  23.701  0.00  0.00    +0.000 OA
ATOM      6  C   UNL     1      -7.094  13.470  23.476  0.00  0.00    +0.000 C 
ATOM      7  C   UNL     1      -5.724  13.339  24.064  0.00  0.00    +0.000 C 
ATOM      8  C   UNL     1      -4.793  14.413  23.512  0.00  0.00    +0.000 C 
ATOM      9  C   UNL     1      -3.324  14.174  23.883  0.00  0.00    +0.000 C 
ATOM     10  C   UNL     1      -2.398  14.401  22.684  0.00  0.00    +0.000 C 
ATOM     11  C   UNL     1      -2.162  13.179  21.765  0.00  0.00    +0.000 C 
ATOM     12  C   UNL     1      -2.490  13.489  20.291  0.00  0.00    +0.000 C 
ATOM     13  C   UNL     1      -2.154  12.335  19.359  0.00  0.00    +0.000 A 
ATOM     14  C   UNL     1      -0.821  11.998  19.061  0.00  0.00    +0.000 A 
ATOM     15 CL   UNL     1       0.515  12.958  19.619  0.00  0.00    +0.000 Cl
ATOM     16  C   UNL     1      -0.521  10.898  18.239  0.00  0.00    +0.000 A 
ATOM     17  C   UNL     1      -1.529  10.114  17.690  0.00  0.00    +0.000 A 
ATOM     18  C   UNL     1      -2.853  10.455  17.941  0.00  0.00    +0.000 A 
ATOM     19  C   UNL     1      -3.169  11.554  18.758  0.00  0.00    +0.000 A 
ATOM     20  C   UNL     1      -4.582  11.976  18.784  0.00  0.00    +0.000 C 
ATOM     21  O   UNL     1      -5.084  12.506  17.801  0.00  0.00    +0.000 OA
ATOM     22  O   UNL     1      -5.158  11.728  19.980  0.00  0.00    +0.000 OA
ENDROOT
BRANCH  11  23
ATOM     23  O   UNL     1      -2.884  12.028  22.203  0.00  0.00    +0.000 OA
ATOM     24  H   UNL     1      -2.329  11.528  22.826  0.00  0.00    +0.000 HD
ENDBRANCH  11  23
BRANCH  16  25
ATOM     25  O   UNL     1       0.765  10.550  17.925  0.00  0.00    +0.000 OA
ATOM     26  H   UNL     1       1.348  10.973  18.583  0.00  0.00    +0.000 HD
ENDBRANCH  16  25
BRANCH  18  27
ATOM     27  O   UNL     1      -3.854   9.713  17.373  0.00  0.00    +0.000 OA
ATOM     28  H   UNL     1      -3.531   9.301  16.554  0.00  0.00    +0.000 HD
ENDBRANCH  18  27
TORSDOF 3
ENDMDL
MODEL 7
REMARK VINA RESULT:      -5.9      2.387      4.249
REMARK  Name = 
REMARK  4 active torsions:
REMARK  status: ('A' for Active; 'I' for Inactive)
REMARK    1  A    between atoms: C_1  and  C_2
REMARK    2  A    between atoms: C_11  and  O_12
REMARK    3  A    between atoms: C_17  and  O_18
REMARK    4  A    between atoms: C_20  and  O_21
REMARK                            x       y       z     vdW  Elec       q    Type
REMARK                         _______ _______ _______ _____ _____    ______ ____
ROOT
ATOM      1  C   UNL     1      -6.108  12.397  21.655  0.00  0.00    +0.000 C 
ATOM      2  C   UNL     1      -5.529  13.564  20.860  0.00  0.00    +0.000 C 
ATOM      3  C   UNL     1      -6.020  13.642  19.385  0.00  0.00    +0.000 C 
ATOM      4  C   UNL     1      -6.815  12.467  18.877  0.00  0.00    +0.000 C 
ATOM      5  O   UNL     1      -7.178  12.604  17.490  0.00  0.00    +0.000 OA
ATOM      6  C   UNL     1      -6.393  11.456  17.817  0.00  0.00    +0.000 C 
ATOM      7  C   UNL     1      -5.079  11.421  17.101  0.00  0.00    +0.000 C 
ATOM      8  C   UNL     1      -4.147  10.390  17.729  0.00  0.00    +0.000 C 
ATOM      9  C   UNL     1      -2.711  10.488  17.203  0.00  0.00    +0.000 C 
ATOM     10  C   UNL     1      -1.688  10.389  18.339  0.00  0.00    +0.000 C 
ATOM     11  C   UNL     1      -1.315  11.720  19.036  0.00  0.00    +0.000 C 
ATOM     12  C   UNL     1      -1.518  11.650  20.563  0.00  0.00    +0.000 C 
ATOM     13  C   UNL     1      -1.047  12.909  21.275  0.00  0.00    +0.000 A 
ATOM     14  C   UNL     1       0.321  13.211  21.403  0.00  0.00    +0.000 A 
ATOM     15 CL   UNL     1       1.557  12.105  20.886  0.00  0.00    +0.000 Cl
ATOM     16  C   UNL     1       0.743  14.402  22.019  0.00  0.00    +0.000 A 
ATOM     17  C   UNL     1      -0.176  15.315  22.525  0.00  0.00    +0.000 A 
ATOM     18  C   UNL     1      -1.530  15.015  22.444  0.00  0.00    +0.000 A 
ATOM     19  C   UNL     1      -1.968  13.826  21.834  0.00  0.00    +0.000 A 
ATOM     20  C   UNL     1      -3.394  13.485  21.994  0.00  0.00    +0.000 C 
ATOM     21  O   UNL     1      -3.825  13.137  23.085  0.00  0.00    +0.000 OA
ATOM     22  O   UNL     1      -4.067  13.586  20.828  0.00  0.00    +0.000 OA
ENDROOT
BRANCH  11  23
ATOM     23  O   UNL     1      -2.025  12.832  18.490  0.00  0.00    +0.000 OA
ATOM     24  H   UNL     1      -1.382  13.489  18.174  0.00  0.00    +0.000 HD
ENDBRANCH  11  23
BRANCH  16  25
ATOM     25  O   UNL     1       2.066  14.720  22.165  0.00  0.00    +0.000 OA
ATOM     26  H   UNL     1       2.503  13.954  22.581  0.00  0.00    +0.000 HD
ENDBRANCH  16  25
BRANCH  18  27
ATOM     27  O   UNL     1      -2.442  15.888  22.975  0.00  0.00    +0.000 OA
ATOM     28  H   UNL     1      -2.911  15.462  23.713  0.00  0.00    +0.000 HD
ENDBRANCH  18  27
TORSDOF 3
ENDMDL
MODEL 8
REMARK VINA RESULT:      -5.8      3.159      6.247
REMARK  Name = 
REMARK  4 active torsions:
REMARK  status: ('A' for Active; 'I' for Inactive)
REMARK    1  A    between atoms: C_1  and  C_2
REMARK    2  A    between atoms: C_11  and  O_12
REMARK    3  A    between atoms: C_17  and  O_18
REMARK    4  A    between atoms: C_20  and  O_21
REMARK                            x       y       z     vdW  Elec       q    Type
REMARK                         _______ _______ _______ _____ _____    ______ ____
ROOT
ATOM      1  C   UNL     1      -3.222  12.215  23.194  0.00  0.00    +0.000 C 
ATOM      2  C   UNL     1      -3.038  13.517  22.419  0.00  0.00    +0.000 C 
ATOM      3  C   UNL     1      -4.258  13.916  21.537  0.00  0.00    +0.000 C 
ATOM      4  C   UNL     1      -5.351  12.889  21.394  0.00  0.00    +0.000 C 
ATOM      5  O   UNL     1      -6.408  13.325  20.520  0.00  0.00    +0.000 OA
ATOM      6  C   UNL     1      -5.739  12.122  20.136  0.00  0.00    +0.000 C 
ATOM      7  C   UNL     1      -5.073  12.222  18.798  0.00  0.00    +0.000 C 
ATOM      8  C   UNL     1      -4.100  11.068  18.590  0.00  0.00    +0.000 C 
ATOM      9  C   UNL     1      -3.210  11.256  17.356  0.00  0.00    +0.000 C 
ATOM     10  C   UNL     1      -1.750  10.901  17.656  0.00  0.00    +0.000 C 
ATOM     11  C   UNL     1      -0.875  12.046  18.219  0.00  0.00    +0.000 C 
ATOM     12  C   UNL     1      -0.192  11.654  19.544  0.00  0.00    +0.000 C 
ATOM     13  C   UNL     1       0.763  12.724  20.051  0.00  0.00    +0.000 A 
ATOM     14  C   UNL     1       1.993  12.972  19.413  0.00  0.00    +0.000 A 
ATOM     15 CL   UNL     1       2.561  11.985  18.102  0.00  0.00    +0.000 Cl
ATOM     16  C   UNL     1       2.844  13.997  19.861  0.00  0.00    +0.000 A 
ATOM     17  C   UNL     1       2.503  14.793  20.948  0.00  0.00    +0.000 A 
ATOM     18  C   UNL     1       1.311  14.537  21.615  0.00  0.00    +0.000 A 
ATOM     19  C   UNL     1       0.450  13.513  21.183  0.00  0.00    +0.000 A 
ATOM     20  C   UNL     1      -0.670  13.167  22.078  0.00  0.00    +0.000 C 
ATOM     21  O   UNL     1      -0.455  12.599  23.141  0.00  0.00    +0.000 OA
ATOM     22  O   UNL     1      -1.861  13.524  21.552  0.00  0.00    +0.000 OA
ENDROOT
BRANCH  11  23
ATOM     23  O   UNL     1      -1.610  13.259  18.379  0.00  0.00    +0.000 OA
ATOM     24  H   UNL     1      -1.161  13.965  17.884  0.00  0.00    +0.000 HD
ENDBRANCH  11  23
BRANCH  16  25
ATOM     25  O   UNL     1       4.049  14.258  19.265  0.00  0.00    +0.000 OA
ATOM     26  H   UNL     1       3.875  14.416  18.319  0.00  0.00    +0.000 HD
ENDBRANCH  16  25
BRANCH  18  27
ATOM     27  O   UNL     1       0.984  15.290  22.712  0.00  0.00    +0.000 OA
ATOM     28  H   UNL     1       1.202  14.798  23.522  0.00  0.00    +0.000 HD
ENDBRANCH  18  27
TORSDOF 3
ENDMDL
MODEL 9
REMARK VINA RESULT:      -5.8      2.437      6.972
REMARK  Name = 
REMARK  4 active torsions:
REMARK  status: ('A' for Active; 'I' for Inactive)
REMARK    1  A    between atoms: C_1  and  C_2
REMARK    2  A    between atoms: C_11  and  O_12
REMARK    3  A    between atoms: C_17  and  O_18
REMARK    4  A    between atoms: C_20  and  O_21
REMARK                            x       y       z     vdW  Elec       q    Type
REMARK                         _______ _______ _______ _____ _____    ______ ____
ROOT
ATOM      1  C   UNL     1      -3.495  13.576  24.333  0.00  0.00    +0.000 C 
ATOM      2  C   UNL     1      -3.052  14.559  23.253  0.00  0.00    +0.000 C 
ATOM      3  C   UNL     1      -3.783  15.933  23.298  0.00  0.00    +0.000 C 
ATOM      4  C   UNL     1      -4.956  16.041  24.238  0.00  0.00    +0.000 C 
ATOM      5  O   UNL     1      -5.601  17.327  24.171  0.00  0.00    +0.000 OA
ATOM      6  C   UNL     1      -6.425  16.200  23.866  0.00  0.00    +0.000 C 
ATOM      7  C   UNL     1      -6.988  16.242  22.480  0.00  0.00    +0.000 C 
ATOM      8  C   UNL     1      -7.559  14.885  22.086  0.00  0.00    +0.000 C 
ATOM      9  C   UNL     1      -7.917  14.800  20.597  0.00  0.00    +0.000 C 
ATOM     10  C   UNL     1      -7.446  13.478  19.981  0.00  0.00    +0.000 C 
ATOM     11  C   UNL     1      -5.999  13.460  19.434  0.00  0.00    +0.000 C 
ATOM     12  C   UNL     1      -5.165  12.314  20.039  0.00  0.00    +0.000 C 
ATOM     13  C   UNL     1      -3.777  12.211  19.427  0.00  0.00    +0.000 A 
ATOM     14  C   UNL     1      -3.587  11.744  18.112  0.00  0.00    +0.000 A 
ATOM     15 CL   UNL     1      -4.902  11.125  17.161  0.00  0.00    +0.000 Cl
ATOM     16  C   UNL     1      -2.304  11.701  17.540  0.00  0.00    +0.000 A 
ATOM     17  C   UNL     1      -1.184  12.112  18.252  0.00  0.00    +0.000 A 
ATOM     18  C   UNL     1      -1.346  12.538  19.565  0.00  0.00    +0.000 A 
ATOM     19  C   UNL     1      -2.622  12.584  20.154  0.00  0.00    +0.000 A 
ATOM     20  C   UNL     1      -2.672  12.829  21.607  0.00  0.00    +0.000 C 
ATOM     21  O   UNL     1      -2.292  11.968  22.390  0.00  0.00    +0.000 OA
ATOM     22  O   UNL     1      -3.192  14.042  21.893  0.00  0.00    +0.000 OA
ENDROOT
BRANCH  11  23
ATOM     23  O   UNL     1      -5.336  14.710  19.622  0.00  0.00    +0.000 OA
ATOM     24  H   UNL     1      -4.557  14.743  19.040  0.00  0.00    +0.000 HD
ENDBRANCH  11  23
BRANCH  16  25
ATOM     25  O   UNL     1      -2.088  11.246  16.267  0.00  0.00    +0.000 OA
ATOM     26  H   UNL     1      -2.882  11.463  15.743  0.00  0.00    +0.000 HD
ENDBRANCH  16  25
BRANCH  18  27
ATOM     27  O   UNL     1      -0.244  12.907  20.289  0.00  0.00    +0.000 OA
ATOM     28  H   UNL     1       0.078  12.148  20.805  0.00  0.00    +0.000 HD
ENDBRANCH  18  27
TORSDOF 3
ENDMDL
