MODEL 1
REMARK VINA RESULT:      -8.1      0.000      0.000
REMARK  Name = 
REMARK  1 active torsions:
REMARK  status: ('A' for Active; 'I' for Inactive)
REMARK    1  A    between atoms: N_22  and  O_23
REMARK                            x       y       z     vdW  Elec       q    Type
REMARK                         _______ _______ _______ _____ _____    ______ ____
ROOT
ATOM      1  O   UNL     1       2.023   3.215  19.561  0.00  0.00    +0.000 OA
ATOM      2  C   UNL     1       2.637   3.987  18.827  0.00  0.00    +0.000 C 
ATOM      3  C   UNL     1       3.402   3.432  17.656  0.00  0.00    +0.000 C 
ATOM      4  C   UNL     1       4.573   4.351  17.295  0.00  0.00    +0.000 C 
ATOM      5  C   UNL     1       5.573   4.436  18.488  0.00  0.00    +0.000 C 
ATOM      6  C   UNL     1       6.875   5.147  18.143  0.00  0.00    +0.000 C 
ATOM      7  C   UNL     1       7.560   4.501  16.959  0.00  0.00    +0.000 C 
ATOM      8  C   UNL     1       6.618   4.423  15.745  0.00  0.00    +0.000 C 
ATOM      9  C   UNL     1       5.310   3.719  16.092  0.00  0.00    +0.000 C 
ATOM     10  C   UNL     1       3.965   5.738  16.928  0.00  0.00    +0.000 C 
ATOM     11  C   UNL     1       3.101   6.292  18.059  0.00  0.00    +0.000 A 
ATOM     12  C   UNL     1       2.598   5.467  18.998  0.00  0.00    +0.000 A 
ATOM     13  C   UNL     1       2.059   6.074  20.253  0.00  0.00    +0.000 A 
ATOM     14  O   UNL     1       1.568   5.406  21.148  0.00  0.00    +0.000 OA
ATOM     15  C   UNL     1       2.046   7.539  20.349  0.00  0.00    +0.000 A 
ATOM     16  C   UNL     1       1.411   8.066  21.453  0.00  0.00    +0.000 A 
ATOM     17  C   UNL     1       0.345   8.895  21.193  0.00  0.00    +0.000 A 
ATOM     18 CL   UNL     1      -1.014   8.816  22.237  0.00  0.00    +0.000 Cl
ATOM     19  C   UNL     1       0.305   9.587  19.971  0.00  0.00    +0.000 A 
ATOM     20  C   UNL     1       1.270   9.356  19.008  0.00  0.00    +0.000 A 
ATOM     21  C   UNL     1       2.096   8.230  19.139  0.00  0.00    +0.000 A 
ATOM     22  N   UNL     1       2.895   7.686  18.090  0.00  0.00    +0.000 N 
ENDROOT
BRANCH  22  23
ATOM     23  O   UNL     1       3.101   8.441  16.932  0.00  0.00    +0.000 OA
ATOM     24  H   UNL     1       2.297   9.005  16.909  0.00  0.00    +0.000 HD
ENDBRANCH  22  23
TORSDOF 1
ENDMDL
MODEL 2
REMARK VINA RESULT:      -7.9      2.381      4.042
REMARK  Name = 
REMARK  1 active torsions:
REMARK  status: ('A' for Active; 'I' for Inactive)
REMARK    1  A    between atoms: N_22  and  O_23
REMARK                            x       y       z     vdW  Elec       q    Type
REMARK                         _______ _______ _______ _____ _____    ______ ____
ROOT
ATOM      1  O   UNL     1       4.347   7.372  16.706  0.00  0.00    +0.000 OA
ATOM      2  C   UNL     1       3.827   6.828  17.678  0.00  0.00    +0.000 C 
ATOM      3  C   UNL     1       4.319   5.473  18.109  0.00  0.00    +0.000 C 
ATOM      4  C   UNL     1       3.206   4.699  18.821  0.00  0.00    +0.000 C 
ATOM      5  C   UNL     1       2.015   4.457  17.846  0.00  0.00    +0.000 C 
ATOM      6  C   UNL     1       0.959   3.507  18.397  0.00  0.00    +0.000 C 
ATOM      7  C   UNL     1       1.563   2.177  18.790  0.00  0.00    +0.000 C 
ATOM      8  C   UNL     1       2.728   2.365  19.778  0.00  0.00    +0.000 C 
ATOM      9  C   UNL     1       3.781   3.323  19.231  0.00  0.00    +0.000 C 
ATOM     10  C   UNL     1       2.795   5.540  20.067  0.00  0.00    +0.000 C 
ATOM     11  C   UNL     1       2.378   6.957  19.679  0.00  0.00    +0.000 A 
ATOM     12  C   UNL     1       2.774   7.485  18.503  0.00  0.00    +0.000 A 
ATOM     13  C   UNL     1       2.079   8.713  18.013  0.00  0.00    +0.000 A 
ATOM     14  O   UNL     1       2.383   9.268  16.971  0.00  0.00    +0.000 OA
ATOM     15  C   UNL     1       1.056   9.308  18.882  0.00  0.00    +0.000 A 
ATOM     16  C   UNL     1       0.541  10.518  18.467  0.00  0.00    +0.000 A 
ATOM     17  C   UNL     1       0.714  11.573  19.332  0.00  0.00    +0.000 A 
ATOM     18 CL   UNL     1       1.046  13.118  18.667  0.00  0.00    +0.000 Cl
ATOM     19  C   UNL     1       0.851  11.309  20.706  0.00  0.00    +0.000 A 
ATOM     20  C   UNL     1       0.912  10.005  21.162  0.00  0.00    +0.000 A 
ATOM     21  C   UNL     1       1.137   8.977  20.234  0.00  0.00    +0.000 A 
ATOM     22  N   UNL     1       1.545   7.653  20.576  0.00  0.00    +0.000 N 
ENDROOT
BRANCH  22  23
ATOM     23  O   UNL     1       1.468   7.243  21.910  0.00  0.00    +0.000 OA
ATOM     24  H   UNL     1       2.389   6.951  22.087  0.00  0.00    +0.000 HD
ENDBRANCH  22  23
TORSDOF 1
ENDMDL
MODEL 3
REMARK VINA RESULT:      -6.7      2.414      6.575
REMARK  Name = 
REMARK  1 active torsions:
REMARK  status: ('A' for Active; 'I' for Inactive)
REMARK    1  A    between atoms: N_22  and  O_23
REMARK                            x       y       z     vdW  Elec       q    Type
REMARK                         _______ _______ _______ _____ _____    ______ ____
ROOT
ATOM      1  O   UNL     1       1.018   8.523  22.413  0.00  0.00    +0.000 OA
ATOM      2  C   UNL     1       1.114   8.979  21.275  0.00  0.00    +0.000 C 
ATOM      3  C   UNL     1       0.831  10.439  21.046  0.00  0.00    +0.000 C 
ATOM      4  C   UNL     1       0.348  10.674  19.611  0.00  0.00    +0.000 C 
ATOM      5  C   UNL     1      -0.989   9.910  19.366  0.00  0.00    +0.000 C 
ATOM      6  C   UNL     1      -1.657  10.261  18.042  0.00  0.00    +0.000 C 
ATOM      7  C   UNL     1      -1.901  11.749  17.924  0.00  0.00    +0.000 C 
ATOM      8  C   UNL     1      -0.599  12.545  18.130  0.00  0.00    +0.000 C 
ATOM      9  C   UNL     1       0.075  12.188  19.451  0.00  0.00    +0.000 C 
ATOM     10  C   UNL     1       1.489  10.195  18.665  0.00  0.00    +0.000 C 
ATOM     11  C   UNL     1       1.873   8.741  18.933  0.00  0.00    +0.000 A 
ATOM     12  C   UNL     1       1.575   8.166  20.115  0.00  0.00    +0.000 A 
ATOM     13  C   UNL     1       1.652   6.676  20.212  0.00  0.00    +0.000 A 
ATOM     14  O   UNL     1       1.418   6.073  21.245  0.00  0.00    +0.000 OA
ATOM     15  C   UNL     1       2.120   5.941  19.030  0.00  0.00    +0.000 A 
ATOM     16  C   UNL     1       2.318   4.588  19.201  0.00  0.00    +0.000 A 
ATOM     17  C   UNL     1       3.596   4.135  18.971  0.00  0.00    +0.000 A 
ATOM     18 CL   UNL     1       4.208   2.894  19.985  0.00  0.00    +0.000 Cl
ATOM     19  C   UNL     1       4.423   4.854  18.093  0.00  0.00    +0.000 A 
ATOM     20  C   UNL     1       3.991   6.050  17.551  0.00  0.00    +0.000 A 
ATOM     21  C   UNL     1       2.868   6.676  18.112  0.00  0.00    +0.000 A 
ATOM     22  N   UNL     1       2.505   8.038  17.889  0.00  0.00    +0.000 N 
ENDROOT
BRANCH  22  23
ATOM     23  O   UNL     1       3.122   8.744  16.853  0.00  0.00    +0.000 OA
ATOM     24  H   UNL     1       3.760   9.309  17.343  0.00  0.00    +0.000 HD
ENDBRANCH  22  23
TORSDOF 1
ENDMDL
MODEL 4
REMARK VINA RESULT:      -6.6      6.707      8.567
REMARK  Name = 
REMARK  1 active torsions:
REMARK  status: ('A' for Active; 'I' for Inactive)
REMARK    1  A    between atoms: N_22  and  O_23
REMARK                            x       y       z     vdW  Elec       q    Type
REMARK                         _______ _______ _______ _____ _____    ______ ____
ROOT
ATOM      1  O   UNL     1      -0.416  10.770  23.240  0.00  0.00    +0.000 OA
ATOM      2  C   UNL     1      -0.510  11.136  22.070  0.00  0.00    +0.000 C 
ATOM      3  C   UNL     1       0.615  10.838  21.116  0.00  0.00    +0.000 C 
ATOM      4  C   UNL     1       0.655  11.877  19.992  0.00  0.00    +0.000 C 
ATOM      5  C   UNL     1       0.926  13.294  20.582  0.00  0.00    +0.000 C 
ATOM      6  C   UNL     1       1.201  14.353  19.522  0.00  0.00    +0.000 C 
ATOM      7  C   UNL     1       2.354  13.953  18.628  0.00  0.00    +0.000 C 
ATOM      8  C   UNL     1       2.115  12.570  17.997  0.00  0.00    +0.000 C 
ATOM      9  C   UNL     1       1.831  11.510  19.057  0.00  0.00    +0.000 C 
ATOM     10  C   UNL     1      -0.713  11.793  19.249  0.00  0.00    +0.000 C 
ATOM     11  C   UNL     1      -1.888  11.996  20.204  0.00  0.00    +0.000 A 
ATOM     12  C   UNL     1      -1.729  11.800  21.528  0.00  0.00    +0.000 A 
ATOM     13  C   UNL     1      -2.781  12.331  22.448  0.00  0.00    +0.000 A 
ATOM     14  O   UNL     1      -2.729  12.184  23.658  0.00  0.00    +0.000 OA
ATOM     15  C   UNL     1      -3.956  12.968  21.843  0.00  0.00    +0.000 A 
ATOM     16  C   UNL     1      -4.970  13.313  22.711  0.00  0.00    +0.000 A 
ATOM     17  C   UNL     1      -6.190  12.724  22.474  0.00  0.00    +0.000 A 
ATOM     18 CL   UNL     1      -7.139  12.259  23.824  0.00  0.00    +0.000 Cl
ATOM     19  C   UNL     1      -6.502  12.312  21.167  0.00  0.00    +0.000 A 
ATOM     20  C   UNL     1      -5.557  12.407  20.162  0.00  0.00    +0.000 A 
ATOM     21  C   UNL     1      -4.218  12.628  20.516  0.00  0.00    +0.000 A 
ATOM     22  N   UNL     1      -3.107  12.426  19.645  0.00  0.00    +0.000 N 
ENDROOT
BRANCH  22  23
ATOM     23  O   UNL     1      -3.339  12.256  18.277  0.00  0.00    +0.000 OA
ATOM     24  H   UNL     1      -2.685  12.872  17.880  0.00  0.00    +0.000 HD
ENDBRANCH  22  23
TORSDOF 1
ENDMDL
MODEL 5
REMARK VINA RESULT:      -6.5      5.010      9.846
REMARK  Name = 
REMARK  1 active torsions:
REMARK  status: ('A' for Active; 'I' for Inactive)
REMARK    1  A    between atoms: N_22  and  O_23
REMARK                            x       y       z     vdW  Elec       q    Type
REMARK                         _______ _______ _______ _____ _____    ______ ____
ROOT
ATOM      1  O   UNL     1      -3.270  12.610  19.477  0.00  0.00    +0.000 OA
ATOM      2  C   UNL     1      -2.870  12.468  20.630  0.00  0.00    +0.000 C 
ATOM      3  C   UNL     1      -3.717  12.972  21.767  0.00  0.00    +0.000 C 
ATOM      4  C   UNL     1      -2.842  13.324  22.974  0.00  0.00    +0.000 C 
ATOM      5  C   UNL     1      -1.855  14.472  22.603  0.00  0.00    +0.000 C 
ATOM      6  C   UNL     1      -1.100  15.037  23.799  0.00  0.00    +0.000 C 
ATOM      7  C   UNL     1      -2.049  15.520  24.873  0.00  0.00    +0.000 C 
ATOM      8  C   UNL     1      -3.026  14.408  25.294  0.00  0.00    +0.000 C 
ATOM      9  C   UNL     1      -3.776  13.835  24.096  0.00  0.00    +0.000 C 
ATOM     10  C   UNL     1      -2.105  12.017  23.395  0.00  0.00    +0.000 C 
ATOM     11  C   UNL     1      -1.308  11.420  22.238  0.00  0.00    +0.000 A 
ATOM     12  C   UNL     1      -1.610  11.745  20.965  0.00  0.00    +0.000 A 
ATOM     13  C   UNL     1      -0.612  11.422  19.900  0.00  0.00    +0.000 A 
ATOM     14  O   UNL     1      -0.809  11.663  18.721  0.00  0.00    +0.000 OA
ATOM     15  C   UNL     1       0.603  10.704  20.303  0.00  0.00    +0.000 A 
ATOM     16  C   UNL     1       1.429  10.294  19.278  0.00  0.00    +0.000 A 
ATOM     17  C   UNL     1       1.648   8.939  19.188  0.00  0.00    +0.000 A 
ATOM     18 CL   UNL     1       1.753   8.239  17.626  0.00  0.00    +0.000 Cl
ATOM     19  C   UNL     1       1.538   8.156  20.349  0.00  0.00    +0.000 A 
ATOM     20  C   UNL     1       1.118   8.725  21.537  0.00  0.00    +0.000 A 
ATOM     21  C   UNL     1       0.525   9.996  21.501  0.00  0.00    +0.000 A 
ATOM     22  N   UNL     1      -0.240  10.563  22.565  0.00  0.00    +0.000 N 
ENDROOT
BRANCH  22  23
ATOM     23  O   UNL     1      -0.194   9.964  23.827  0.00  0.00    +0.000 OA
ATOM     24  H   UNL     1       0.050   9.039  23.606  0.00  0.00    +0.000 HD
ENDBRANCH  22  23
TORSDOF 1
ENDMDL
MODEL 6
REMARK VINA RESULT:      -6.4      6.850     10.946
REMARK  Name = 
REMARK  1 active torsions:
REMARK  status: ('A' for Active; 'I' for Inactive)
REMARK    1  A    between atoms: N_22  and  O_23
REMARK                            x       y       z     vdW  Elec       q    Type
REMARK                         _______ _______ _______ _____ _____    ______ ____
ROOT
ATOM      1  O   UNL     1      -5.702  12.472  22.038  0.00  0.00    +0.000 OA
ATOM      2  C   UNL     1      -4.565  12.763  22.404  0.00  0.00    +0.000 C 
ATOM      3  C   UNL     1      -4.349  13.239  23.815  0.00  0.00    +0.000 C 
ATOM      4  C   UNL     1      -3.119  14.147  23.894  0.00  0.00    +0.000 C 
ATOM      5  C   UNL     1      -3.335  15.418  23.017  0.00  0.00    +0.000 C 
ATOM      6  C   UNL     1      -2.259  16.480  23.207  0.00  0.00    +0.000 C 
ATOM      7  C   UNL     1      -2.135  16.888  24.658  0.00  0.00    +0.000 C 
ATOM      8  C   UNL     1      -1.891  15.665  25.561  0.00  0.00    +0.000 C 
ATOM      9  C   UNL     1      -2.962  14.597  25.365  0.00  0.00    +0.000 C 
ATOM     10  C   UNL     1      -1.899  13.299  23.423  0.00  0.00    +0.000 C 
ATOM     11  C   UNL     1      -2.120  12.717  22.028  0.00  0.00    +0.000 A 
ATOM     12  C   UNL     1      -3.368  12.594  21.533  0.00  0.00    +0.000 A 
ATOM     13  C   UNL     1      -3.522  12.350  20.066  0.00  0.00    +0.000 A 
ATOM     14  O   UNL     1      -4.610  12.208  19.535  0.00  0.00    +0.000 OA
ATOM     15  C   UNL     1      -2.298  12.188  19.272  0.00  0.00    +0.000 A 
ATOM     16  C   UNL     1      -2.478  11.820  17.955  0.00  0.00    +0.000 A 
ATOM     17  C   UNL     1      -1.897  10.632  17.579  0.00  0.00    +0.000 A 
ATOM     18 CL   UNL     1      -2.746   9.631  16.475  0.00  0.00    +0.000 Cl
ATOM     19  C   UNL     1      -0.769  10.176  18.281  0.00  0.00    +0.000 A 
ATOM     20  C   UNL     1      -0.316  10.861  19.394  0.00  0.00    +0.000 A 
ATOM     21  C   UNL     1      -1.155  11.821  19.980  0.00  0.00    +0.000 A 
ATOM     22  N   UNL     1      -0.976  12.362  21.288  0.00  0.00    +0.000 N 
ENDROOT
BRANCH  22  23
ATOM     23  O   UNL     1       0.237  12.150  21.950  0.00  0.00    +0.000 OA
ATOM     24  H   UNL     1       0.353  11.179  21.861  0.00  0.00    +0.000 HD
ENDBRANCH  22  23
TORSDOF 1
ENDMDL
MODEL 7
REMARK VINA RESULT:      -6.4      7.683      8.978
REMARK  Name = 
REMARK  1 active torsions:
REMARK  status: ('A' for Active; 'I' for Inactive)
REMARK    1  A    between atoms: N_22  and  O_23
REMARK                            x       y       z     vdW  Elec       q    Type
REMARK                         _______ _______ _______ _____ _____    ______ ____
ROOT
ATOM      1  O   UNL     1      -1.210  12.178  22.688  0.00  0.00    +0.000 OA
ATOM      2  C   UNL     1      -0.918  12.293  21.500  0.00  0.00    +0.000 C 
ATOM      3  C   UNL     1       0.533  12.349  21.104  0.00  0.00    +0.000 C 
ATOM      4  C   UNL     1       0.703  13.129  19.797  0.00  0.00    +0.000 C 
ATOM      5  C   UNL     1       0.230  14.602  19.987  0.00  0.00    +0.000 C 
ATOM      6  C   UNL     1       0.567  15.507  18.810  0.00  0.00    +0.000 C 
ATOM      7  C   UNL     1       2.048  15.492  18.507  0.00  0.00    +0.000 C 
ATOM      8  C   UNL     1       2.555  14.056  18.281  0.00  0.00    +0.000 C 
ATOM      9  C   UNL     1       2.211  13.146  19.455  0.00  0.00    +0.000 C 
ATOM     10  C   UNL     1      -0.120  12.375  18.709  0.00  0.00    +0.000 C 
ATOM     11  C   UNL     1      -1.583  12.213  19.118  0.00  0.00    +0.000 A 
ATOM     12  C   UNL     1      -1.940  12.303  20.415  0.00  0.00    +0.000 A 
ATOM     13  C   UNL     1      -3.389  12.481  20.735  0.00  0.00    +0.000 A 
ATOM     14  O   UNL     1      -3.804  12.553  21.879  0.00  0.00    +0.000 OA
ATOM     15  C   UNL     1      -4.338  12.475  19.616  0.00  0.00    +0.000 A 
ATOM     16  C   UNL     1      -5.674  12.495  19.957  0.00  0.00    +0.000 A 
ATOM     17  C   UNL     1      -6.421  11.425  19.523  0.00  0.00    +0.000 A 
ATOM     18 CL   UNL     1      -7.642  10.817  20.561  0.00  0.00    +0.000 Cl
ATOM     19  C   UNL     1      -6.006  10.730  18.374  0.00  0.00    +0.000 A 
ATOM     20  C   UNL     1      -4.814  11.055  17.755  0.00  0.00    +0.000 A 
ATOM     21  C   UNL     1      -3.896  11.862  18.444  0.00  0.00    +0.000 A 
ATOM     22  N   UNL     1      -2.522  12.011  18.088  0.00  0.00    +0.000 N 
ENDROOT
BRANCH  22  23
ATOM     23  O   UNL     1      -2.092  11.557  16.839  0.00  0.00    +0.000 OA
ATOM     24  H   UNL     1      -2.807  11.876  16.247  0.00  0.00    +0.000 HD
ENDBRANCH  22  23
TORSDOF 1
ENDMDL
MODEL 8
REMARK VINA RESULT:      -6.4      8.254     12.292
REMARK  Name = 
REMARK  1 active torsions:
REMARK  status: ('A' for Active; 'I' for Inactive)
REMARK    1  A    between atoms: N_22  and  O_23
REMARK                            x       y       z     vdW  Elec       q    Type
REMARK                         _______ _______ _______ _____ _____    ______ ____
ROOT
ATOM      1  O   UNL     1      -7.878  10.334  20.342  0.00  0.00    +0.000 OA
ATOM      2  C   UNL     1      -7.176  11.212  20.839  0.00  0.00    +0.000 C 
ATOM      3  C   UNL     1      -7.540  11.764  22.191  0.00  0.00    +0.000 C 
ATOM      4  C   UNL     1      -7.032  13.202  22.339  0.00  0.00    +0.000 C 
ATOM      5  C   UNL     1      -7.711  14.120  21.278  0.00  0.00    +0.000 C 
ATOM      6  C   UNL     1      -7.435  15.604  21.490  0.00  0.00    +0.000 C 
ATOM      7  C   UNL     1      -7.846  16.049  22.876  0.00  0.00    +0.000 C 
ATOM      8  C   UNL     1      -7.175  15.187  23.960  0.00  0.00    +0.000 C 
ATOM      9  C   UNL     1      -7.443  13.701  23.743  0.00  0.00    +0.000 C 
ATOM     10  C   UNL     1      -5.483  13.153  22.180  0.00  0.00    +0.000 C 
ATOM     11  C   UNL     1      -5.070  12.510  20.857  0.00  0.00    +0.000 A 
ATOM     12  C   UNL     1      -5.927  11.708  20.195  0.00  0.00    +0.000 A 
ATOM     13  C   UNL     1      -5.625  11.382  18.767  0.00  0.00    +0.000 A 
ATOM     14  O   UNL     1      -6.334  10.651  18.097  0.00  0.00    +0.000 OA
ATOM     15  C   UNL     1      -4.374  11.900  18.202  0.00  0.00    +0.000 A 
ATOM     16  C   UNL     1      -4.057  11.461  16.934  0.00  0.00    +0.000 A 
ATOM     17  C   UNL     1      -2.869  10.779  16.814  0.00  0.00    +0.000 A 
ATOM     18 CL   UNL     1      -2.806   9.449  15.734  0.00  0.00    +0.000 Cl
ATOM     19  C   UNL     1      -1.842  11.038  17.737  0.00  0.00    +0.000 A 
ATOM     20  C   UNL     1      -2.063  11.887  18.806  0.00  0.00    +0.000 A 
ATOM     21  C   UNL     1      -3.383  12.241  19.122  0.00  0.00    +0.000 A 
ATOM     22  N   UNL     1      -3.791  12.824  20.359  0.00  0.00    +0.000 N 
ENDROOT
BRANCH  22  23
ATOM     23  O   UNL     1      -2.817  13.333  21.223  0.00  0.00    +0.000 OA
ATOM     24  H   UNL     1      -2.217  12.562  21.331  0.00  0.00    +0.000 HD
ENDBRANCH  22  23
TORSDOF 1
ENDMDL
MODEL 9
REMARK VINA RESULT:      -6.3      9.201     11.493
REMARK  Name = 
REMARK  1 active torsions:
REMARK  status: ('A' for Active; 'I' for Inactive)
REMARK    1  A    between atoms: N_22  and  O_23
REMARK                            x       y       z     vdW  Elec       q    Type
REMARK                         _______ _______ _______ _____ _____    ______ ____
ROOT
ATOM      1  O   UNL     1       7.163  15.911  21.535  0.00  0.00    +0.000 OA
ATOM      2  C   UNL     1       7.344  14.770  21.954  0.00  0.00    +0.000 C 
ATOM      3  C   UNL     1       6.317  14.151  22.863  0.00  0.00    +0.000 C 
ATOM      4  C   UNL     1       6.966  13.106  23.775  0.00  0.00    +0.000 C 
ATOM      5  C   UNL     1       8.032  13.782  24.690  0.00  0.00    +0.000 C 
ATOM      6  C   UNL     1       8.570  12.864  25.780  0.00  0.00    +0.000 C 
ATOM      7  C   UNL     1       7.454  12.308  26.636  0.00  0.00    +0.000 C 
ATOM      8  C   UNL     1       6.391  11.603  25.775  0.00  0.00    +0.000 C 
ATOM      9  C   UNL     1       5.857  12.519  24.678  0.00  0.00    +0.000 C 
ATOM     10  C   UNL     1       7.584  12.017  22.847  0.00  0.00    +0.000 C 
ATOM     11  C   UNL     1       8.564  12.620  21.842  0.00  0.00    +0.000 A 
ATOM     12  C   UNL     1       8.505  13.932  21.539  0.00  0.00    +0.000 A 
ATOM     13  C   UNL     1       9.672  14.544  20.832  0.00  0.00    +0.000 A 
ATOM     14  O   UNL     1       9.698  15.717  20.503  0.00  0.00    +0.000 OA
ATOM     15  C   UNL     1      10.776  13.656  20.449  0.00  0.00    +0.000 A 
ATOM     16  C   UNL     1      11.765  14.223  19.673  0.00  0.00    +0.000 A 
ATOM     17  C   UNL     1      11.964  13.648  18.440  0.00  0.00    +0.000 A 
ATOM     18 CL   UNL     1      12.333  14.677  17.119  0.00  0.00    +0.000 Cl
ATOM     19  C   UNL     1      11.627  12.296  18.260  0.00  0.00    +0.000 A 
ATOM     20  C   UNL     1      11.011  11.589  19.276  0.00  0.00    +0.000 A 
ATOM     21  C   UNL     1      10.465  12.300  20.355  0.00  0.00    +0.000 A 
ATOM     22  N   UNL     1       9.534  11.760  21.292  0.00  0.00    +0.000 N 
ENDROOT
BRANCH  22  23
ATOM     23  O   UNL     1       9.336  10.377  21.331  0.00  0.00    +0.000 OA
ATOM     24  H   UNL     1      10.219  10.036  21.068  0.00  0.00    +0.000 HD
ENDBRANCH  22  23
TORSDOF 1
ENDMDL
