MODEL 1
REMARK VINA RESULT:      -8.4      0.000      0.000
REMARK  Name = 
REMARK  3 active torsions:
REMARK  status: ('A' for Active; 'I' for Inactive)
REMARK    1  A    between atoms: C_1  and  C_2
REMARK    2  A    between atoms: C_6  and  N_7
REMARK    3  A    between atoms: N_10  and  C_11
REMARK                            x       y       z     vdW  Elec       q    Type
REMARK                         _______ _______ _______ _____ _____    ______ ____
ROOT
ATOM      1  N   UNL     1       5.288   5.214  15.897  0.00  0.00    +0.000 N 
ATOM      2  C   UNL     1       5.163   6.587  16.327  0.00  0.00    +0.000 C 
ATOM      3  C   UNL     1       4.144   6.522  17.447  0.00  0.00    +0.000 C 
ATOM      4  N   UNL     1       4.252   5.160  17.917  0.00  0.00    +0.000 N 
ATOM      5  C   UNL     1       4.851   4.353  16.931  0.00  0.00    +0.000 C 
ATOM      6  O   UNL     1       4.944   3.137  17.007  0.00  0.00    +0.000 OA
ENDROOT
BRANCH   4   7
ATOM      7  C   UNL     1       3.576   4.612  19.095  0.00  0.00    +0.000 C 
ATOM      8  C   UNL     1       3.853   3.113  19.388  0.00  0.00    +0.000 C 
ATOM      9  N   UNL     1       2.610   2.310  19.452  0.00  0.00    +0.000 NA
ATOM     10  C   UNL     1       1.772   2.835  20.557  0.00  0.00    +0.000 C 
ATOM     11  C   UNL     1       1.462   4.332  20.384  0.00  0.00    +0.000 C 
ATOM     12  C   UNL     1       2.040   4.824  19.041  0.00  0.00    +0.000 C 
ATOM     13  C   UNL     1       1.423   3.928  17.954  0.00  0.00    +0.000 C 
ATOM     14  C   UNL     1       1.872   2.475  18.179  0.00  0.00    +0.000 C 
ENDBRANCH   4   7
BRANCH   1  20
ATOM     15  C   UNL     1       4.936   2.757  11.600  0.00  0.00    +0.000 C 
ATOM     16  C   UNL     1       5.731   3.618  12.537  0.00  0.00    +0.000 A 
ATOM     17  C   UNL     1       7.018   4.044  12.208  0.00  0.00    +0.000 A 
ATOM     18  C   UNL     1       7.730   4.851  13.091  0.00  0.00    +0.000 A 
ATOM     19  C   UNL     1       7.160   5.245  14.304  0.00  0.00    +0.000 A 
ATOM     20  C   UNL     1       5.871   4.836  14.663  0.00  0.00    +0.000 A 
ATOM     21  C   UNL     1       5.174   4.007  13.768  0.00  0.00    +0.000 A 
ENDBRANCH   1  20
TORSDOF 2
ENDMDL
MODEL 2
REMARK VINA RESULT:      -7.8      1.162      1.418
REMARK  Name = 
REMARK  3 active torsions:
REMARK  status: ('A' for Active; 'I' for Inactive)
REMARK    1  A    between atoms: C_1  and  C_2
REMARK    2  A    between atoms: C_6  and  N_7
REMARK    3  A    between atoms: N_10  and  C_11
REMARK                            x       y       z     vdW  Elec       q    Type
REMARK                         _______ _______ _______ _____ _____    ______ ____
ROOT
ATOM      1  N   UNL     1       6.179   4.431  16.334  0.00  0.00    +0.000 N 
ATOM      2  C   UNL     1       7.127   4.820  17.352  0.00  0.00    +0.000 C 
ATOM      3  C   UNL     1       6.263   5.067  18.573  0.00  0.00    +0.000 C 
ATOM      4  N   UNL     1       5.092   4.260  18.321  0.00  0.00    +0.000 N 
ATOM      5  C   UNL     1       4.991   3.967  16.947  0.00  0.00    +0.000 C 
ATOM      6  O   UNL     1       4.029   3.416  16.435  0.00  0.00    +0.000 OA
ENDROOT
BRANCH   4   7
ATOM      7  C   UNL     1       3.999   4.030  19.269  0.00  0.00    +0.000 C 
ATOM      8  C   UNL     1       2.941   2.983  18.828  0.00  0.00    +0.000 C 
ATOM      9  N   UNL     1       1.568   3.538  18.810  0.00  0.00    +0.000 NA
ATOM     10  C   UNL     1       1.222   3.972  20.185  0.00  0.00    +0.000 C 
ATOM     11  C   UNL     1       2.232   4.993  20.737  0.00  0.00    +0.000 C 
ATOM     12  C   UNL     1       3.261   5.343  19.642  0.00  0.00    +0.000 C 
ATOM     13  C   UNL     1       2.451   5.852  18.439  0.00  0.00    +0.000 C 
ATOM     14  C   UNL     1       1.547   4.721  17.920  0.00  0.00    +0.000 C 
ENDBRANCH   4   7
BRANCH   1  20
ATOM     15  C   UNL     1       5.154   2.810  11.758  0.00  0.00    +0.000 C 
ATOM     16  C   UNL     1       6.007   3.631  12.679  0.00  0.00    +0.000 A 
ATOM     17  C   UNL     1       7.079   4.379  12.192  0.00  0.00    +0.000 A 
ATOM     18  C   UNL     1       7.850   5.141  13.067  0.00  0.00    +0.000 A 
ATOM     19  C   UNL     1       7.551   5.166  14.432  0.00  0.00    +0.000 A 
ATOM     20  C   UNL     1       6.481   4.428  14.951  0.00  0.00    +0.000 A 
ATOM     21  C   UNL     1       5.726   3.652  14.056  0.00  0.00    +0.000 A 
ENDBRANCH   1  20
TORSDOF 2
ENDMDL
MODEL 3
REMARK VINA RESULT:      -7.8      4.729      7.533
REMARK  Name = 
REMARK  3 active torsions:
REMARK  status: ('A' for Active; 'I' for Inactive)
REMARK    1  A    between atoms: C_1  and  C_2
REMARK    2  A    between atoms: C_6  and  N_7
REMARK    3  A    between atoms: N_10  and  C_11
REMARK                            x       y       z     vdW  Elec       q    Type
REMARK                         _______ _______ _______ _____ _____    ______ ____
ROOT
ATOM      1  N   UNL     1       1.382   8.964  19.167  0.00  0.00    +0.000 N 
ATOM      2  C   UNL     1       1.894   8.847  17.821  0.00  0.00    +0.000 C 
ATOM      3  C   UNL     1       2.987   7.803  17.943  0.00  0.00    +0.000 C 
ATOM      4  N   UNL     1       2.599   7.048  19.111  0.00  0.00    +0.000 N 
ATOM      5  C   UNL     1       1.707   7.799  19.901  0.00  0.00    +0.000 C 
ATOM      6  O   UNL     1       1.325   7.459  21.010  0.00  0.00    +0.000 OA
ENDROOT
BRANCH   4   7
ATOM      7  C   UNL     1       3.248   5.823  19.585  0.00  0.00    +0.000 C 
ATOM      8  C   UNL     1       4.614   5.493  18.925  0.00  0.00    +0.000 C 
ATOM      9  N   UNL     1       4.629   4.150  18.297  0.00  0.00    +0.000 NA
ATOM     10  C   UNL     1       4.386   3.139  19.354  0.00  0.00    +0.000 C 
ATOM     11  C   UNL     1       3.064   3.393  20.100  0.00  0.00    +0.000 C 
ATOM     12  C   UNL     1       2.327   4.582  19.450  0.00  0.00    +0.000 C 
ATOM     13  C   UNL     1       2.148   4.218  17.968  0.00  0.00    +0.000 C 
ATOM     14  C   UNL     1       3.530   4.077  17.308  0.00  0.00    +0.000 C 
ENDBRANCH   4   7
BRANCH   1  20
ATOM     15  C   UNL     1      -2.733  11.693  18.672  0.00  0.00    +0.000 C 
ATOM     16  C   UNL     1      -1.433  11.427  19.372  0.00  0.00    +0.000 A 
ATOM     17  C   UNL     1      -1.010  12.228  20.433  0.00  0.00    +0.000 A 
ATOM     18  C   UNL     1       0.196  11.953  21.073  0.00  0.00    +0.000 A 
ATOM     19  C   UNL     1       0.983  10.874  20.663  0.00  0.00    +0.000 A 
ATOM     20  C   UNL     1       0.586  10.051  19.604  0.00  0.00    +0.000 A 
ATOM     21  C   UNL     1      -0.625  10.353  18.958  0.00  0.00    +0.000 A 
ENDBRANCH   1  20
TORSDOF 2
ENDMDL
MODEL 4
REMARK VINA RESULT:      -7.6      0.423      1.538
REMARK  Name = 
REMARK  3 active torsions:
REMARK  status: ('A' for Active; 'I' for Inactive)
REMARK    1  A    between atoms: C_1  and  C_2
REMARK    2  A    between atoms: C_6  and  N_7
REMARK    3  A    between atoms: N_10  and  C_11
REMARK                            x       y       z     vdW  Elec       q    Type
REMARK                         _______ _______ _______ _____ _____    ______ ____
ROOT
ATOM      1  N   UNL     1       5.186   5.178  16.074  0.00  0.00    +0.000 N 
ATOM      2  C   UNL     1       5.060   6.545  16.526  0.00  0.00    +0.000 C 
ATOM      3  C   UNL     1       4.027   6.463  17.633  0.00  0.00    +0.000 C 
ATOM      4  N   UNL     1       4.125   5.094  18.081  0.00  0.00    +0.000 N 
ATOM      5  C   UNL     1       4.734   4.302  17.088  0.00  0.00    +0.000 C 
ATOM      6  O   UNL     1       4.823   3.085  17.145  0.00  0.00    +0.000 OA
ENDROOT
BRANCH   4   7
ATOM      7  C   UNL     1       3.434   4.528  19.242  0.00  0.00    +0.000 C 
ATOM      8  C   UNL     1       3.729   3.032  19.532  0.00  0.00    +0.000 C 
ATOM      9  N   UNL     1       2.498   2.209  19.565  0.00  0.00    +0.000 NA
ATOM     10  C   UNL     1       1.629   2.714  20.656  0.00  0.00    +0.000 C 
ATOM     11  C   UNL     1       1.300   4.207  20.485  0.00  0.00    +0.000 C 
ATOM     12  C   UNL     1       1.896   4.716  19.157  0.00  0.00    +0.000 C 
ATOM     13  C   UNL     1       1.317   3.817  18.053  0.00  0.00    +0.000 C 
ATOM     14  C   UNL     1       1.784   2.370  18.278  0.00  0.00    +0.000 C 
ENDBRANCH   4   7
BRANCH   1  20
ATOM     15  C   UNL     1       8.839   5.797  12.774  0.00  0.00    +0.000 C 
ATOM     16  C   UNL     1       7.567   5.115  13.184  0.00  0.00    +0.000 A 
ATOM     17  C   UNL     1       6.976   4.145  12.373  0.00  0.00    +0.000 A 
ATOM     18  C   UNL     1       5.801   3.519  12.782  0.00  0.00    +0.000 A 
ATOM     19  C   UNL     1       5.213   3.853  14.005  0.00  0.00    +0.000 A 
ATOM     20  C   UNL     1       5.782   4.820  14.841  0.00  0.00    +0.000 A 
ATOM     21  C   UNL     1       6.957   5.453  14.404  0.00  0.00    +0.000 A 
ENDBRANCH   1  20
TORSDOF 2
ENDMDL
MODEL 5
REMARK VINA RESULT:      -7.6      4.506      7.595
REMARK  Name = 
REMARK  3 active torsions:
REMARK  status: ('A' for Active; 'I' for Inactive)
REMARK    1  A    between atoms: C_1  and  C_2
REMARK    2  A    between atoms: C_6  and  N_7
REMARK    3  A    between atoms: N_10  and  C_11
REMARK                            x       y       z     vdW  Elec       q    Type
REMARK                         _______ _______ _______ _____ _____    ______ ____
ROOT
ATOM      1  N   UNL     1       1.517   8.522  19.567  0.00  0.00    +0.000 N 
ATOM      2  C   UNL     1       1.760   7.569  20.625  0.00  0.00    +0.000 C 
ATOM      3  C   UNL     1       2.209   6.322  19.890  0.00  0.00    +0.000 C 
ATOM      4  N   UNL     1       2.731   6.838  18.646  0.00  0.00    +0.000 N 
ATOM      5  C   UNL     1       2.225   8.130  18.406  0.00  0.00    +0.000 C 
ATOM      6  O   UNL     1       2.394   8.748  17.366  0.00  0.00    +0.000 OA
ENDROOT
BRANCH   4   7
ATOM      7  C   UNL     1       3.427   6.051  17.625  0.00  0.00    +0.000 C 
ATOM      8  C   UNL     1       3.106   4.532  17.619  0.00  0.00    +0.000 C 
ATOM      9  N   UNL     1       4.322   3.696  17.763  0.00  0.00    +0.000 NA
ATOM     10  C   UNL     1       5.215   3.971  16.613  0.00  0.00    +0.000 C 
ATOM     11  C   UNL     1       5.573   5.463  16.505  0.00  0.00    +0.000 C 
ATOM     12  C   UNL     1       4.967   6.225  17.701  0.00  0.00    +0.000 C 
ATOM     13  C   UNL     1       5.513   5.542  18.965  0.00  0.00    +0.000 C 
ATOM     14  C   UNL     1       5.019   4.086  19.010  0.00  0.00    +0.000 C 
ENDBRANCH   4   7
BRANCH   1  20
ATOM     15  C   UNL     1      -1.867  11.722  17.855  0.00  0.00    +0.000 C 
ATOM     16  C   UNL     1      -0.890  11.318  18.920  0.00  0.00    +0.000 A 
ATOM     17  C   UNL     1      -0.716  12.090  20.069  0.00  0.00    +0.000 A 
ATOM     18  C   UNL     1       0.189  11.687  21.047  0.00  0.00    +0.000 A 
ATOM     19  C   UNL     1       0.922  10.507  20.887  0.00  0.00    +0.000 A 
ATOM     20  C   UNL     1       0.769   9.710  19.748  0.00  0.00    +0.000 A 
ATOM     21  C   UNL     1      -0.136  10.142  18.764  0.00  0.00    +0.000 A 
ENDBRANCH   1  20
TORSDOF 2
ENDMDL
MODEL 6
REMARK VINA RESULT:      -7.5      4.867      7.772
REMARK  Name = 
REMARK  3 active torsions:
REMARK  status: ('A' for Active; 'I' for Inactive)
REMARK    1  A    between atoms: C_1  and  C_2
REMARK    2  A    between atoms: C_6  and  N_7
REMARK    3  A    between atoms: N_10  and  C_11
REMARK                            x       y       z     vdW  Elec       q    Type
REMARK                         _______ _______ _______ _____ _____    ______ ____
ROOT
ATOM      1  N   UNL     1       1.319   9.190  19.143  0.00  0.00    +0.000 N 
ATOM      2  C   UNL     1       1.796   8.964  17.798  0.00  0.00    +0.000 C 
ATOM      3  C   UNL     1       2.825   7.862  17.963  0.00  0.00    +0.000 C 
ATOM      4  N   UNL     1       2.414   7.201  19.179  0.00  0.00    +0.000 N 
ATOM      5  C   UNL     1       1.586   8.051  19.938  0.00  0.00    +0.000 C 
ATOM      6  O   UNL     1       1.205   7.800  21.071  0.00  0.00    +0.000 OA
ENDROOT
BRANCH   4   7
ATOM      7  C   UNL     1       2.996   5.967  19.713  0.00  0.00    +0.000 C 
ATOM      8  C   UNL     1       4.335   5.524  19.065  0.00  0.00    +0.000 C 
ATOM      9  N   UNL     1       4.267   4.152  18.508  0.00  0.00    +0.000 NA
ATOM     10  C   UNL     1       3.975   3.213  19.618  0.00  0.00    +0.000 C 
ATOM     11  C   UNL     1       2.676   3.582  20.356  0.00  0.00    +0.000 C 
ATOM     12  C   UNL     1       2.003   4.776  19.649  0.00  0.00    +0.000 C 
ATOM     13  C   UNL     1       1.791   4.346  18.189  0.00  0.00    +0.000 C 
ATOM     14  C   UNL     1       3.158   4.091  17.530  0.00  0.00    +0.000 C 
ENDBRANCH   4   7
BRANCH   1  20
ATOM     15  C   UNL     1       1.325  13.748  21.105  0.00  0.00    +0.000 C 
ATOM     16  C   UNL     1       0.570  12.597  20.508  0.00  0.00    +0.000 A 
ATOM     17  C   UNL     1      -0.812  12.657  20.330  0.00  0.00    +0.000 A 
ATOM     18  C   UNL     1      -1.487  11.579  19.763  0.00  0.00    +0.000 A 
ATOM     19  C   UNL     1      -0.787  10.438  19.364  0.00  0.00    +0.000 A 
ATOM     20  C   UNL     1       0.600  10.348  19.527  0.00  0.00    +0.000 A 
ATOM     21  C   UNL     1       1.262  11.438  20.117  0.00  0.00    +0.000 A 
ENDBRANCH   1  20
TORSDOF 2
ENDMDL
MODEL 7
REMARK VINA RESULT:      -7.5      4.552      7.581
REMARK  Name = 
REMARK  3 active torsions:
REMARK  status: ('A' for Active; 'I' for Inactive)
REMARK    1  A    between atoms: C_1  and  C_2
REMARK    2  A    between atoms: C_6  and  N_7
REMARK    3  A    between atoms: N_10  and  C_11
REMARK                            x       y       z     vdW  Elec       q    Type
REMARK                         _______ _______ _______ _____ _____    ______ ____
ROOT
ATOM      1  N   UNL     1       1.568   8.865  19.275  0.00  0.00    +0.000 N 
ATOM      2  C   UNL     1       1.973   8.653  17.905  0.00  0.00    +0.000 C 
ATOM      3  C   UNL     1       2.941   7.489  17.991  0.00  0.00    +0.000 C 
ATOM      4  N   UNL     1       2.544   6.815  19.205  0.00  0.00    +0.000 N 
ATOM      5  C   UNL     1       1.801   7.687  20.024  0.00  0.00    +0.000 C 
ATOM      6  O   UNL     1       1.455   7.424  21.166  0.00  0.00    +0.000 OA
ENDROOT
BRANCH   4   7
ATOM      7  C   UNL     1       3.074   5.534  19.677  0.00  0.00    +0.000 C 
ATOM      8  C   UNL     1       4.387   5.062  18.997  0.00  0.00    +0.000 C 
ATOM      9  N   UNL     1       4.254   3.721  18.379  0.00  0.00    +0.000 NA
ATOM     10  C   UNL     1       3.928   2.746  19.447  0.00  0.00    +0.000 C 
ATOM     11  C   UNL     1       2.653   3.138  20.214  0.00  0.00    +0.000 C 
ATOM     12  C   UNL     1       2.029   4.392  19.568  0.00  0.00    +0.000 C 
ATOM     13  C   UNL     1       1.787   4.039  18.092  0.00  0.00    +0.000 C 
ATOM     14  C   UNL     1       3.135   3.754  17.410  0.00  0.00    +0.000 C 
ENDBRANCH   4   7
BRANCH   1  20
ATOM     15  C   UNL     1      -1.089  11.217  22.743  0.00  0.00    +0.000 C 
ATOM     16  C   UNL     1      -0.390  11.234  21.416  0.00  0.00    +0.000 A 
ATOM     17  C   UNL     1      -0.357  12.389  20.633  0.00  0.00    +0.000 A 
ATOM     18  C   UNL     1       0.308  12.381  19.410  0.00  0.00    +0.000 A 
ATOM     19  C   UNL     1       0.950  11.223  18.963  0.00  0.00    +0.000 A 
ATOM     20  C   UNL     1       0.936  10.049  19.725  0.00  0.00    +0.000 A 
ATOM     21  C   UNL     1       0.246  10.071  20.948  0.00  0.00    +0.000 A 
ENDBRANCH   1  20
TORSDOF 2
ENDMDL
MODEL 8
REMARK VINA RESULT:      -7.4      4.666      7.227
REMARK  Name = 
REMARK  3 active torsions:
REMARK  status: ('A' for Active; 'I' for Inactive)
REMARK    1  A    between atoms: C_1  and  C_2
REMARK    2  A    between atoms: C_6  and  N_7
REMARK    3  A    between atoms: N_10  and  C_11
REMARK                            x       y       z     vdW  Elec       q    Type
REMARK                         _______ _______ _______ _____ _____    ______ ____
ROOT
ATOM      1  N   UNL     1       1.563   9.056  18.794  0.00  0.00    +0.000 N 
ATOM      2  C   UNL     1       2.138   8.560  17.565  0.00  0.00    +0.000 C 
ATOM      3  C   UNL     1       3.008   7.404  18.017  0.00  0.00    +0.000 C 
ATOM      4  N   UNL     1       2.405   7.001  19.266  0.00  0.00    +0.000 N 
ATOM      5  C   UNL     1       1.614   8.046  19.783  0.00  0.00    +0.000 C 
ATOM      6  O   UNL     1       1.098   8.028  20.889  0.00  0.00    +0.000 OA
ENDROOT
BRANCH   4   7
ATOM      7  C   UNL     1       2.782   5.822  20.050  0.00  0.00    +0.000 C 
ATOM      8  C   UNL     1       4.077   5.100  19.591  0.00  0.00    +0.000 C 
ATOM      9  N   UNL     1       3.847   3.669  19.280  0.00  0.00    +0.000 NA
ATOM     10  C   UNL     1       3.371   2.995  20.512  0.00  0.00    +0.000 C 
ATOM     11  C   UNL     1       2.101   3.656  21.075  0.00  0.00    +0.000 C 
ATOM     12  C   UNL     1       1.637   4.776  20.121  0.00  0.00    +0.000 C 
ATOM     13  C   UNL     1       1.441   4.116  18.747  0.00  0.00    +0.000 C 
ATOM     14  C   UNL     1       2.790   3.572  18.247  0.00  0.00    +0.000 C 
ENDBRANCH   4   7
BRANCH   1  20
ATOM     15  C   UNL     1      -2.574  11.791  18.961  0.00  0.00    +0.000 C 
ATOM     16  C   UNL     1      -1.076  11.708  18.978  0.00  0.00    +0.000 A 
ATOM     17  C   UNL     1      -0.292  12.856  19.104  0.00  0.00    +0.000 A 
ATOM     18  C   UNL     1       1.096  12.750  19.127  0.00  0.00    +0.000 A 
ATOM     19  C   UNL     1       1.710  11.498  19.033  0.00  0.00    +0.000 A 
ATOM     20  C   UNL     1       0.952  10.329  18.908  0.00  0.00    +0.000 A 
ATOM     21  C   UNL     1      -0.446  10.456  18.868  0.00  0.00    +0.000 A 
ENDBRANCH   1  20
TORSDOF 2
ENDMDL
MODEL 9
REMARK VINA RESULT:      -7.4      1.215      1.607
REMARK  Name = 
REMARK  3 active torsions:
REMARK  status: ('A' for Active; 'I' for Inactive)
REMARK    1  A    between atoms: C_1  and  C_2
REMARK    2  A    between atoms: C_6  and  N_7
REMARK    3  A    between atoms: N_10  and  C_11
REMARK                            x       y       z     vdW  Elec       q    Type
REMARK                         _______ _______ _______ _____ _____    ______ ____
ROOT
ATOM      1  N   UNL     1       5.592   4.488  16.248  0.00  0.00    +0.000 N 
ATOM      2  C   UNL     1       6.394   4.765  17.416  0.00  0.00    +0.000 C 
ATOM      3  C   UNL     1       5.372   5.124  18.477  0.00  0.00    +0.000 C 
ATOM      4  N   UNL     1       4.171   4.465  18.019  0.00  0.00    +0.000 N 
ATOM      5  C   UNL     1       4.270   4.176  16.645  0.00  0.00    +0.000 C 
ATOM      6  O   UNL     1       3.349   3.744  15.970  0.00  0.00    +0.000 OA
ENDROOT
BRANCH   4   7
ATOM      7  C   UNL     1       2.914   4.377  18.766  0.00  0.00    +0.000 C 
ATOM      8  C   UNL     1       2.986   4.819  20.252  0.00  0.00    +0.000 C 
ATOM      9  N   UNL     1       2.534   3.757  21.181  0.00  0.00    +0.000 NA
ATOM     10  C   UNL     1       1.118   3.443  20.876  0.00  0.00    +0.000 C 
ATOM     11  C   UNL     1       0.925   3.021  19.409  0.00  0.00    +0.000 C 
ATOM     12  C   UNL     1       2.298   2.954  18.708  0.00  0.00    +0.000 C 
ATOM     13  C   UNL     1       3.152   1.977  19.532  0.00  0.00    +0.000 C 
ATOM     14  C   UNL     1       3.350   2.544  20.948  0.00  0.00    +0.000 C 
ENDBRANCH   4   7
BRANCH   1  20
ATOM     15  C   UNL     1       5.374   2.665  11.638  0.00  0.00    +0.000 C 
ATOM     16  C   UNL     1       6.047   3.541  12.652  0.00  0.00    +0.000 A 
ATOM     17  C   UNL     1       7.173   4.295  12.319  0.00  0.00    +0.000 A 
ATOM     18  C   UNL     1       7.773   5.108  13.277  0.00  0.00    +0.000 A 
ATOM     19  C   UNL     1       7.250   5.179  14.571  0.00  0.00    +0.000 A 
ATOM     20  C   UNL     1       6.122   4.437  14.936  0.00  0.00    +0.000 A 
ATOM     21  C   UNL     1       5.540   3.609  13.961  0.00  0.00    +0.000 A 
ENDBRANCH   1  20
TORSDOF 2
ENDMDL
