MODEL 1
REMARK VINA RESULT:      -8.5      0.000      0.000
REMARK  Name = 
REMARK  2 active torsions:
REMARK  status: ('A' for Active; 'I' for Inactive)
REMARK    1  A    between atoms: C_1  and  C_2
REMARK    2  A    between atoms: N_4  and  C_5
REMARK                            x       y       z     vdW  Elec       q    Type
REMARK                         _______ _______ _______ _____ _____    ______ ____
ROOT
ATOM      1  C   UNL     1       6.136   5.423  15.857  0.00  0.00    +0.000 A 
ATOM      2  C   UNL     1       5.027   4.686  15.976  0.00  0.00    +0.000 A 
ATOM      3  C   UNL     1       4.305   4.540  17.253  0.00  0.00    +0.000 A 
ATOM      4  N   UNL     1       3.240   3.805  17.286  0.00  0.00    +0.000 NA
ATOM      5  C   UNL     1       2.583   3.716  18.523  0.00  0.00    +0.000 A 
ATOM      6  C   UNL     1       1.424   2.945  18.609  0.00  0.00    +0.000 A 
ATOM      7  C   UNL     1       0.736   2.833  19.819  0.00  0.00    +0.000 A 
ATOM      8  C   UNL     1       1.208   3.495  20.954  0.00  0.00    +0.000 A 
ATOM      9  C   UNL     1       2.364   4.272  20.879  0.00  0.00    +0.000 A 
ATOM     10  C   UNL     1       3.047   4.380  19.667  0.00  0.00    +0.000 A 
ATOM     11  O   UNL     1       4.182   5.161  19.649  0.00  0.00    +0.000 OA
ATOM     12  C   UNL     1       4.848   5.262  18.435  0.00  0.00    +0.000 A 
ATOM     13  C   UNL     1       5.965   5.989  18.335  0.00  0.00    +0.000 A 
ATOM     14  C   UNL     1       6.695   6.109  17.060  0.00  0.00    +0.000 A 
ATOM     15  O   UNL     1       7.730   6.771  16.987  0.00  0.00    +0.000 OA
ENDROOT
BRANCH   1  19
ATOM     16  C   UNL     1       7.876   5.156  12.548  0.00  0.00    +0.000 C 
ATOM     17  C   UNL     1       6.954   4.697  13.643  0.00  0.00    +0.000 C 
ATOM     18  O   UNL     1       6.373   3.619  13.574  0.00  0.00    +0.000 OA
ATOM     19  N   UNL     1       6.843   5.603  14.680  0.00  0.00    +0.000 N 
ATOM     20  H   UNL     1       7.173   6.554  14.524  0.00  0.00    +0.000 HD
ENDBRANCH   1  19
TORSDOF 1
ENDMDL
MODEL 2
REMARK VINA RESULT:      -8.2      1.996      3.318
REMARK  Name = 
REMARK  2 active torsions:
REMARK  status: ('A' for Active; 'I' for Inactive)
REMARK    1  A    between atoms: C_1  and  C_2
REMARK    2  A    between atoms: N_4  and  C_5
REMARK                            x       y       z     vdW  Elec       q    Type
REMARK                         _______ _______ _______ _____ _____    ______ ____
ROOT
ATOM      1  C   UNL     1       6.230   6.897  17.178  0.00  0.00    +0.000 A 
ATOM      2  C   UNL     1       5.154   6.772  17.962  0.00  0.00    +0.000 A 
ATOM      3  C   UNL     1       4.335   5.547  17.997  0.00  0.00    +0.000 A 
ATOM      4  N   UNL     1       3.306   5.507  18.781  0.00  0.00    +0.000 NA
ATOM      5  C   UNL     1       2.572   4.311  18.786  0.00  0.00    +0.000 A 
ATOM      6  C   UNL     1       1.461   4.214  19.624  0.00  0.00    +0.000 A 
ATOM      7  C   UNL     1       0.705   3.039  19.664  0.00  0.00    +0.000 A 
ATOM      8  C   UNL     1       1.062   1.953  18.863  0.00  0.00    +0.000 A 
ATOM      9  C   UNL     1       2.173   2.038  18.026  0.00  0.00    +0.000 A 
ATOM     10  C   UNL     1       2.924   3.213  17.989  0.00  0.00    +0.000 A 
ATOM     11  O   UNL     1       4.012   3.242  17.144  0.00  0.00    +0.000 OA
ATOM     12  C   UNL     1       4.751   4.418  17.122  0.00  0.00    +0.000 A 
ATOM     13  C   UNL     1       5.814   4.533  16.321  0.00  0.00    +0.000 A 
ATOM     14  C   UNL     1       6.613   5.771  16.274  0.00  0.00    +0.000 A 
ATOM     15  O   UNL     1       7.582   5.867  15.521  0.00  0.00    +0.000 OA
ENDROOT
BRANCH   1  19
ATOM     16  C   UNL     1       8.705   9.663  17.692  0.00  0.00    +0.000 C 
ATOM     17  C   UNL     1       8.088   8.319  17.964  0.00  0.00    +0.000 C 
ATOM     18  O   UNL     1       8.514   7.594  18.856  0.00  0.00    +0.000 OA
ATOM     19  N   UNL     1       7.039   8.018  17.118  0.00  0.00    +0.000 N 
ATOM     20  H   UNL     1       6.929   8.577  16.272  0.00  0.00    +0.000 HD
ENDBRANCH   1  19
TORSDOF 1
ENDMDL
MODEL 3
REMARK VINA RESULT:      -7.8      1.608      1.645
REMARK  Name = 
REMARK  2 active torsions:
REMARK  status: ('A' for Active; 'I' for Inactive)
REMARK    1  A    between atoms: C_1  and  C_2
REMARK    2  A    between atoms: N_4  and  C_5
REMARK                            x       y       z     vdW  Elec       q    Type
REMARK                         _______ _______ _______ _____ _____    ______ ____
ROOT
ATOM      1  C   UNL     1       5.615   4.661  15.449  0.00  0.00    +0.000 A 
ATOM      2  C   UNL     1       5.293   3.704  16.324  0.00  0.00    +0.000 A 
ATOM      3  C   UNL     1       4.490   3.969  17.532  0.00  0.00    +0.000 A 
ATOM      4  N   UNL     1       4.223   2.987  18.332  0.00  0.00    +0.000 NA
ATOM      5  C   UNL     1       3.442   3.294  19.456  0.00  0.00    +0.000 A 
ATOM      6  C   UNL     1       3.117   2.267  20.343  0.00  0.00    +0.000 A 
ATOM      7  C   UNL     1       2.337   2.527  21.472  0.00  0.00    +0.000 A 
ATOM      8  C   UNL     1       1.877   3.822  21.718  0.00  0.00    +0.000 A 
ATOM      9  C   UNL     1       2.191   4.855  20.836  0.00  0.00    +0.000 A 
ATOM     10  C   UNL     1       2.971   4.589  19.710  0.00  0.00    +0.000 A 
ATOM     11  O   UNL     1       3.251   5.647  18.872  0.00  0.00    +0.000 OA
ATOM     12  C   UNL     1       4.025   5.365  17.754  0.00  0.00    +0.000 A 
ATOM     13  C   UNL     1       4.353   6.336  16.897  0.00  0.00    +0.000 A 
ATOM     14  C   UNL     1       5.177   6.067  15.705  0.00  0.00    +0.000 A 
ATOM     15  O   UNL     1       5.482   6.974  14.931  0.00  0.00    +0.000 OA
ENDROOT
BRANCH   1  19
ATOM     16  C   UNL     1       6.973   3.751  12.077  0.00  0.00    +0.000 C 
ATOM     17  C   UNL     1       5.894   3.923  13.110  0.00  0.00    +0.000 C 
ATOM     18  O   UNL     1       4.733   3.610  12.873  0.00  0.00    +0.000 OA
ATOM     19  N   UNL     1       6.354   4.463  14.295  0.00  0.00    +0.000 N 
ATOM     20  H   UNL     1       7.273   4.904  14.298  0.00  0.00    +0.000 HD
ENDBRANCH   1  19
TORSDOF 1
ENDMDL
MODEL 4
REMARK VINA RESULT:      -7.7      1.832      6.461
REMARK  Name = 
REMARK  2 active torsions:
REMARK  status: ('A' for Active; 'I' for Inactive)
REMARK    1  A    between atoms: C_1  and  C_2
REMARK    2  A    between atoms: N_4  and  C_5
REMARK                            x       y       z     vdW  Elec       q    Type
REMARK                         _______ _______ _______ _____ _____    ______ ____
ROOT
ATOM      1  C   UNL     1       4.581   4.142  18.451  0.00  0.00    +0.000 A 
ATOM      2  C   UNL     1       4.438   3.689  17.202  0.00  0.00    +0.000 A 
ATOM      3  C   UNL     1       5.335   4.092  16.103  0.00  0.00    +0.000 A 
ATOM      4  N   UNL     1       5.128   3.612  14.920  0.00  0.00    +0.000 NA
ATOM      5  C   UNL     1       6.022   4.016  13.917  0.00  0.00    +0.000 A 
ATOM      6  C   UNL     1       5.848   3.516  12.626  0.00  0.00    +0.000 A 
ATOM      7  C   UNL     1       6.718   3.889  11.599  0.00  0.00    +0.000 A 
ATOM      8  C   UNL     1       7.771   4.767  11.862  0.00  0.00    +0.000 A 
ATOM      9  C   UNL     1       7.957   5.269  13.149  0.00  0.00    +0.000 A 
ATOM     10  C   UNL     1       7.085   4.894  14.171  0.00  0.00    +0.000 A 
ATOM     11  O   UNL     1       7.316   5.419  15.424  0.00  0.00    +0.000 OA
ATOM     12  C   UNL     1       6.441   5.033  16.431  0.00  0.00    +0.000 A 
ATOM     13  C   UNL     1       6.586   5.507  17.671  0.00  0.00    +0.000 A 
ATOM     14  C   UNL     1       5.669   5.118  18.758  0.00  0.00    +0.000 A 
ATOM     15  O   UNL     1       5.808   5.573  19.893  0.00  0.00    +0.000 OA
ENDROOT
BRANCH   1  19
ATOM     16  C   UNL     1       2.840   2.529  21.351  0.00  0.00    +0.000 C 
ATOM     17  C   UNL     1       3.945   2.691  20.345  0.00  0.00    +0.000 C 
ATOM     18  O   UNL     1       4.888   1.909  20.306  0.00  0.00    +0.000 OA
ATOM     19  N   UNL     1       3.775   3.785  19.518  0.00  0.00    +0.000 N 
ATOM     20  H   UNL     1       3.095   4.493  19.792  0.00  0.00    +0.000 HD
ENDBRANCH   1  19
TORSDOF 1
ENDMDL
MODEL 5
REMARK VINA RESULT:      -7.7      1.677      6.462
REMARK  Name = 
REMARK  2 active torsions:
REMARK  status: ('A' for Active; 'I' for Inactive)
REMARK    1  A    between atoms: C_1  and  C_2
REMARK    2  A    between atoms: N_4  and  C_5
REMARK                            x       y       z     vdW  Elec       q    Type
REMARK                         _______ _______ _______ _____ _____    ______ ____
ROOT
ATOM      1  C   UNL     1       4.983   4.038  18.579  0.00  0.00    +0.000 A 
ATOM      2  C   UNL     1       4.725   3.635  17.331  0.00  0.00    +0.000 A 
ATOM      3  C   UNL     1       5.547   4.046  16.178  0.00  0.00    +0.000 A 
ATOM      4  N   UNL     1       5.229   3.615  15.000  0.00  0.00    +0.000 NA
ATOM      5  C   UNL     1       6.056   4.024  13.943  0.00  0.00    +0.000 A 
ATOM      6  C   UNL     1       5.762   3.577  12.655  0.00  0.00    +0.000 A 
ATOM      7  C   UNL     1       6.562   3.956  11.574  0.00  0.00    +0.000 A 
ATOM      8  C   UNL     1       7.664   4.787  11.780  0.00  0.00    +0.000 A 
ATOM      9  C   UNL     1       7.969   5.237  13.064  0.00  0.00    +0.000 A 
ATOM     10  C   UNL     1       7.167   4.855  14.139  0.00  0.00    +0.000 A 
ATOM     11  O   UNL     1       7.515   5.328  15.386  0.00  0.00    +0.000 OA
ATOM     12  C   UNL     1       6.709   4.936  16.447  0.00  0.00    +0.000 A 
ATOM     13  C   UNL     1       6.969   5.360  17.687  0.00  0.00    +0.000 A 
ATOM     14  C   UNL     1       6.127   4.965  18.830  0.00  0.00    +0.000 A 
ATOM     15  O   UNL     1       6.372   5.374  19.964  0.00  0.00    +0.000 OA
ENDROOT
BRANCH   1  19
ATOM     16  C   UNL     1       2.479   3.556  21.326  0.00  0.00    +0.000 C 
ATOM     17  C   UNL     1       2.953   4.043  19.985  0.00  0.00    +0.000 C 
ATOM     18  O   UNL     1       2.219   4.697  19.251  0.00  0.00    +0.000 OA
ATOM     19  N   UNL     1       4.251   3.671  19.696  0.00  0.00    +0.000 N 
ATOM     20  H   UNL     1       4.677   2.936  20.260  0.00  0.00    +0.000 HD
ENDBRANCH   1  19
TORSDOF 1
ENDMDL
MODEL 6
REMARK VINA RESULT:      -7.5      1.579      1.654
REMARK  Name = 
REMARK  2 active torsions:
REMARK  status: ('A' for Active; 'I' for Inactive)
REMARK    1  A    between atoms: C_1  and  C_2
REMARK    2  A    between atoms: N_4  and  C_5
REMARK                            x       y       z     vdW  Elec       q    Type
REMARK                         _______ _______ _______ _____ _____    ______ ____
ROOT
ATOM      1  C   UNL     1       5.230   4.742  15.373  0.00  0.00    +0.000 A 
ATOM      2  C   UNL     1       4.913   3.742  16.202  0.00  0.00    +0.000 A 
ATOM      3  C   UNL     1       4.239   3.965  17.494  0.00  0.00    +0.000 A 
ATOM      4  N   UNL     1       3.969   2.944  18.241  0.00  0.00    +0.000 NA
ATOM      5  C   UNL     1       3.312   3.214  19.452  0.00  0.00    +0.000 A 
ATOM      6  C   UNL     1       2.988   2.145  20.288  0.00  0.00    +0.000 A 
ATOM      7  C   UNL     1       2.330   2.369  21.499  0.00  0.00    +0.000 A 
ATOM      8  C   UNL     1       1.991   3.669  21.880  0.00  0.00    +0.000 A 
ATOM      9  C   UNL     1       2.306   4.743  21.050  0.00  0.00    +0.000 A 
ATOM     10  C   UNL     1       2.964   4.515  19.841  0.00  0.00    +0.000 A 
ATOM     11  O   UNL     1       3.250   5.613  19.060  0.00  0.00    +0.000 OA
ATOM     12  C   UNL     1       3.902   5.369  17.858  0.00  0.00    +0.000 A 
ATOM     13  C   UNL     1       4.228   6.379  17.048  0.00  0.00    +0.000 A 
ATOM     14  C   UNL     1       4.924   6.149  15.769  0.00  0.00    +0.000 A 
ATOM     15  O   UNL     1       5.229   7.091  15.039  0.00  0.00    +0.000 OA
ENDROOT
BRANCH   1  19
ATOM     16  C   UNL     1       7.489   4.722  12.382  0.00  0.00    +0.000 C 
ATOM     17  C   UNL     1       7.150   4.931  13.832  0.00  0.00    +0.000 C 
ATOM     18  O   UNL     1       7.982   5.363  14.622  0.00  0.00    +0.000 OA
ATOM     19  N   UNL     1       5.850   4.584  14.145  0.00  0.00    +0.000 N 
ATOM     20  H   UNL     1       5.330   4.018  13.476  0.00  0.00    +0.000 HD
ENDBRANCH   1  19
TORSDOF 1
ENDMDL
MODEL 7
REMARK VINA RESULT:      -7.3      4.818      7.591
REMARK  Name = 
REMARK  2 active torsions:
REMARK  status: ('A' for Active; 'I' for Inactive)
REMARK    1  A    between atoms: C_1  and  C_2
REMARK    2  A    between atoms: N_4  and  C_5
REMARK                            x       y       z     vdW  Elec       q    Type
REMARK                         _______ _______ _______ _____ _____    ______ ____
ROOT
ATOM      1  C   UNL     1       0.616   9.376  20.275  0.00  0.00    +0.000 A 
ATOM      2  C   UNL     1       1.210   8.208  20.542  0.00  0.00    +0.000 A 
ATOM      3  C   UNL     1       2.130   7.551  19.596  0.00  0.00    +0.000 A 
ATOM      4  N   UNL     1       2.662   6.419  19.927  0.00  0.00    +0.000 NA
ATOM      5  C   UNL     1       3.543   5.848  18.996  0.00  0.00    +0.000 A 
ATOM      6  C   UNL     1       4.152   4.633  19.312  0.00  0.00    +0.000 A 
ATOM      7  C   UNL     1       5.040   4.032  18.416  0.00  0.00    +0.000 A 
ATOM      8  C   UNL     1       5.322   4.648  17.196  0.00  0.00    +0.000 A 
ATOM      9  C   UNL     1       4.723   5.864  16.872  0.00  0.00    +0.000 A 
ATOM     10  C   UNL     1       3.837   6.460  17.770  0.00  0.00    +0.000 A 
ATOM     11  O   UNL     1       3.274   7.662  17.399  0.00  0.00    +0.000 OA
ATOM     12  C   UNL     1       2.398   8.244  18.306  0.00  0.00    +0.000 A 
ATOM     13  C   UNL     1       1.799   9.403  18.019  0.00  0.00    +0.000 A 
ATOM     14  C   UNL     1       0.860  10.040  18.960  0.00  0.00    +0.000 A 
ATOM     15  O   UNL     1       0.306  11.101  18.676  0.00  0.00    +0.000 OA
ENDROOT
BRANCH   1  19
ATOM     16  C   UNL     1      -1.254  10.874  23.157  0.00  0.00    +0.000 C 
ATOM     17  C   UNL     1      -0.093  10.182  22.499  0.00  0.00    +0.000 C 
ATOM     18  O   UNL     1       0.875   9.807  23.151  0.00  0.00    +0.000 OA
ATOM     19  N   UNL     1      -0.245  10.039  21.133  0.00  0.00    +0.000 N 
ATOM     20  H   UNL     1      -0.963  10.593  20.669  0.00  0.00    +0.000 HD
ENDBRANCH   1  19
TORSDOF 1
ENDMDL
MODEL 8
REMARK VINA RESULT:      -7.3      3.606      4.313
REMARK  Name = 
REMARK  2 active torsions:
REMARK  status: ('A' for Active; 'I' for Inactive)
REMARK    1  A    between atoms: C_1  and  C_2
REMARK    2  A    between atoms: N_4  and  C_5
REMARK                            x       y       z     vdW  Elec       q    Type
REMARK                         _______ _______ _______ _____ _____    ______ ____
ROOT
ATOM      1  C   UNL     1       4.485   5.615  17.175  0.00  0.00    +0.000 A 
ATOM      2  C   UNL     1       3.834   6.777  17.068  0.00  0.00    +0.000 A 
ATOM      3  C   UNL     1       2.986   7.315  18.148  0.00  0.00    +0.000 A 
ATOM      4  N   UNL     1       2.386   8.447  17.965  0.00  0.00    +0.000 NA
ATOM      5  C   UNL     1       1.606   8.918  19.032  0.00  0.00    +0.000 A 
ATOM      6  C   UNL     1       0.949  10.140  18.888  0.00  0.00    +0.000 A 
ATOM      7  C   UNL     1       0.166  10.649  19.928  0.00  0.00    +0.000 A 
ATOM      8  C   UNL     1       0.039   9.934  21.119  0.00  0.00    +0.000 A 
ATOM      9  C   UNL     1       0.695   8.714  21.275  0.00  0.00    +0.000 A 
ATOM     10  C   UNL     1       1.475   8.210  20.234  0.00  0.00    +0.000 A 
ATOM     11  O   UNL     1       2.102   7.000  20.442  0.00  0.00    +0.000 OA
ATOM     12  C   UNL     1       2.878   6.515  19.398  0.00  0.00    +0.000 A 
ATOM     13  C   UNL     1       3.509   5.343  19.513  0.00  0.00    +0.000 A 
ATOM     14  C   UNL     1       4.335   4.801  18.418  0.00  0.00    +0.000 A 
ATOM     15  O   UNL     1       4.899   3.714  18.534  0.00  0.00    +0.000 OA
ENDROOT
BRANCH   1  19
ATOM     16  C   UNL     1       7.177   4.737  14.720  0.00  0.00    +0.000 C 
ATOM     17  C   UNL     1       6.596   5.457  15.905  0.00  0.00    +0.000 C 
ATOM     18  O   UNL     1       7.250   6.289  16.525  0.00  0.00    +0.000 OA
ATOM     19  N   UNL     1       5.302   5.073  16.197  0.00  0.00    +0.000 N 
ATOM     20  H   UNL     1       4.949   4.215  15.775  0.00  0.00    +0.000 HD
ENDBRANCH   1  19
TORSDOF 1
ENDMDL
MODEL 9
REMARK VINA RESULT:      -7.3      4.355      5.869
REMARK  Name = 
REMARK  2 active torsions:
REMARK  status: ('A' for Active; 'I' for Inactive)
REMARK    1  A    between atoms: C_1  and  C_2
REMARK    2  A    between atoms: N_4  and  C_5
REMARK                            x       y       z     vdW  Elec       q    Type
REMARK                         _______ _______ _______ _____ _____    ______ ____
ROOT
ATOM      1  C   UNL     1       3.021   5.146  19.072  0.00  0.00    +0.000 A 
ATOM      2  C   UNL     1       2.306   5.591  20.110  0.00  0.00    +0.000 A 
ATOM      3  C   UNL     1       1.816   6.979  20.200  0.00  0.00    +0.000 A 
ATOM      4  N   UNL     1       1.134   7.334  21.241  0.00  0.00    +0.000 NA
ATOM      5  C   UNL     1       0.678   8.661  21.265  0.00  0.00    +0.000 A 
ATOM      6  C   UNL     1      -0.072   9.088  22.360  0.00  0.00    +0.000 A 
ATOM      7  C   UNL     1      -0.550  10.400  22.423  0.00  0.00    +0.000 A 
ATOM      8  C   UNL     1      -0.276  11.291  21.384  0.00  0.00    +0.000 A 
ATOM      9  C   UNL     1       0.469  10.873  20.283  0.00  0.00    +0.000 A 
ATOM     10  C   UNL     1       0.943   9.563  20.226  0.00  0.00    +0.000 A 
ATOM     11  O   UNL     1       1.674   9.203  19.114  0.00  0.00    +0.000 OA
ATOM     12  C   UNL     1       2.136   7.894  19.071  0.00  0.00    +0.000 A 
ATOM     13  C   UNL     1       2.863   7.468  18.034  0.00  0.00    +0.000 A 
ATOM     14  C   UNL     1       3.370   6.085  17.964  0.00  0.00    +0.000 A 
ATOM     15  O   UNL     1       4.050   5.711  17.009  0.00  0.00    +0.000 OA
ENDROOT
BRANCH   1  19
ATOM     16  C   UNL     1       3.571   1.492  18.448  0.00  0.00    +0.000 C 
ATOM     17  C   UNL     1       2.823   2.793  18.353  0.00  0.00    +0.000 C 
ATOM     18  O   UNL     1       1.732   2.858  17.797  0.00  0.00    +0.000 OA
ATOM     19  N   UNL     1       3.492   3.852  18.934  0.00  0.00    +0.000 N 
ATOM     20  H   UNL     1       4.482   3.735  19.148  0.00  0.00    +0.000 HD
ENDBRANCH   1  19
TORSDOF 1
ENDMDL
