MODEL 1
REMARK VINA RESULT:      -7.1      0.000      0.000
REMARK  Name = 
REMARK  8 active torsions:
REMARK  status: ('A' for Active; 'I' for Inactive)
REMARK    1  A    between atoms: C_1  and  C_2
REMARK    2  A    between atoms: C_2  and  N_3
REMARK    3  A    between atoms: C_4  and  C_5
REMARK    4  A    between atoms: N_7  and  C_8
REMARK    5  A    between atoms: C_16  and  C_17
REMARK    6  A    between atoms: C_24  and  C_25
REMARK    7  A    between atoms: C_29  and  C_30
REMARK    8  A    between atoms: C_29  and  C_31
REMARK                            x       y       z     vdW  Elec       q    Type
REMARK                         _______ _______ _______ _____ _____    ______ ____
ROOT
ATOM      1  C   UNL     1       2.396  13.793  20.606  0.00  0.00    +0.000 A 
ATOM      2  N   UNL     1       1.478  13.833  21.587  0.00  0.00    +0.000 NA
ATOM      3  N   UNL     1       0.458  13.016  21.174  0.00  0.00    +0.000 N 
ATOM      4  C   UNL     1       0.660  12.548  19.869  0.00  0.00    +0.000 A 
ATOM      5  C   UNL     1       1.916  13.021  19.501  0.00  0.00    +0.000 A 
ATOM      6  C   UNL     1       2.648  12.824  18.213  0.00  0.00    +0.000 C 
ENDROOT
BRANCH   1   8
ATOM      7  N   UNL     1       3.990  15.587  19.811  0.00  0.00    +0.000 N 
ATOM      8  C   UNL     1       3.680  14.519  20.631  0.00  0.00    +0.000 C 
ATOM      9  N   UNL     1       4.601  14.171  21.487  0.00  0.00    +0.000 NA
ATOM     10  C   UNL     1       5.673  15.021  21.299  0.00  0.00    +0.000 C 
ATOM     11  O   UNL     1       6.681  15.040  21.992  0.00  0.00    +0.000 OA
ATOM     12  C   UNL     1       5.401  15.940  20.093  0.00  0.00    +0.000 C 
ATOM     13  C   UNL     1       5.669  17.389  20.478  0.00  0.00    +0.000 C 
ATOM     14  C   UNL     1       6.304  15.481  18.952  0.00  0.00    +0.000 C 
BRANCH   7  16
ATOM     15  C   UNL     1       3.058  16.491  17.708  0.00  0.00    +0.000 C 
ATOM     16  C   UNL     1       3.053  16.532  19.232  0.00  0.00    +0.000 C 
ENDBRANCH   7  16
ENDBRANCH   1   8
BRANCH   3  17
ATOM     17  C   UNL     1      -0.659  12.810  22.050  0.00  0.00    +0.000 A 
ATOM     18  C   UNL     1      -1.451  13.927  22.382  0.00  0.00    +0.000 A 
ATOM     19  C   UNL     1      -2.600  13.779  23.173  0.00  0.00    +0.000 A 
ATOM     20  C   UNL     1      -2.973  12.522  23.629  0.00  0.00    +0.000 A 
ATOM     21 CL   UNL     1      -4.369  12.339  24.620  0.00  0.00    +0.000 Cl
ATOM     22  C   UNL     1      -2.191  11.410  23.331  0.00  0.00    +0.000 A 
ATOM     23  C   UNL     1      -1.013  11.557  22.583  0.00  0.00    +0.000 A 
ATOM     24 CL   UNL     1       0.032  10.177  22.595  0.00  0.00    +0.000 Cl
ENDBRANCH   3  17
BRANCH   4  25
ATOM     25  C   UNL     1      -0.290  11.760  19.060  0.00  0.00    +0.000 A 
ATOM     26  C   UNL     1      -0.042  10.430  18.692  0.00  0.00    +0.000 A 
ATOM     27  C   UNL     1      -0.885   9.776  17.782  0.00  0.00    +0.000 A 
ATOM     28  C   UNL     1      -2.016  10.424  17.292  0.00  0.00    +0.000 A 
ATOM     29 CL   UNL     1      -3.024   9.643  16.138  0.00  0.00    +0.000 Cl
ATOM     30  C   UNL     1      -2.324  11.712  17.713  0.00  0.00    +0.000 A 
ATOM     31  C   UNL     1      -1.459  12.378  18.580  0.00  0.00    +0.000 A 
ENDBRANCH   4  25
TORSDOF 4
ENDMDL
MODEL 2
REMARK VINA RESULT:      -7.0      4.034      7.953
REMARK  Name = 
REMARK  8 active torsions:
REMARK  status: ('A' for Active; 'I' for Inactive)
REMARK    1  A    between atoms: C_1  and  C_2
REMARK    2  A    between atoms: C_2  and  N_3
REMARK    3  A    between atoms: C_4  and  C_5
REMARK    4  A    between atoms: N_7  and  C_8
REMARK    5  A    between atoms: C_16  and  C_17
REMARK    6  A    between atoms: C_24  and  C_25
REMARK    7  A    between atoms: C_29  and  C_30
REMARK    8  A    between atoms: C_29  and  C_31
REMARK                            x       y       z     vdW  Elec       q    Type
REMARK                         _______ _______ _______ _____ _____    ______ ____
ROOT
ATOM      1  C   UNL     1      -2.264  12.051  19.817  0.00  0.00    +0.000 A 
ATOM      2  N   UNL     1      -1.720  10.854  19.538  0.00  0.00    +0.000 NA
ATOM      3  N   UNL     1      -0.364  11.053  19.534  0.00  0.00    +0.000 N 
ATOM      4  C   UNL     1      -0.036  12.406  19.685  0.00  0.00    +0.000 A 
ATOM      5  C   UNL     1      -1.248  13.057  19.893  0.00  0.00    +0.000 A 
ATOM      6  C   UNL     1      -1.502  14.512  20.120  0.00  0.00    +0.000 C 
ENDROOT
BRANCH   1   8
ATOM      7  N   UNL     1      -4.643  12.003  18.962  0.00  0.00    +0.000 N 
ATOM      8  C   UNL     1      -3.712  12.305  19.939  0.00  0.00    +0.000 C 
ATOM      9  N   UNL     1      -4.185  12.829  21.035  0.00  0.00    +0.000 NA
ATOM     10  C   UNL     1      -5.553  12.936  20.877  0.00  0.00    +0.000 C 
ATOM     11  O   UNL     1      -6.331  13.305  21.747  0.00  0.00    +0.000 OA
ATOM     12  C   UNL     1      -5.945  12.516  19.448  0.00  0.00    +0.000 C 
ATOM     13  C   UNL     1      -7.087  11.510  19.501  0.00  0.00    +0.000 C 
ATOM     14  C   UNL     1      -6.338  13.779  18.688  0.00  0.00    +0.000 C 
BRANCH   7  16
ATOM     15  C   UNL     1      -4.210  11.487  16.584  0.00  0.00    +0.000 C 
ATOM     16  C   UNL     1      -4.543  10.947  17.971  0.00  0.00    +0.000 C 
ENDBRANCH   7  16
ENDBRANCH   1   8
BRANCH   3  17
ATOM     17  C   UNL     1       0.498   9.927  19.317  0.00  0.00    +0.000 A 
ATOM     18  C   UNL     1       0.974   9.704  18.010  0.00  0.00    +0.000 A 
ATOM     19  C   UNL     1       1.881   8.666  17.747  0.00  0.00    +0.000 A 
ATOM     20  C   UNL     1       2.324   7.852  18.780  0.00  0.00    +0.000 A 
ATOM     21 CL   UNL     1       3.417   6.562  18.458  0.00  0.00    +0.000 Cl
ATOM     22  C   UNL     1       1.848   8.042  20.073  0.00  0.00    +0.000 A 
ATOM     23  C   UNL     1       0.903   9.046  20.336  0.00  0.00    +0.000 A 
ATOM     24 CL   UNL     1       0.139   8.938  21.886  0.00  0.00    +0.000 Cl
ENDBRANCH   3  17
BRANCH   4  25
ATOM     25  C   UNL     1       1.312  13.000  19.595  0.00  0.00    +0.000 A 
ATOM     26  C   UNL     1       2.082  13.295  20.729  0.00  0.00    +0.000 A 
ATOM     27  C   UNL     1       3.279  14.015  20.607  0.00  0.00    +0.000 A 
ATOM     28  C   UNL     1       3.747  14.379  19.347  0.00  0.00    +0.000 A 
ATOM     29 CL   UNL     1       5.188  15.304  19.198  0.00  0.00    +0.000 Cl
ATOM     30  C   UNL     1       3.040  14.020  18.205  0.00  0.00    +0.000 A 
ATOM     31  C   UNL     1       1.825  13.347  18.332  0.00  0.00    +0.000 A 
ENDBRANCH   4  25
TORSDOF 4
ENDMDL
MODEL 3
REMARK VINA RESULT:      -6.9      0.986      1.349
REMARK  Name = 
REMARK  8 active torsions:
REMARK  status: ('A' for Active; 'I' for Inactive)
REMARK    1  A    between atoms: C_1  and  C_2
REMARK    2  A    between atoms: C_2  and  N_3
REMARK    3  A    between atoms: C_4  and  C_5
REMARK    4  A    between atoms: N_7  and  C_8
REMARK    5  A    between atoms: C_16  and  C_17
REMARK    6  A    between atoms: C_24  and  C_25
REMARK    7  A    between atoms: C_29  and  C_30
REMARK    8  A    between atoms: C_29  and  C_31
REMARK                            x       y       z     vdW  Elec       q    Type
REMARK                         _______ _______ _______ _____ _____    ______ ____
ROOT
ATOM      1  C   UNL     1       2.286  13.729  20.564  0.00  0.00    +0.000 A 
ATOM      2  N   UNL     1       1.308  13.823  21.482  0.00  0.00    +0.000 NA
ATOM      3  N   UNL     1       0.296  13.017  21.030  0.00  0.00    +0.000 N 
ATOM      4  C   UNL     1       0.569  12.501  19.758  0.00  0.00    +0.000 A 
ATOM      5  C   UNL     1       1.857  12.931  19.456  0.00  0.00    +0.000 A 
ATOM      6  C   UNL     1       2.665  12.672  18.225  0.00  0.00    +0.000 C 
ENDROOT
BRANCH   1   8
ATOM      7  N   UNL     1       3.967  15.468  19.827  0.00  0.00    +0.000 N 
ATOM      8  C   UNL     1       3.584  14.424  20.649  0.00  0.00    +0.000 C 
ATOM      9  N   UNL     1       4.446  14.072  21.562  0.00  0.00    +0.000 NA
ATOM     10  C   UNL     1       5.548  14.892  21.419  0.00  0.00    +0.000 C 
ATOM     11  O   UNL     1       6.515  14.901  22.168  0.00  0.00    +0.000 OA
ATOM     12  C   UNL     1       5.368  15.792  20.182  0.00  0.00    +0.000 C 
ATOM     13  C   UNL     1       5.649  17.242  20.554  0.00  0.00    +0.000 C 
ATOM     14  C   UNL     1       6.322  15.290  19.103  0.00  0.00    +0.000 C 
BRANCH   7  16
ATOM     15  C   UNL     1       3.173  16.346  17.657  0.00  0.00    +0.000 C 
ATOM     16  C   UNL     1       3.087  16.423  19.178  0.00  0.00    +0.000 C 
ENDBRANCH   7  16
ENDBRANCH   1   8
BRANCH   3  17
ATOM     17  C   UNL     1      -0.880  12.868  21.839  0.00  0.00    +0.000 A 
ATOM     18  C   UNL     1      -1.008  11.694  22.606  0.00  0.00    +0.000 A 
ATOM     19  C   UNL     1      -2.096  11.523  23.475  0.00  0.00    +0.000 A 
ATOM     20  C   UNL     1      -3.056  12.519  23.592  0.00  0.00    +0.000 A 
ATOM     21 CL   UNL     1      -4.406  12.302  24.638  0.00  0.00    +0.000 Cl
ATOM     22  C   UNL     1      -2.959  13.675  22.825  0.00  0.00    +0.000 A 
ATOM     23  C   UNL     1      -1.901  13.833  21.917  0.00  0.00    +0.000 A 
ATOM     24 CL   UNL     1      -2.098  15.131  20.789  0.00  0.00    +0.000 Cl
ENDBRANCH   3  17
BRANCH   4  25
ATOM     25  C   UNL     1      -0.348  11.709  18.915  0.00  0.00    +0.000 A 
ATOM     26  C   UNL     1      -0.119  10.357  18.618  0.00  0.00    +0.000 A 
ATOM     27  C   UNL     1      -0.917   9.692  17.677  0.00  0.00    +0.000 A 
ATOM     28  C   UNL     1      -1.990  10.352  17.083  0.00  0.00    +0.000 A 
ATOM     29 CL   UNL     1      -2.940   9.554  15.893  0.00  0.00    +0.000 Cl
ATOM     30  C   UNL     1      -2.284  11.666  17.430  0.00  0.00    +0.000 A 
ATOM     31  C   UNL     1      -1.460  12.340  18.329  0.00  0.00    +0.000 A 
ENDBRANCH   4  25
TORSDOF 4
ENDMDL
MODEL 4
REMARK VINA RESULT:      -6.7      3.672      7.566
REMARK  Name = 
REMARK  8 active torsions:
REMARK  status: ('A' for Active; 'I' for Inactive)
REMARK    1  A    between atoms: C_1  and  C_2
REMARK    2  A    between atoms: C_2  and  N_3
REMARK    3  A    between atoms: C_4  and  C_5
REMARK    4  A    between atoms: N_7  and  C_8
REMARK    5  A    between atoms: C_16  and  C_17
REMARK    6  A    between atoms: C_24  and  C_25
REMARK    7  A    between atoms: C_29  and  C_30
REMARK    8  A    between atoms: C_29  and  C_31
REMARK                            x       y       z     vdW  Elec       q    Type
REMARK                         _______ _______ _______ _____ _____    ______ ____
ROOT
ATOM      1  C   UNL     1      -1.875  12.460  21.647  0.00  0.00    +0.000 A 
ATOM      2  N   UNL     1      -1.490  11.279  21.133  0.00  0.00    +0.000 NA
ATOM      3  N   UNL     1      -0.258  11.500  20.575  0.00  0.00    +0.000 N 
ATOM      4  C   UNL     1       0.098  12.854  20.618  0.00  0.00    +0.000 A 
ATOM      5  C   UNL     1      -0.922  13.479  21.328  0.00  0.00    +0.000 A 
ATOM      6  C   UNL     1      -1.065  14.924  21.683  0.00  0.00    +0.000 C 
ENDROOT
BRANCH   1   8
ATOM      7  N   UNL     1      -4.183  13.463  21.885  0.00  0.00    +0.000 N 
ATOM      8  C   UNL     1      -3.144  12.687  22.364  0.00  0.00    +0.000 C 
ATOM      9  N   UNL     1      -3.344  12.118  23.520  0.00  0.00    +0.000 NA
ATOM     10  C   UNL     1      -4.605  12.489  23.944  0.00  0.00    +0.000 C 
ATOM     11  O   UNL     1      -5.157  12.066  24.950  0.00  0.00    +0.000 OA
ATOM     12  C   UNL     1      -5.205  13.507  22.956  0.00  0.00    +0.000 C 
ATOM     13  C   UNL     1      -6.612  13.075  22.563  0.00  0.00    +0.000 C 
ATOM     14  C   UNL     1      -5.203  14.871  23.641  0.00  0.00    +0.000 C 
BRANCH   7  16
ATOM     15  C   UNL     1      -4.722  12.417  19.712  0.00  0.00    +0.000 C 
ATOM     16  C   UNL     1      -4.505  13.709  20.491  0.00  0.00    +0.000 C 
ENDBRANCH   7  16
ENDBRANCH   1   8
BRANCH   3  17
ATOM     17  C   UNL     1       0.442  10.394  19.988  0.00  0.00    +0.000 A 
ATOM     18  C   UNL     1       0.570  10.365  18.585  0.00  0.00    +0.000 A 
ATOM     19  C   UNL     1       1.307   9.352  17.955  0.00  0.00    +0.000 A 
ATOM     20  C   UNL     1       1.927   8.369  18.715  0.00  0.00    +0.000 A 
ATOM     21 CL   UNL     1       2.812   7.109  17.945  0.00  0.00    +0.000 Cl
ATOM     22  C   UNL     1       1.793   8.367  20.099  0.00  0.00    +0.000 A 
ATOM     23  C   UNL     1       1.015   9.348  20.733  0.00  0.00    +0.000 A 
ATOM     24 CL   UNL     1       0.643   9.021  22.392  0.00  0.00    +0.000 Cl
ENDBRANCH   3  17
BRANCH   4  25
ATOM     25  C   UNL     1       1.286  13.471  19.997  0.00  0.00    +0.000 A 
ATOM     26  C   UNL     1       1.351  13.766  18.627  0.00  0.00    +0.000 A 
ATOM     27  C   UNL     1       2.556  14.188  18.049  0.00  0.00    +0.000 A 
ATOM     28  C   UNL     1       3.680  14.386  18.847  0.00  0.00    +0.000 A 
ATOM     29 CL   UNL     1       5.171  14.856  18.132  0.00  0.00    +0.000 Cl
ATOM     30  C   UNL     1       3.610  14.180  20.220  0.00  0.00    +0.000 A 
ATOM     31  C   UNL     1       2.425  13.713  20.786  0.00  0.00    +0.000 A 
ENDBRANCH   4  25
TORSDOF 4
ENDMDL
MODEL 5
REMARK VINA RESULT:      -6.7      4.011      7.893
REMARK  Name = 
REMARK  8 active torsions:
REMARK  status: ('A' for Active; 'I' for Inactive)
REMARK    1  A    between atoms: C_1  and  C_2
REMARK    2  A    between atoms: C_2  and  N_3
REMARK    3  A    between atoms: C_4  and  C_5
REMARK    4  A    between atoms: N_7  and  C_8
REMARK    5  A    between atoms: C_16  and  C_17
REMARK    6  A    between atoms: C_24  and  C_25
REMARK    7  A    between atoms: C_29  and  C_30
REMARK    8  A    between atoms: C_29  and  C_31
REMARK                            x       y       z     vdW  Elec       q    Type
REMARK                         _______ _______ _______ _____ _____    ______ ____
ROOT
ATOM      1  C   UNL     1      -2.254  12.279  19.901  0.00  0.00    +0.000 A 
ATOM      2  N   UNL     1      -1.752  11.056  19.655  0.00  0.00    +0.000 NA
ATOM      3  N   UNL     1      -0.391  11.211  19.637  0.00  0.00    +0.000 N 
ATOM      4  C   UNL     1      -0.017  12.556  19.747  0.00  0.00    +0.000 A 
ATOM      5  C   UNL     1      -1.206  13.252  19.942  0.00  0.00    +0.000 A 
ATOM      6  C   UNL     1      -1.410  14.721  20.126  0.00  0.00    +0.000 C 
ENDROOT
BRANCH   1   8
ATOM      7  N   UNL     1      -4.344  12.817  21.219  0.00  0.00    +0.000 N 
ATOM      8  C   UNL     1      -3.693  12.584  20.022  0.00  0.00    +0.000 C 
ATOM      9  N   UNL     1      -4.428  12.669  18.948  0.00  0.00    +0.000 NA
ATOM     10  C   UNL     1      -5.711  12.977  19.356  0.00  0.00    +0.000 C 
ATOM     11  O   UNL     1      -6.644  13.220  18.604  0.00  0.00    +0.000 OA
ATOM     12  C   UNL     1      -5.780  12.975  20.895  0.00  0.00    +0.000 C 
ATOM     13  C   UNL     1      -6.444  14.255  21.383  0.00  0.00    +0.000 C 
ATOM     14  C   UNL     1      -6.562  11.735  21.318  0.00  0.00    +0.000 C 
BRANCH   7  16
ATOM     15  C   UNL     1      -3.271  12.266  23.377  0.00  0.00    +0.000 C 
ATOM     16  C   UNL     1      -3.755  13.359  22.430  0.00  0.00    +0.000 C 
ENDBRANCH   7  16
ENDBRANCH   1   8
BRANCH   3  17
ATOM     17  C   UNL     1       0.433  10.051  19.449  0.00  0.00    +0.000 A 
ATOM     18  C   UNL     1       0.931   9.800  18.156  0.00  0.00    +0.000 A 
ATOM     19  C   UNL     1       1.803   8.726  17.922  0.00  0.00    +0.000 A 
ATOM     20  C   UNL     1       2.190   7.903  18.972  0.00  0.00    +0.000 A 
ATOM     21 CL   UNL     1       3.240   6.570  18.685  0.00  0.00    +0.000 Cl
ATOM     22  C   UNL     1       1.690   8.122  20.251  0.00  0.00    +0.000 A 
ATOM     23  C   UNL     1       0.778   9.163  20.484  0.00  0.00    +0.000 A 
ATOM     24 CL   UNL     1      -0.027   9.096  22.015  0.00  0.00    +0.000 Cl
ENDBRANCH   3  17
BRANCH   4  25
ATOM     25  C   UNL     1       1.349  13.102  19.631  0.00  0.00    +0.000 A 
ATOM     26  C   UNL     1       2.130  13.418  20.753  0.00  0.00    +0.000 A 
ATOM     27  C   UNL     1       3.349  14.093  20.601  0.00  0.00    +0.000 A 
ATOM     28  C   UNL     1       3.826  14.391  19.326  0.00  0.00    +0.000 A 
ATOM     29 CL   UNL     1       5.297  15.262  19.139  0.00  0.00    +0.000 Cl
ATOM     30  C   UNL     1       3.106  14.008  18.201  0.00  0.00    +0.000 A 
ATOM     31  C   UNL     1       1.871  13.381  18.356  0.00  0.00    +0.000 A 
ENDBRANCH   4  25
TORSDOF 4
ENDMDL
MODEL 6
REMARK VINA RESULT:      -6.6      2.577      4.264
REMARK  Name = 
REMARK  8 active torsions:
REMARK  status: ('A' for Active; 'I' for Inactive)
REMARK    1  A    between atoms: C_1  and  C_2
REMARK    2  A    between atoms: C_2  and  N_3
REMARK    3  A    between atoms: C_4  and  C_5
REMARK    4  A    between atoms: N_7  and  C_8
REMARK    5  A    between atoms: C_16  and  C_17
REMARK    6  A    between atoms: C_24  and  C_25
REMARK    7  A    between atoms: C_29  and  C_30
REMARK    8  A    between atoms: C_29  and  C_31
REMARK                            x       y       z     vdW  Elec       q    Type
REMARK                         _______ _______ _______ _____ _____    ______ ____
ROOT
ATOM      1  C   UNL     1       1.786  14.081  19.397  0.00  0.00    +0.000 A 
ATOM      2  N   UNL     1       2.234  12.818  19.500  0.00  0.00    +0.000 NA
ATOM      3  N   UNL     1       1.180  12.019  19.139  0.00  0.00    +0.000 N 
ATOM      4  C   UNL     1       0.013  12.763  18.924  0.00  0.00    +0.000 A 
ATOM      5  C   UNL     1       0.394  14.093  19.063  0.00  0.00    +0.000 A 
ATOM      6  C   UNL     1      -0.443  15.324  18.935  0.00  0.00    +0.000 C 
ENDROOT
BRANCH   1   8
ATOM      7  N   UNL     1       2.523  16.018  20.846  0.00  0.00    +0.000 N 
ATOM      8  C   UNL     1       2.595  15.282  19.678  0.00  0.00    +0.000 C 
ATOM      9  N   UNL     1       3.464  15.695  18.796  0.00  0.00    +0.000 NA
ATOM     10  C   UNL     1       4.080  16.812  19.325  0.00  0.00    +0.000 C 
ATOM     11  O   UNL     1       5.014  17.408  18.805  0.00  0.00    +0.000 OA
ATOM     12  C   UNL     1       3.417  17.185  20.664  0.00  0.00    +0.000 C 
ATOM     13  C   UNL     1       4.486  17.386  21.730  0.00  0.00    +0.000 C 
ATOM     14  C   UNL     1       2.600  18.453  20.437  0.00  0.00    +0.000 C 
BRANCH   7  16
ATOM     15  C   UNL     1       0.700  15.855  22.506  0.00  0.00    +0.000 C 
ATOM     16  C   UNL     1       2.146  15.522  22.156  0.00  0.00    +0.000 C 
ENDBRANCH   7  16
ENDBRANCH   1   8
BRANCH   3  17
ATOM     17  C   UNL     1       1.374  10.598  19.097  0.00  0.00    +0.000 A 
ATOM     18  C   UNL     1       1.939  10.044  17.931  0.00  0.00    +0.000 A 
ATOM     19  C   UNL     1       2.224   8.673  17.858  0.00  0.00    +0.000 A 
ATOM     20  C   UNL     1       1.958   7.848  18.943  0.00  0.00    +0.000 A 
ATOM     21 CL   UNL     1       2.283   6.161  18.848  0.00  0.00    +0.000 Cl
ATOM     22  C   UNL     1       1.379   8.373  20.093  0.00  0.00    +0.000 A 
ATOM     23  C   UNL     1       1.044   9.734  20.157  0.00  0.00    +0.000 A 
ATOM     24 CL   UNL     1       0.019  10.170  21.482  0.00  0.00    +0.000 Cl
ENDBRANCH   3  17
BRANCH   4  25
ATOM     25  C   UNL     1      -1.335  12.225  18.654  0.00  0.00    +0.000 A 
ATOM     26  C   UNL     1      -1.676  11.629  17.430  0.00  0.00    +0.000 A 
ATOM     27  C   UNL     1      -3.007  11.290  17.152  0.00  0.00    +0.000 A 
ATOM     28  C   UNL     1      -3.990  11.478  18.122  0.00  0.00    +0.000 A 
ATOM     29 CL   UNL     1      -5.631  11.109  17.766  0.00  0.00    +0.000 Cl
ATOM     30  C   UNL     1      -3.655  11.988  19.371  0.00  0.00    +0.000 A 
ATOM     31  C   UNL     1      -2.339  12.369  19.627  0.00  0.00    +0.000 A 
ENDBRANCH   4  25
TORSDOF 4
ENDMDL
MODEL 7
REMARK VINA RESULT:      -6.3      4.216      7.763
REMARK  Name = 
REMARK  8 active torsions:
REMARK  status: ('A' for Active; 'I' for Inactive)
REMARK    1  A    between atoms: C_1  and  C_2
REMARK    2  A    between atoms: C_2  and  N_3
REMARK    3  A    between atoms: C_4  and  C_5
REMARK    4  A    between atoms: N_7  and  C_8
REMARK    5  A    between atoms: C_16  and  C_17
REMARK    6  A    between atoms: C_24  and  C_25
REMARK    7  A    between atoms: C_29  and  C_30
REMARK    8  A    between atoms: C_29  and  C_31
REMARK                            x       y       z     vdW  Elec       q    Type
REMARK                         _______ _______ _______ _____ _____    ______ ____
ROOT
ATOM      1  C   UNL     1      -2.406  11.931  18.797  0.00  0.00    +0.000 A 
ATOM      2  N   UNL     1      -1.472  12.845  19.110  0.00  0.00    +0.000 NA
ATOM      3  N   UNL     1      -0.275  12.178  19.076  0.00  0.00    +0.000 N 
ATOM      4  C   UNL     1      -0.448  10.805  18.864  0.00  0.00    +0.000 A 
ATOM      5  C   UNL     1      -1.814  10.635  18.658  0.00  0.00    +0.000 A 
ATOM      6  C   UNL     1      -2.568   9.376  18.380  0.00  0.00    +0.000 C 
ENDROOT
BRANCH   1   8
ATOM      7  N   UNL     1      -4.628  12.688  19.738  0.00  0.00    +0.000 N 
ATOM      8  C   UNL     1      -3.851  12.211  18.698  0.00  0.00    +0.000 C 
ATOM      9  N   UNL     1      -4.468  12.029  17.563  0.00  0.00    +0.000 NA
ATOM     10  C   UNL     1      -5.789  12.382  17.756  0.00  0.00    +0.000 C 
ATOM     11  O   UNL     1      -6.639  12.420  16.877  0.00  0.00    +0.000 OA
ATOM     12  C   UNL     1      -6.023  12.724  19.240  0.00  0.00    +0.000 C 
ATOM     13  C   UNL     1      -6.744  14.060  19.354  0.00  0.00    +0.000 C 
ATOM     14  C   UNL     1      -6.837  11.588  19.852  0.00  0.00    +0.000 C 
BRANCH   7  16
ATOM     15  C   UNL     1      -3.956  12.689  22.116  0.00  0.00    +0.000 C 
ATOM     16  C   UNL     1      -4.176  13.507  20.847  0.00  0.00    +0.000 C 
ENDBRANCH   7  16
ENDBRANCH   1   8
BRANCH   3  17
ATOM     17  C   UNL     1       0.932  12.915  19.318  0.00  0.00    +0.000 A 
ATOM     18  C   UNL     1       1.920  12.912  18.313  0.00  0.00    +0.000 A 
ATOM     19  C   UNL     1       3.088  13.674  18.457  0.00  0.00    +0.000 A 
ATOM     20  C   UNL     1       3.278  14.449  19.594  0.00  0.00    +0.000 A 
ATOM     21 CL   UNL     1       4.721  15.366  19.786  0.00  0.00    +0.000 Cl
ATOM     22  C   UNL     1       2.325  14.447  20.607  0.00  0.00    +0.000 A 
ATOM     23  C   UNL     1       1.177  13.649  20.494  0.00  0.00    +0.000 A 
ATOM     24 CL   UNL     1       0.270  13.466  21.957  0.00  0.00    +0.000 Cl
ENDBRANCH   3  17
BRANCH   4  25
ATOM     25  C   UNL     1       0.603   9.770  18.901  0.00  0.00    +0.000 A 
ATOM     26  C   UNL     1       1.298   9.362  17.753  0.00  0.00    +0.000 A 
ATOM     27  C   UNL     1       2.162   8.259  17.801  0.00  0.00    +0.000 A 
ATOM     28  C   UNL     1       2.388   7.604  19.009  0.00  0.00    +0.000 A 
ATOM     29 CL   UNL     1       3.409   6.221  19.060  0.00  0.00    +0.000 Cl
ATOM     30  C   UNL     1       1.774   8.048  20.174  0.00  0.00    +0.000 A 
ATOM     31  C   UNL     1       0.878   9.114  20.114  0.00  0.00    +0.000 A 
ENDBRANCH   4  25
TORSDOF 4
ENDMDL
MODEL 8
REMARK VINA RESULT:      -6.3      4.204      8.189
REMARK  Name = 
REMARK  8 active torsions:
REMARK  status: ('A' for Active; 'I' for Inactive)
REMARK    1  A    between atoms: C_1  and  C_2
REMARK    2  A    between atoms: C_2  and  N_3
REMARK    3  A    between atoms: C_4  and  C_5
REMARK    4  A    between atoms: N_7  and  C_8
REMARK    5  A    between atoms: C_16  and  C_17
REMARK    6  A    between atoms: C_24  and  C_25
REMARK    7  A    between atoms: C_29  and  C_30
REMARK    8  A    between atoms: C_29  and  C_31
REMARK                            x       y       z     vdW  Elec       q    Type
REMARK                         _______ _______ _______ _____ _____    ______ ____
ROOT
ATOM      1  C   UNL     1      -3.391  13.311  20.981  0.00  0.00    +0.000 A 
ATOM      2  N   UNL     1      -2.852  12.126  20.649  0.00  0.00    +0.000 NA
ATOM      3  N   UNL     1      -1.515  12.364  20.464  0.00  0.00    +0.000 N 
ATOM      4  C   UNL     1      -1.211  13.728  20.553  0.00  0.00    +0.000 A 
ATOM      5  C   UNL     1      -2.405  14.347  20.910  0.00  0.00    +0.000 A 
ATOM      6  C   UNL     1      -2.671  15.798  21.149  0.00  0.00    +0.000 C 
ENDROOT
BRANCH   1   8
ATOM      7  N   UNL     1      -5.361  13.468  22.558  0.00  0.00    +0.000 N 
ATOM      8  C   UNL     1      -4.818  13.526  21.288  0.00  0.00    +0.000 C 
ATOM      9  N   UNL     1      -5.649  13.814  20.325  0.00  0.00    +0.000 NA
ATOM     10  C   UNL     1      -6.895  13.975  20.898  0.00  0.00    +0.000 C 
ATOM     11  O   UNL     1      -7.898  14.339  20.299  0.00  0.00    +0.000 OA
ATOM     12  C   UNL     1      -6.824  13.636  22.398  0.00  0.00    +0.000 C 
ATOM     13  C   UNL     1      -7.466  14.752  23.211  0.00  0.00    +0.000 C 
ATOM     14  C   UNL     1      -7.539  12.304  22.604  0.00  0.00    +0.000 C 
BRANCH   7  16
ATOM     15  C   UNL     1      -4.282  12.488  24.554  0.00  0.00    +0.000 C 
ATOM     16  C   UNL     1      -4.675  13.757  23.804  0.00  0.00    +0.000 C 
ENDBRANCH   7  16
ENDBRANCH   1   8
BRANCH   3  17
ATOM     17  C   UNL     1      -0.655  11.259  20.150  0.00  0.00    +0.000 A 
ATOM     18  C   UNL     1      -0.386  10.998  18.792  0.00  0.00    +0.000 A 
ATOM     19  C   UNL     1       0.507   9.981  18.423  0.00  0.00    +0.000 A 
ATOM     20  C   UNL     1       1.143   9.226  19.399  0.00  0.00    +0.000 A 
ATOM     21 CL   UNL     1       2.220   7.960  18.950  0.00  0.00    +0.000 Cl
ATOM     22  C   UNL     1       0.872   9.453  20.745  0.00  0.00    +0.000 A 
ATOM     23  C   UNL     1      -0.057  10.435  21.121  0.00  0.00    +0.000 A 
ATOM     24 CL   UNL     1      -0.558  10.366  22.777  0.00  0.00    +0.000 Cl
ENDBRANCH   3  17
BRANCH   4  25
ATOM     25  C   UNL     1       0.095  14.358  20.279  0.00  0.00    +0.000 A 
ATOM     26  C   UNL     1       0.387  14.984  19.058  0.00  0.00    +0.000 A 
ATOM     27  C   UNL     1       1.691  15.414  18.775  0.00  0.00    +0.000 A 
ATOM     28  C   UNL     1       2.690  15.285  19.736  0.00  0.00    +0.000 A 
ATOM     29 CL   UNL     1       4.300  15.767  19.373  0.00  0.00    +0.000 Cl
ATOM     30  C   UNL     1       2.399  14.746  20.983  0.00  0.00    +0.000 A 
ATOM     31  C   UNL     1       1.113  14.274  21.245  0.00  0.00    +0.000 A 
ENDBRANCH   4  25
TORSDOF 4
ENDMDL
MODEL 9
REMARK VINA RESULT:      -6.2      2.440      4.056
REMARK  Name = 
REMARK  8 active torsions:
REMARK  status: ('A' for Active; 'I' for Inactive)
REMARK    1  A    between atoms: C_1  and  C_2
REMARK    2  A    between atoms: C_2  and  N_3
REMARK    3  A    between atoms: C_4  and  C_5
REMARK    4  A    between atoms: N_7  and  C_8
REMARK    5  A    between atoms: C_16  and  C_17
REMARK    6  A    between atoms: C_24  and  C_25
REMARK    7  A    between atoms: C_29  and  C_30
REMARK    8  A    between atoms: C_29  and  C_31
REMARK                            x       y       z     vdW  Elec       q    Type
REMARK                         _______ _______ _______ _____ _____    ______ ____
ROOT
ATOM      1  C   UNL     1       1.507  13.874  20.521  0.00  0.00    +0.000 A 
ATOM      2  N   UNL     1       1.993  12.628  20.382  0.00  0.00    +0.000 NA
ATOM      3  N   UNL     1       1.010  11.915  19.747  0.00  0.00    +0.000 N 
ATOM      4  C   UNL     1      -0.160  12.667  19.588  0.00  0.00    +0.000 A 
ATOM      5  C   UNL     1       0.154  13.938  20.059  0.00  0.00    +0.000 A 
ATOM      6  C   UNL     1      -0.716  15.151  20.128  0.00  0.00    +0.000 C 
ENDROOT
BRANCH   1   8
ATOM      7  N   UNL     1       2.880  15.996  20.439  0.00  0.00    +0.000 N 
ATOM      8  C   UNL     1       2.238  14.993  21.143  0.00  0.00    +0.000 C 
ATOM      9  N   UNL     1       2.288  15.089  22.444  0.00  0.00    +0.000 NA
ATOM     10  C   UNL     1       3.013  16.226  22.741  0.00  0.00    +0.000 C 
ATOM     11  O   UNL     1       3.183  16.672  23.867  0.00  0.00    +0.000 OA
ATOM     12  C   UNL     1       3.567  16.842  21.442  0.00  0.00    +0.000 C 
ATOM     13  C   UNL     1       3.246  18.330  21.400  0.00  0.00    +0.000 C 
ATOM     14  C   UNL     1       5.071  16.587  21.415  0.00  0.00    +0.000 C 
BRANCH   7  16
ATOM     15  C   UNL     1       3.450  15.936  18.035  0.00  0.00    +0.000 C 
ATOM     16  C   UNL     1       2.527  16.484  19.119  0.00  0.00    +0.000 C 
ENDBRANCH   7  16
ENDBRANCH   1   8
BRANCH   3  17
ATOM     17  C   UNL     1       1.263  10.544  19.407  0.00  0.00    +0.000 A 
ATOM     18  C   UNL     1       1.794  10.268  18.131  0.00  0.00    +0.000 A 
ATOM     19  C   UNL     1       2.134   8.957  17.768  0.00  0.00    +0.000 A 
ATOM     20  C   UNL     1       1.957   7.916  18.670  0.00  0.00    +0.000 A 
ATOM     21 CL   UNL     1       2.350   6.303  18.218  0.00  0.00    +0.000 Cl
ATOM     22  C   UNL     1       1.412   8.166  19.925  0.00  0.00    +0.000 A 
ATOM     23  C   UNL     1       1.023   9.466  20.279  0.00  0.00    +0.000 A 
ATOM     24 CL   UNL     1       0.045   9.571  21.704  0.00  0.00    +0.000 Cl
ENDBRANCH   3  17
BRANCH   4  25
ATOM     25  C   UNL     1      -1.454  12.182  19.069  0.00  0.00    +0.000 A 
ATOM     26  C   UNL     1      -1.599  11.663  17.774  0.00  0.00    +0.000 A 
ATOM     27  C   UNL     1      -2.872  11.376  17.263  0.00  0.00    +0.000 A 
ATOM     28  C   UNL     1      -3.998  11.538  18.067  0.00  0.00    +0.000 A 
ATOM     29 CL   UNL     1      -5.564  11.234  17.426  0.00  0.00    +0.000 Cl
ATOM     30  C   UNL     1      -3.865  11.970  19.381  0.00  0.00    +0.000 A 
ATOM     31  C   UNL     1      -2.603  12.301  19.871  0.00  0.00    +0.000 A 
ENDBRANCH   4  25
TORSDOF 4
ENDMDL
