MODEL 1
REMARK VINA RESULT:      -7.0      0.000      0.000
REMARK  Name = 
REMARK  7 active torsions:
REMARK  status: ('A' for Active; 'I' for Inactive)
REMARK    1  A    between atoms: C_1  and  C_2
REMARK    2  A    between atoms: C_2  and  C_3
REMARK    3  A    between atoms: C_2  and  C_4
REMARK    4  A    between atoms: C_4  and  N_5
REMARK    5  A    between atoms: N_5  and  S_6
REMARK    6  A    between atoms: S_6  and  C_9
REMARK    7  A    between atoms: C_12  and  N_13
REMARK                            x       y       z     vdW  Elec       q    Type
REMARK                         _______ _______ _______ _____ _____    ______ ____
ROOT
ATOM      1  C   UNL     1       1.162   9.511  19.245  0.00  0.00    +0.000 A 
ATOM      2  C   UNL     1       1.483   8.525  20.185  0.00  0.00    +0.000 A 
ATOM      3  C   UNL     1       2.179   7.382  19.776  0.00  0.00    +0.000 A 
ATOM      4  C   UNL     1       2.561   7.239  18.441  0.00  0.00    +0.000 A 
ATOM      5  C   UNL     1       2.195   8.205  17.499  0.00  0.00    +0.000 A 
ATOM      6  C   UNL     1       1.490   9.340  17.895  0.00  0.00    +0.000 A 
ENDROOT
BRANCH   4   7
ATOM      7  N   UNL     1       3.306   6.113  17.982  0.00  0.00    +0.000 N 
ATOM      8  C   UNL     1       4.745   6.284  17.701  0.00  0.00    +0.000 C 
ATOM      9  C   UNL     1       5.109   5.376  16.526  0.00  0.00    +0.000 C 
ATOM     10  C   UNL     1       4.855   3.894  16.824  0.00  0.00    +0.000 C 
ATOM     11  C   UNL     1       3.408   3.600  17.208  0.00  0.00    +0.000 C 
ATOM     12  S   UNL     1       2.874   4.587  18.595  0.00  0.00    +0.000 S 
ATOM     13  O   UNL     1       3.721   4.293  19.730  0.00  0.00    +0.000 OA
ATOM     14  O   UNL     1       1.432   4.489  18.679  0.00  0.00    +0.000 OA
ENDBRANCH   4   7
BRANCH   1  15
ATOM     15  S   UNL     1       0.252  10.966  19.725  0.00  0.00    +0.000 S 
ATOM     16  O   UNL     1       1.179  11.909  20.309  0.00  0.00    +0.000 OA
ATOM     17  O   UNL     1      -0.925  10.498  20.426  0.00  0.00    +0.000 OA
BRANCH  15  18
ATOM     18  N   UNL     1      -0.271  11.580  18.228  0.00  0.00    +0.000 NA
ATOM     19  H   UNL     1       0.179  12.472  18.035  0.00  0.00    +0.000 HD
BRANCH  18  20
ATOM     20  C   UNL     1      -1.728  11.571  17.993  0.00  0.00    +0.000 C 
BRANCH  20  22
ATOM     21  C   UNL     1      -3.187   9.552  17.768  0.00  0.00    +0.000 C 
ATOM     22  C   UNL     1      -2.135  10.414  17.063  0.00  0.00    +0.000 C 
ATOM     23  C   UNL     1      -2.689  10.898  15.720  0.00  0.00    +0.000 C 
ENDBRANCH  20  22
ENDBRANCH  18  20
ENDBRANCH  15  18
ENDBRANCH   1  15
TORSDOF 5
ENDMDL
MODEL 2
REMARK VINA RESULT:      -6.9      1.832      2.360
REMARK  Name = 
REMARK  7 active torsions:
REMARK  status: ('A' for Active; 'I' for Inactive)
REMARK    1  A    between atoms: C_1  and  C_2
REMARK    2  A    between atoms: C_2  and  C_3
REMARK    3  A    between atoms: C_2  and  C_4
REMARK    4  A    between atoms: C_4  and  N_5
REMARK    5  A    between atoms: N_5  and  S_6
REMARK    6  A    between atoms: S_6  and  C_9
REMARK    7  A    between atoms: C_12  and  N_13
REMARK                            x       y       z     vdW  Elec       q    Type
REMARK                         _______ _______ _______ _____ _____    ______ ____
ROOT
ATOM      1  C   UNL     1       1.453   8.907  19.690  0.00  0.00    +0.000 A 
ATOM      2  C   UNL     1       1.971   8.664  18.413  0.00  0.00    +0.000 A 
ATOM      3  C   UNL     1       2.426   7.382  18.085  0.00  0.00    +0.000 A 
ATOM      4  C   UNL     1       2.347   6.353  19.026  0.00  0.00    +0.000 A 
ATOM      5  C   UNL     1       1.873   6.615  20.314  0.00  0.00    +0.000 A 
ATOM      6  C   UNL     1       1.429   7.892  20.653  0.00  0.00    +0.000 A 
ENDROOT
BRANCH   4   7
ATOM      7  N   UNL     1       2.759   5.021  18.728  0.00  0.00    +0.000 N 
ATOM      8  C   UNL     1       1.929   4.210  17.815  0.00  0.00    +0.000 C 
ATOM      9  C   UNL     1       2.002   2.755  18.276  0.00  0.00    +0.000 C 
ATOM     10  C   UNL     1       3.428   2.195  18.245  0.00  0.00    +0.000 C 
ATOM     11  C   UNL     1       4.406   3.001  19.096  0.00  0.00    +0.000 C 
ATOM     12  S   UNL     1       4.430   4.723  18.630  0.00  0.00    +0.000 S 
ATOM     13  O   UNL     1       4.833   4.825  17.244  0.00  0.00    +0.000 OA
ATOM     14  O   UNL     1       5.115   5.454  19.675  0.00  0.00    +0.000 OA
ENDBRANCH   4   7
BRANCH   1  15
ATOM     15  S   UNL     1       0.890  10.534  20.149  0.00  0.00    +0.000 S 
ATOM     16  O   UNL     1       1.348  11.474  19.151  0.00  0.00    +0.000 OA
ATOM     17  O   UNL     1       1.192  10.687  21.557  0.00  0.00    +0.000 OA
BRANCH  15  18
ATOM     18  N   UNL     1      -0.800  10.387  20.017  0.00  0.00    +0.000 NA
ATOM     19  H   UNL     1      -1.064   9.408  19.938  0.00  0.00    +0.000 HD
BRANCH  18  20
ATOM     20  C   UNL     1      -1.456  11.274  19.037  0.00  0.00    +0.000 C 
BRANCH  20  22
ATOM     21  C   UNL     1      -3.589  11.459  17.742  0.00  0.00    +0.000 C 
ATOM     22  C   UNL     1      -2.477  10.501  18.182  0.00  0.00    +0.000 C 
ATOM     23  C   UNL     1      -1.847   9.850  16.948  0.00  0.00    +0.000 C 
ENDBRANCH  20  22
ENDBRANCH  18  20
ENDBRANCH  15  18
ENDBRANCH   1  15
TORSDOF 5
ENDMDL
MODEL 3
REMARK VINA RESULT:      -6.9      5.825      8.046
REMARK  Name = 
REMARK  7 active torsions:
REMARK  status: ('A' for Active; 'I' for Inactive)
REMARK    1  A    between atoms: C_1  and  C_2
REMARK    2  A    between atoms: C_2  and  C_3
REMARK    3  A    between atoms: C_2  and  C_4
REMARK    4  A    between atoms: C_4  and  N_5
REMARK    5  A    between atoms: N_5  and  S_6
REMARK    6  A    between atoms: S_6  and  C_9
REMARK    7  A    between atoms: C_12  and  N_13
REMARK                            x       y       z     vdW  Elec       q    Type
REMARK                         _______ _______ _______ _____ _____    ______ ____
ROOT
ATOM      1  C   UNL     1       5.672   4.714  16.044  0.00  0.00    +0.000 A 
ATOM      2  C   UNL     1       6.021   5.158  17.324  0.00  0.00    +0.000 A 
ATOM      3  C   UNL     1       5.176   4.885  18.405  0.00  0.00    +0.000 A 
ATOM      4  C   UNL     1       4.000   4.159  18.204  0.00  0.00    +0.000 A 
ATOM      5  C   UNL     1       3.635   3.759  16.915  0.00  0.00    +0.000 A 
ATOM      6  C   UNL     1       4.465   4.039  15.831  0.00  0.00    +0.000 A 
ENDROOT
BRANCH   4   7
ATOM      7  N   UNL     1       3.126   3.819  19.277  0.00  0.00    +0.000 N 
ATOM      8  C   UNL     1       1.743   4.331  19.254  0.00  0.00    +0.000 C 
ATOM      9  C   UNL     1       1.314   4.601  20.697  0.00  0.00    +0.000 C 
ATOM     10  C   UNL     1       1.339   3.340  21.567  0.00  0.00    +0.000 C 
ATOM     11  C   UNL     1       2.709   2.669  21.608  0.00  0.00    +0.000 C 
ATOM     12  S   UNL     1       3.307   2.277  19.973  0.00  0.00    +0.000 S 
ATOM     13  O   UNL     1       2.371   1.376  19.338  0.00  0.00    +0.000 OA
ATOM     14  O   UNL     1       4.715   1.957  20.082  0.00  0.00    +0.000 OA
ENDBRANCH   4   7
BRANCH   1  15
ATOM     15  S   UNL     1       6.712   5.068  14.641  0.00  0.00    +0.000 S 
ATOM     16  O   UNL     1       8.058   5.295  15.117  0.00  0.00    +0.000 OA
ATOM     17  O   UNL     1       5.997   6.039  13.840  0.00  0.00    +0.000 OA
BRANCH  15  18
ATOM     18  N   UNL     1       6.683   3.599  13.785  0.00  0.00    +0.000 NA
ATOM     19  H   UNL     1       7.529   3.065  13.969  0.00  0.00    +0.000 HD
BRANCH  18  20
ATOM     20  C   UNL     1       6.316   3.683  12.358  0.00  0.00    +0.000 C 
BRANCH  20  22
ATOM     21  C   UNL     1       4.179   3.148  11.174  0.00  0.00    +0.000 C 
ATOM     22  C   UNL     1       5.349   2.552  11.964  0.00  0.00    +0.000 C 
ATOM     23  C   UNL     1       6.021   1.458  11.131  0.00  0.00    +0.000 C 
ENDBRANCH  20  22
ENDBRANCH  18  20
ENDBRANCH  15  18
ENDBRANCH   1  15
TORSDOF 5
ENDMDL
MODEL 4
REMARK VINA RESULT:      -6.9      1.150      1.622
REMARK  Name = 
REMARK  7 active torsions:
REMARK  status: ('A' for Active; 'I' for Inactive)
REMARK    1  A    between atoms: C_1  and  C_2
REMARK    2  A    between atoms: C_2  and  C_3
REMARK    3  A    between atoms: C_2  and  C_4
REMARK    4  A    between atoms: C_4  and  N_5
REMARK    5  A    between atoms: N_5  and  S_6
REMARK    6  A    between atoms: S_6  and  C_9
REMARK    7  A    between atoms: C_12  and  N_13
REMARK                            x       y       z     vdW  Elec       q    Type
REMARK                         _______ _______ _______ _____ _____    ______ ____
ROOT
ATOM      1  C   UNL     1       1.245   9.353  19.116  0.00  0.00    +0.000 A 
ATOM      2  C   UNL     1       1.832   9.029  17.887  0.00  0.00    +0.000 A 
ATOM      3  C   UNL     1       2.486   7.802  17.736  0.00  0.00    +0.000 A 
ATOM      4  C   UNL     1       2.536   6.903  18.804  0.00  0.00    +0.000 A 
ATOM      5  C   UNL     1       1.989   7.253  20.041  0.00  0.00    +0.000 A 
ATOM      6  C   UNL     1       1.347   8.479  20.204  0.00  0.00    +0.000 A 
ENDROOT
BRANCH   4   7
ATOM      7  N   UNL     1       3.154   5.623  18.688  0.00  0.00    +0.000 N 
ATOM      8  C   UNL     1       4.328   5.325  19.532  0.00  0.00    +0.000 C 
ATOM      9  C   UNL     1       5.265   4.417  18.734  0.00  0.00    +0.000 C 
ATOM     10  C   UNL     1       4.610   3.088  18.343  0.00  0.00    +0.000 C 
ATOM     11  C   UNL     1       3.332   3.267  17.528  0.00  0.00    +0.000 C 
ATOM     12  S   UNL     1       2.142   4.292  18.374  0.00  0.00    +0.000 S 
ATOM     13  O   UNL     1       1.801   3.669  19.633  0.00  0.00    +0.000 OA
ATOM     14  O   UNL     1       1.126   4.673  17.415  0.00  0.00    +0.000 OA
ENDBRANCH   4   7
BRANCH   1  15
ATOM     15  S   UNL     1       0.428  10.919  19.351  0.00  0.00    +0.000 S 
ATOM     16  O   UNL     1       1.437  11.952  19.424  0.00  0.00    +0.000 OA
ATOM     17  O   UNL     1      -0.551  10.714  20.397  0.00  0.00    +0.000 OA
BRANCH  15  18
ATOM     18  N   UNL     1      -0.431  11.105  17.895  0.00  0.00    +0.000 NA
ATOM     19  H   UNL     1      -0.484  12.088  17.639  0.00  0.00    +0.000 HD
BRANCH  18  20
ATOM     20  C   UNL     1      -1.713  10.382  17.797  0.00  0.00    +0.000 C 
BRANCH  20  22
ATOM     21  C   UNL     1      -2.777   9.996  15.566  0.00  0.00    +0.000 C 
ATOM     22  C   UNL     1      -2.619  10.998  16.715  0.00  0.00    +0.000 C 
ATOM     23  C   UNL     1      -4.001  11.385  17.247  0.00  0.00    +0.000 C 
ENDBRANCH  20  22
ENDBRANCH  18  20
ENDBRANCH  15  18
ENDBRANCH   1  15
TORSDOF 5
ENDMDL
MODEL 5
REMARK VINA RESULT:      -6.9      1.967      7.187
REMARK  Name = 
REMARK  7 active torsions:
REMARK  status: ('A' for Active; 'I' for Inactive)
REMARK    1  A    between atoms: C_1  and  C_2
REMARK    2  A    between atoms: C_2  and  C_3
REMARK    3  A    between atoms: C_2  and  C_4
REMARK    4  A    between atoms: C_4  and  N_5
REMARK    5  A    between atoms: N_5  and  S_6
REMARK    6  A    between atoms: S_6  and  C_9
REMARK    7  A    between atoms: C_12  and  N_13
REMARK                            x       y       z     vdW  Elec       q    Type
REMARK                         _______ _______ _______ _____ _____    ______ ____
ROOT
ATOM      1  C   UNL     1       2.728   7.423  18.630  0.00  0.00    +0.000 A 
ATOM      2  C   UNL     1       2.132   7.460  19.895  0.00  0.00    +0.000 A 
ATOM      3  C   UNL     1       1.242   8.492  20.210  0.00  0.00    +0.000 A 
ATOM      4  C   UNL     1       0.942   9.468  19.257  0.00  0.00    +0.000 A 
ATOM      5  C   UNL     1       1.577   9.450  18.012  0.00  0.00    +0.000 A 
ATOM      6  C   UNL     1       2.475   8.433  17.695  0.00  0.00    +0.000 A 
ENDROOT
BRANCH   4   7
ATOM      7  N   UNL     1       0.010  10.516  19.513  0.00  0.00    +0.000 N 
ATOM      8  C   UNL     1      -1.363  10.387  18.989  0.00  0.00    +0.000 C 
ATOM      9  C   UNL     1      -1.861  11.783  18.616  0.00  0.00    +0.000 C 
ATOM     10  C   UNL     1      -1.897  12.738  19.814  0.00  0.00    +0.000 C 
ATOM     11  C   UNL     1      -0.541  12.895  20.495  0.00  0.00    +0.000 C 
ATOM     12  S   UNL     1       0.133  11.324  21.004  0.00  0.00    +0.000 S 
ATOM     13  O   UNL     1      -0.781  10.705  21.938  0.00  0.00    +0.000 OA
ATOM     14  O   UNL     1       1.529  11.527  21.332  0.00  0.00    +0.000 OA
ENDBRANCH   4   7
BRANCH   1  15
ATOM     15  S   UNL     1       3.887   6.138  18.206  0.00  0.00    +0.000 S 
ATOM     16  O   UNL     1       4.571   5.726  19.411  0.00  0.00    +0.000 OA
ATOM     17  O   UNL     1       4.595   6.599  17.030  0.00  0.00    +0.000 OA
BRANCH  15  18
ATOM     18  N   UNL     1       2.865   4.873  17.706  0.00  0.00    +0.000 NA
ATOM     19  H   UNL     1       1.984   5.247  17.361  0.00  0.00    +0.000 HD
BRANCH  18  20
ATOM     20  C   UNL     1       2.719   3.743  18.644  0.00  0.00    +0.000 C 
BRANCH  20  22
ATOM     21  C   UNL     1       0.604   2.426  18.856  0.00  0.00    +0.000 C 
ATOM     22  C   UNL     1       1.314   3.718  19.272  0.00  0.00    +0.000 C 
ATOM     23  C   UNL     1       1.344   3.814  20.799  0.00  0.00    +0.000 C 
ENDBRANCH  20  22
ENDBRANCH  18  20
ENDBRANCH  15  18
ENDBRANCH   1  15
TORSDOF 5
ENDMDL
MODEL 6
REMARK VINA RESULT:      -6.8      1.563      1.968
REMARK  Name = 
REMARK  7 active torsions:
REMARK  status: ('A' for Active; 'I' for Inactive)
REMARK    1  A    between atoms: C_1  and  C_2
REMARK    2  A    between atoms: C_2  and  C_3
REMARK    3  A    between atoms: C_2  and  C_4
REMARK    4  A    between atoms: C_4  and  N_5
REMARK    5  A    between atoms: N_5  and  S_6
REMARK    6  A    between atoms: S_6  and  C_9
REMARK    7  A    between atoms: C_12  and  N_13
REMARK                            x       y       z     vdW  Elec       q    Type
REMARK                         _______ _______ _______ _____ _____    ______ ____
ROOT
ATOM      1  C   UNL     1       1.434   9.052  19.088  0.00  0.00    +0.000 A 
ATOM      2  C   UNL     1       1.988   8.421  17.969  0.00  0.00    +0.000 A 
ATOM      3  C   UNL     1       2.527   7.136  18.097  0.00  0.00    +0.000 A 
ATOM      4  C   UNL     1       2.496   6.487  19.333  0.00  0.00    +0.000 A 
ATOM      5  C   UNL     1       1.984   7.143  20.457  0.00  0.00    +0.000 A 
ATOM      6  C   UNL     1       1.457   8.427  20.341  0.00  0.00    +0.000 A 
ENDROOT
BRANCH   4   7
ATOM      7  N   UNL     1       2.994   5.162  19.507  0.00  0.00    +0.000 N 
ATOM      8  C   UNL     1       4.451   4.965  19.639  0.00  0.00    +0.000 C 
ATOM      9  C   UNL     1       4.809   3.631  18.984  0.00  0.00    +0.000 C 
ATOM     10  C   UNL     1       4.106   2.440  19.645  0.00  0.00    +0.000 C 
ATOM     11  C   UNL     1       2.585   2.566  19.641  0.00  0.00    +0.000 C 
ATOM     12  S   UNL     1       2.042   4.081  20.409  0.00  0.00    +0.000 S 
ATOM     13  O   UNL     1       2.502   4.100  21.780  0.00  0.00    +0.000 OA
ATOM     14  O   UNL     1       0.645   4.270  20.075  0.00  0.00    +0.000 OA
ENDBRANCH   4   7
BRANCH   1  15
ATOM     15  S   UNL     1       0.764  10.699  18.967  0.00  0.00    +0.000 S 
ATOM     16  O   UNL     1       1.822  11.591  18.549  0.00  0.00    +0.000 OA
ATOM     17  O   UNL     1      -0.004  10.915  20.175  0.00  0.00    +0.000 OA
BRANCH  15  18
ATOM     18  N   UNL     1      -0.350  10.546  17.690  0.00  0.00    +0.000 NA
ATOM     19  H   UNL     1       0.039  10.934  16.834  0.00  0.00    +0.000 HD
BRANCH  18  20
ATOM     20  C   UNL     1      -1.733  10.973  17.977  0.00  0.00    +0.000 C 
BRANCH  20  22
ATOM     21  C   UNL     1      -4.154  10.386  17.752  0.00  0.00    +0.000 C 
ATOM     22  C   UNL     1      -2.751  10.125  17.194  0.00  0.00    +0.000 C 
ATOM     23  C   UNL     1      -2.737  10.417  15.692  0.00  0.00    +0.000 C 
ENDBRANCH  20  22
ENDBRANCH  18  20
ENDBRANCH  15  18
ENDBRANCH   1  15
TORSDOF 5
ENDMDL
MODEL 7
REMARK VINA RESULT:      -6.8      1.821      2.099
REMARK  Name = 
REMARK  7 active torsions:
REMARK  status: ('A' for Active; 'I' for Inactive)
REMARK    1  A    between atoms: C_1  and  C_2
REMARK    2  A    between atoms: C_2  and  C_3
REMARK    3  A    between atoms: C_2  and  C_4
REMARK    4  A    between atoms: C_4  and  N_5
REMARK    5  A    between atoms: N_5  and  S_6
REMARK    6  A    between atoms: S_6  and  C_9
REMARK    7  A    between atoms: C_12  and  N_13
REMARK                            x       y       z     vdW  Elec       q    Type
REMARK                         _______ _______ _______ _____ _____    ______ ____
ROOT
ATOM      1  C   UNL     1       1.452   8.961  19.705  0.00  0.00    +0.000 A 
ATOM      2  C   UNL     1       1.421   7.963  20.685  0.00  0.00    +0.000 A 
ATOM      3  C   UNL     1       1.836   6.666  20.363  0.00  0.00    +0.000 A 
ATOM      4  C   UNL     1       2.291   6.379  19.074  0.00  0.00    +0.000 A 
ATOM      5  C   UNL     1       2.274   7.371  18.088  0.00  0.00    +0.000 A 
ATOM      6  C   UNL     1       1.851   8.662  18.397  0.00  0.00    +0.000 A 
ENDROOT
BRANCH   4   7
ATOM      7  N   UNL     1       2.762   5.085  18.707  0.00  0.00    +0.000 N 
ATOM      8  C   UNL     1       1.971   4.288  17.749  0.00  0.00    +0.000 C 
ATOM      9  C   UNL     1       2.110   2.815  18.132  0.00  0.00    +0.000 C 
ATOM     10  C   UNL     1       3.559   2.322  18.076  0.00  0.00    +0.000 C 
ATOM     11  C   UNL     1       4.499   3.125  18.972  0.00  0.00    +0.000 C 
ATOM     12  S   UNL     1       4.446   4.868  18.598  0.00  0.00    +0.000 S 
ATOM     13  O   UNL     1       4.844   5.063  17.222  0.00  0.00    +0.000 OA
ATOM     14  O   UNL     1       5.096   5.574  19.683  0.00  0.00    +0.000 OA
ENDBRANCH   4   7
BRANCH   1  15
ATOM     15  S   UNL     1       0.906  10.617  20.073  0.00  0.00    +0.000 S 
ATOM     16  O   UNL     1       1.467  11.511  19.086  0.00  0.00    +0.000 OA
ATOM     17  O   UNL     1       1.106  10.805  21.495  0.00  0.00    +0.000 OA
BRANCH  15  18
ATOM     18  N   UNL     1      -0.772  10.513  19.816  0.00  0.00    +0.000 NA
ATOM     19  H   UNL     1      -1.005   9.642  19.346  0.00  0.00    +0.000 HD
BRANCH  18  20
ATOM     20  C   UNL     1      -1.418  11.707  19.237  0.00  0.00    +0.000 C 
BRANCH  20  22
ATOM     21  C   UNL     1      -1.591   9.993  17.423  0.00  0.00    +0.000 C 
ATOM     22  C   UNL     1      -2.022  11.398  17.855  0.00  0.00    +0.000 C 
ATOM     23  C   UNL     1      -3.550  11.490  17.841  0.00  0.00    +0.000 C 
ENDBRANCH  20  22
ENDBRANCH  18  20
ENDBRANCH  15  18
ENDBRANCH   1  15
TORSDOF 5
ENDMDL
MODEL 8
REMARK VINA RESULT:      -6.8      2.743      3.557
REMARK  Name = 
REMARK  7 active torsions:
REMARK  status: ('A' for Active; 'I' for Inactive)
REMARK    1  A    between atoms: C_1  and  C_2
REMARK    2  A    between atoms: C_2  and  C_3
REMARK    3  A    between atoms: C_2  and  C_4
REMARK    4  A    between atoms: C_4  and  N_5
REMARK    5  A    between atoms: N_5  and  S_6
REMARK    6  A    between atoms: S_6  and  C_9
REMARK    7  A    between atoms: C_12  and  N_13
REMARK                            x       y       z     vdW  Elec       q    Type
REMARK                         _______ _______ _______ _____ _____    ______ ____
ROOT
ATOM      1  C   UNL     1       1.513   8.981  19.211  0.00  0.00    +0.000 A 
ATOM      2  C   UNL     1       2.041   8.523  18.000  0.00  0.00    +0.000 A 
ATOM      3  C   UNL     1       2.485   7.200  17.896  0.00  0.00    +0.000 A 
ATOM      4  C   UNL     1       2.385   6.343  18.994  0.00  0.00    +0.000 A 
ATOM      5  C   UNL     1       1.900   6.822  20.215  0.00  0.00    +0.000 A 
ATOM      6  C   UNL     1       1.468   8.142  20.330  0.00  0.00    +0.000 A 
ENDROOT
BRANCH   4   7
ATOM      7  N   UNL     1       2.784   4.976  18.927  0.00  0.00    +0.000 N 
ATOM      8  C   UNL     1       1.907   4.016  18.230  0.00  0.00    +0.000 C 
ATOM      9  C   UNL     1       2.012   2.671  18.950  0.00  0.00    +0.000 C 
ATOM     10  C   UNL     1       3.436   2.106  18.944  0.00  0.00    +0.000 C 
ATOM     11  C   UNL     1       4.458   3.050  19.572  0.00  0.00    +0.000 C 
ATOM     12  S   UNL     1       4.449   4.654  18.792  0.00  0.00    +0.000 S 
ATOM     13  O   UNL     1       4.771   4.493  17.391  0.00  0.00    +0.000 OA
ATOM     14  O   UNL     1       5.189   5.563  19.642  0.00  0.00    +0.000 OA
ENDBRANCH   4   7
BRANCH   1  15
ATOM     15  S   UNL     1       0.964  10.667  19.387  0.00  0.00    +0.000 S 
ATOM     16  O   UNL     1      -0.437  10.729  19.034  0.00  0.00    +0.000 OA
ATOM     17  O   UNL     1       1.964  11.491  18.741  0.00  0.00    +0.000 OA
BRANCH  15  18
ATOM     18  N   UNL     1       1.111  10.927  21.061  0.00  0.00    +0.000 NA
ATOM     19  H   UNL     1       1.297  10.049  21.540  0.00  0.00    +0.000 HD
BRANCH  18  20
ATOM     20  C   UNL     1       0.058  11.749  21.688  0.00  0.00    +0.000 C 
BRANCH  20  22
ATOM     21  C   UNL     1      -0.323   9.810  23.221  0.00  0.00    +0.000 C 
ATOM     22  C   UNL     1      -1.014  10.868  22.355  0.00  0.00    +0.000 C 
ATOM     23  C   UNL     1      -1.992  11.672  23.215  0.00  0.00    +0.000 C 
ENDBRANCH  20  22
ENDBRANCH  18  20
ENDBRANCH  15  18
ENDBRANCH   1  15
TORSDOF 5
ENDMDL
MODEL 9
REMARK VINA RESULT:      -6.7      1.605      2.172
REMARK  Name = 
REMARK  7 active torsions:
REMARK  status: ('A' for Active; 'I' for Inactive)
REMARK    1  A    between atoms: C_1  and  C_2
REMARK    2  A    between atoms: C_2  and  C_3
REMARK    3  A    between atoms: C_2  and  C_4
REMARK    4  A    between atoms: C_4  and  N_5
REMARK    5  A    between atoms: N_5  and  S_6
REMARK    6  A    between atoms: S_6  and  C_9
REMARK    7  A    between atoms: C_12  and  N_13
REMARK                            x       y       z     vdW  Elec       q    Type
REMARK                         _______ _______ _______ _____ _____    ______ ____
ROOT
ATOM      1  C   UNL     1       1.523   8.876  19.270  0.00  0.00    +0.000 A 
ATOM      2  C   UNL     1       2.113   8.438  18.080  0.00  0.00    +0.000 A 
ATOM      3  C   UNL     1       2.555   7.114  17.974  0.00  0.00    +0.000 A 
ATOM      4  C   UNL     1       2.390   6.237  19.048  0.00  0.00    +0.000 A 
ATOM      5  C   UNL     1       1.843   6.695  20.250  0.00  0.00    +0.000 A 
ATOM      6  C   UNL     1       1.413   8.015  20.368  0.00  0.00    +0.000 A 
ENDROOT
BRANCH   4   7
ATOM      7  N   UNL     1       2.785   4.869  18.976  0.00  0.00    +0.000 N 
ATOM      8  C   UNL     1       3.683   4.335  20.019  0.00  0.00    +0.000 C 
ATOM      9  C   UNL     1       4.595   3.293  19.370  0.00  0.00    +0.000 C 
ATOM     10  C   UNL     1       3.816   2.119  18.768  0.00  0.00    +0.000 C 
ATOM     11  C   UNL     1       2.791   2.554  17.723  0.00  0.00    +0.000 C 
ATOM     12  S   UNL     1       1.647   3.757  18.376  0.00  0.00    +0.000 S 
ATOM     13  O   UNL     1       0.943   3.172  19.496  0.00  0.00    +0.000 OA
ATOM     14  O   UNL     1       0.938   4.345  17.258  0.00  0.00    +0.000 OA
ENDBRANCH   4   7
BRANCH   1  15
ATOM     15  S   UNL     1       0.974  10.562  19.449  0.00  0.00    +0.000 S 
ATOM     16  O   UNL     1       1.626  11.362  18.436  0.00  0.00    +0.000 OA
ATOM     17  O   UNL     1       1.063  10.871  20.860  0.00  0.00    +0.000 OA
BRANCH  15  18
ATOM     18  N   UNL     1      -0.679  10.450  19.066  0.00  0.00    +0.000 NA
ATOM     19  H   UNL     1      -1.164   9.883  19.757  0.00  0.00    +0.000 HD
BRANCH  18  20
ATOM     20  C   UNL     1      -1.004  10.112  17.667  0.00  0.00    +0.000 C 
BRANCH  20  22
ATOM     21  C   UNL     1      -2.577  10.637  15.795  0.00  0.00    +0.000 C 
ATOM     22  C   UNL     1      -2.447  10.515  17.316  0.00  0.00    +0.000 C 
ATOM     23  C   UNL     1      -3.486   9.520  17.839  0.00  0.00    +0.000 C 
ENDBRANCH  20  22
ENDBRANCH  18  20
ENDBRANCH  15  18
ENDBRANCH   1  15
TORSDOF 5
ENDMDL
