MODEL 1
REMARK VINA RESULT:      -7.3      0.000      0.000
REMARK  Name = 
REMARK  6 active torsions:
REMARK  status: ('A' for Active; 'I' for Inactive)
REMARK    1  A    between atoms: C_1  and  C_2
REMARK    2  A    between atoms: C_2  and  C_3
REMARK    3  A    between atoms: C_3  and  C_4
REMARK    4  A    between atoms: C_3  and  N_5
REMARK    5  A    between atoms: N_8  and  C_9
REMARK    6  A    between atoms: C_14  and  C_15
REMARK                            x       y       z     vdW  Elec       q    Type
REMARK                         _______ _______ _______ _____ _____    ______ ____
ROOT
ATOM      1  N   UNL     1       6.425   4.257  17.818  0.00  0.00    +0.000 N 
ATOM      2  C   UNL     1       5.356   4.398  18.675  0.00  0.00    +0.000 C 
ATOM      3  O   UNL     1       5.214   5.370  19.412  0.00  0.00    +0.000 OA
ATOM      4  N   UNL     1       4.538   3.287  18.637  0.00  0.00    +0.000 N 
ATOM      5  H   UNL     1       6.214   3.790  16.947  0.00  0.00    +0.000 HD
ATOM      6  H   UNL     1       5.052   2.435  18.469  0.00  0.00    +0.000 HD
ENDROOT
BRANCH   4   7
ATOM      7  C   UNL     1       3.380   3.191  19.439  0.00  0.00    +0.000 A 
ATOM      8  C   UNL     1       3.473   2.674  20.738  0.00  0.00    +0.000 A 
ATOM      9  C   UNL     1       2.345   2.588  21.552  0.00  0.00    +0.000 A 
ATOM     10  C   UNL     1       1.112   3.014  21.071  0.00  0.00    +0.000 A 
ATOM     11  C   UNL     1       1.008   3.529  19.778  0.00  0.00    +0.000 A 
ATOM     12  C   UNL     1       2.136   3.621  18.945  0.00  0.00    +0.000 A 
ATOM     13  C   UNL     1       1.960   4.114  17.536  0.00  0.00    +0.000 C 
ENDBRANCH   4   7
BRANCH   1  14
ATOM     14  C   UNL     1       7.498   5.243  17.816  0.00  0.00    +0.000 C 
ATOM     15  C   UNL     1       7.925   5.601  19.242  0.00  0.00    +0.000 C 
BRANCH  14  17
ATOM     16  C   UNL     1       7.699   7.777  17.622  0.00  0.00    +0.000 C 
ATOM     17  C   UNL     1       7.083   6.508  17.048  0.00  0.00    +0.000 C 
ENDBRANCH  14  17
ENDBRANCH   1  14
TORSDOF 3
ENDMDL
MODEL 2
REMARK VINA RESULT:      -7.0      4.202      5.727
REMARK  Name = 
REMARK  6 active torsions:
REMARK  status: ('A' for Active; 'I' for Inactive)
REMARK    1  A    between atoms: C_1  and  C_2
REMARK    2  A    between atoms: C_2  and  C_3
REMARK    3  A    between atoms: C_3  and  C_4
REMARK    4  A    between atoms: C_3  and  N_5
REMARK    5  A    between atoms: N_8  and  C_9
REMARK    6  A    between atoms: C_14  and  C_15
REMARK                            x       y       z     vdW  Elec       q    Type
REMARK                         _______ _______ _______ _____ _____    ______ ____
ROOT
ATOM      1  N   UNL     1       6.016   3.014  13.573  0.00  0.00    +0.000 N 
ATOM      2  C   UNL     1       6.082   3.960  14.573  0.00  0.00    +0.000 C 
ATOM      3  O   UNL     1       6.079   5.167  14.351  0.00  0.00    +0.000 OA
ATOM      4  N   UNL     1       6.223   3.365  15.810  0.00  0.00    +0.000 N 
ATOM      5  H   UNL     1       5.506   2.174  13.813  0.00  0.00    +0.000 HD
ATOM      6  H   UNL     1       6.757   2.510  15.769  0.00  0.00    +0.000 HD
ENDROOT
BRANCH   4   7
ATOM      7  C   UNL     1       6.324   4.131  16.993  0.00  0.00    +0.000 A 
ATOM      8  C   UNL     1       7.573   4.610  17.407  0.00  0.00    +0.000 A 
ATOM      9  C   UNL     1       7.692   5.381  18.562  0.00  0.00    +0.000 A 
ATOM     10  C   UNL     1       6.560   5.678  19.314  0.00  0.00    +0.000 A 
ATOM     11  C   UNL     1       5.311   5.203  18.910  0.00  0.00    +0.000 A 
ATOM     12  C   UNL     1       5.176   4.423  17.750  0.00  0.00    +0.000 A 
ATOM     13  C   UNL     1       3.821   3.875  17.397  0.00  0.00    +0.000 C 
ENDBRANCH   4   7
BRANCH   1  14
ATOM     14  C   UNL     1       6.026   3.424  12.174  0.00  0.00    +0.000 C 
ATOM     15  C   UNL     1       4.626   3.340  11.562  0.00  0.00    +0.000 C 
BRANCH  14  17
ATOM     16  C   UNL     1       6.495   1.182  11.055  0.00  0.00    +0.000 C 
ATOM     17  C   UNL     1       7.018   2.579  11.359  0.00  0.00    +0.000 C 
ENDBRANCH  14  17
ENDBRANCH   1  14
TORSDOF 3
ENDMDL
MODEL 3
REMARK VINA RESULT:      -6.9      1.316      1.686
REMARK  Name = 
REMARK  6 active torsions:
REMARK  status: ('A' for Active; 'I' for Inactive)
REMARK    1  A    between atoms: C_1  and  C_2
REMARK    2  A    between atoms: C_2  and  C_3
REMARK    3  A    between atoms: C_3  and  C_4
REMARK    4  A    between atoms: C_3  and  N_5
REMARK    5  A    between atoms: N_8  and  C_9
REMARK    6  A    between atoms: C_14  and  C_15
REMARK                            x       y       z     vdW  Elec       q    Type
REMARK                         _______ _______ _______ _____ _____    ______ ____
ROOT
ATOM      1  N   UNL     1       5.728   6.079  18.245  0.00  0.00    +0.000 N 
ATOM      2  C   UNL     1       5.043   5.068  18.884  0.00  0.00    +0.000 C 
ATOM      3  O   UNL     1       5.597   4.078  19.353  0.00  0.00    +0.000 OA
ATOM      4  N   UNL     1       3.682   5.294  18.852  0.00  0.00    +0.000 N 
ATOM      5  H   UNL     1       5.345   7.005  18.380  0.00  0.00    +0.000 HD
ATOM      6  H   UNL     1       3.388   5.765  18.010  0.00  0.00    +0.000 HD
ENDROOT
BRANCH   4   7
ATOM      7  C   UNL     1       2.767   4.388  19.435  0.00  0.00    +0.000 A 
ATOM      8  C   UNL     1       2.498   4.458  20.808  0.00  0.00    +0.000 A 
ATOM      9  C   UNL     1       1.586   3.585  21.398  0.00  0.00    +0.000 A 
ATOM     10  C   UNL     1       0.938   2.632  20.620  0.00  0.00    +0.000 A 
ATOM     11  C   UNL     1       1.201   2.554  19.252  0.00  0.00    +0.000 A 
ATOM     12  C   UNL     1       2.118   3.425  18.642  0.00  0.00    +0.000 A 
ATOM     13  C   UNL     1       2.422   3.254  17.180  0.00  0.00    +0.000 C 
ENDBRANCH   4   7
BRANCH   1  14
ATOM     14  C   UNL     1       7.164   5.964  18.021  0.00  0.00    +0.000 C 
ATOM     15  C   UNL     1       7.761   7.295  17.559  0.00  0.00    +0.000 C 
BRANCH  14  17
ATOM     16  C   UNL     1       6.859   5.115  15.637  0.00  0.00    +0.000 C 
ATOM     17  C   UNL     1       7.476   4.855  17.005  0.00  0.00    +0.000 C 
ENDBRANCH  14  17
ENDBRANCH   1  14
TORSDOF 3
ENDMDL
MODEL 4
REMARK VINA RESULT:      -6.9      1.690      2.321
REMARK  Name = 
REMARK  6 active torsions:
REMARK  status: ('A' for Active; 'I' for Inactive)
REMARK    1  A    between atoms: C_1  and  C_2
REMARK    2  A    between atoms: C_2  and  C_3
REMARK    3  A    between atoms: C_3  and  C_4
REMARK    4  A    between atoms: C_3  and  N_5
REMARK    5  A    between atoms: N_8  and  C_9
REMARK    6  A    between atoms: C_14  and  C_15
REMARK                            x       y       z     vdW  Elec       q    Type
REMARK                         _______ _______ _______ _____ _____    ______ ____
ROOT
ATOM      1  N   UNL     1       5.402   5.751  17.076  0.00  0.00    +0.000 N 
ATOM      2  C   UNL     1       4.691   4.944  17.936  0.00  0.00    +0.000 C 
ATOM      3  O   UNL     1       5.227   4.179  18.732  0.00  0.00    +0.000 OA
ATOM      4  N   UNL     1       3.332   5.064  17.721  0.00  0.00    +0.000 N 
ATOM      5  H   UNL     1       4.978   6.649  16.885  0.00  0.00    +0.000 HD
ATOM      6  H   UNL     1       3.108   5.238  16.753  0.00  0.00    +0.000 HD
ENDROOT
BRANCH   4   7
ATOM      7  C   UNL     1       2.394   4.325  18.475  0.00  0.00    +0.000 A 
ATOM      8  C   UNL     1       1.991   3.057  18.035  0.00  0.00    +0.000 A 
ATOM      9  C   UNL     1       1.080   2.305  18.774  0.00  0.00    +0.000 A 
ATOM     10  C   UNL     1       0.562   2.816  19.959  0.00  0.00    +0.000 A 
ATOM     11  C   UNL     1       0.956   4.078  20.405  0.00  0.00    +0.000 A 
ATOM     12  C   UNL     1       1.872   4.850  19.670  0.00  0.00    +0.000 A 
ATOM     13  C   UNL     1       2.209   6.232  20.154  0.00  0.00    +0.000 C 
ENDBRANCH   4   7
BRANCH   1  14
ATOM     14  C   UNL     1       6.856   5.662  17.021  0.00  0.00    +0.000 C 
ATOM     15  C   UNL     1       7.503   7.033  17.230  0.00  0.00    +0.000 C 
BRANCH  14  17
ATOM     16  C   UNL     1       6.216   4.998  14.644  0.00  0.00    +0.000 C 
ATOM     17  C   UNL     1       7.321   5.049  15.690  0.00  0.00    +0.000 C 
ENDBRANCH  14  17
ENDBRANCH   1  14
TORSDOF 3
ENDMDL
MODEL 5
REMARK VINA RESULT:      -6.9      1.390      5.739
REMARK  Name = 
REMARK  6 active torsions:
REMARK  status: ('A' for Active; 'I' for Inactive)
REMARK    1  A    between atoms: C_1  and  C_2
REMARK    2  A    between atoms: C_2  and  C_3
REMARK    3  A    between atoms: C_3  and  C_4
REMARK    4  A    between atoms: C_3  and  N_5
REMARK    5  A    between atoms: N_8  and  C_9
REMARK    6  A    between atoms: C_14  and  C_15
REMARK                            x       y       z     vdW  Elec       q    Type
REMARK                         _______ _______ _______ _____ _____    ______ ____
ROOT
ATOM      1  N   UNL     1       3.199   3.332  20.319  0.00  0.00    +0.000 N 
ATOM      2  C   UNL     1       3.886   4.395  19.774  0.00  0.00    +0.000 C 
ATOM      3  O   UNL     1       3.455   5.545  19.784  0.00  0.00    +0.000 OA
ATOM      4  N   UNL     1       5.054   3.975  19.170  0.00  0.00    +0.000 N 
ATOM      5  H   UNL     1       3.781   2.619  20.738  0.00  0.00    +0.000 HD
ATOM      6  H   UNL     1       4.969   3.056  18.763  0.00  0.00    +0.000 HD
ENDROOT
BRANCH   4   7
ATOM      7  C   UNL     1       5.925   4.884  18.529  0.00  0.00    +0.000 A 
ATOM      8  C   UNL     1       6.896   5.563  19.278  0.00  0.00    +0.000 A 
ATOM      9  C   UNL     1       7.776   6.450  18.662  0.00  0.00    +0.000 A 
ATOM     10  C   UNL     1       7.690   6.670  17.291  0.00  0.00    +0.000 A 
ATOM     11  C   UNL     1       6.725   6.000  16.537  0.00  0.00    +0.000 A 
ATOM     12  C   UNL     1       5.829   5.103  17.144  0.00  0.00    +0.000 A 
ATOM     13  C   UNL     1       4.762   4.462  16.303  0.00  0.00    +0.000 C 
ENDBRANCH   4   7
BRANCH   1  14
ATOM     14  C   UNL     1       1.863   3.526  20.867  0.00  0.00    +0.000 C 
ATOM     15  C   UNL     1       1.514   2.431  21.877  0.00  0.00    +0.000 C 
BRANCH  14  17
ATOM     16  C   UNL     1       0.862   2.361  18.832  0.00  0.00    +0.000 C 
ATOM     17  C   UNL     1       0.810   3.577  19.748  0.00  0.00    +0.000 C 
ENDBRANCH  14  17
ENDBRANCH   1  14
TORSDOF 3
ENDMDL
MODEL 6
REMARK VINA RESULT:      -6.9      1.565      2.568
REMARK  Name = 
REMARK  6 active torsions:
REMARK  status: ('A' for Active; 'I' for Inactive)
REMARK    1  A    between atoms: C_1  and  C_2
REMARK    2  A    between atoms: C_2  and  C_3
REMARK    3  A    between atoms: C_3  and  C_4
REMARK    4  A    between atoms: C_3  and  N_5
REMARK    5  A    between atoms: N_8  and  C_9
REMARK    6  A    between atoms: C_14  and  C_15
REMARK                            x       y       z     vdW  Elec       q    Type
REMARK                         _______ _______ _______ _____ _____    ______ ____
ROOT
ATOM      1  N   UNL     1       5.158   3.603  16.356  0.00  0.00    +0.000 N 
ATOM      2  C   UNL     1       4.362   3.941  17.428  0.00  0.00    +0.000 C 
ATOM      3  O   UNL     1       4.263   5.089  17.851  0.00  0.00    +0.000 OA
ATOM      4  N   UNL     1       3.774   2.822  17.982  0.00  0.00    +0.000 N 
ATOM      5  H   UNL     1       4.798   2.858  15.776  0.00  0.00    +0.000 HD
ATOM      6  H   UNL     1       4.362   2.004  17.917  0.00  0.00    +0.000 HD
ENDROOT
BRANCH   4   7
ATOM      7  C   UNL     1       2.920   2.912  19.104  0.00  0.00    +0.000 A 
ATOM      8  C   UNL     1       1.623   3.420  18.952  0.00  0.00    +0.000 A 
ATOM      9  C   UNL     1       0.759   3.502  20.043  0.00  0.00    +0.000 A 
ATOM     10  C   UNL     1       1.187   3.079  21.296  0.00  0.00    +0.000 A 
ATOM     11  C   UNL     1       2.478   2.573  21.458  0.00  0.00    +0.000 A 
ATOM     12  C   UNL     1       3.361   2.486  20.369  0.00  0.00    +0.000 A 
ATOM     13  C   UNL     1       4.764   2.003  20.608  0.00  0.00    +0.000 C 
ENDBRANCH   4   7
BRANCH   1  14
ATOM     14  C   UNL     1       5.999   4.610  15.720  0.00  0.00    +0.000 C 
ATOM     15  C   UNL     1       6.358   4.210  14.288  0.00  0.00    +0.000 C 
BRANCH  14  17
ATOM     16  C   UNL     1       7.351   6.278  17.096  0.00  0.00    +0.000 C 
ATOM     17  C   UNL     1       7.274   4.861  16.541  0.00  0.00    +0.000 C 
ENDBRANCH  14  17
ENDBRANCH   1  14
TORSDOF 3
ENDMDL
MODEL 7
REMARK VINA RESULT:      -6.9      1.447      1.788
REMARK  Name = 
REMARK  6 active torsions:
REMARK  status: ('A' for Active; 'I' for Inactive)
REMARK    1  A    between atoms: C_1  and  C_2
REMARK    2  A    between atoms: C_2  and  C_3
REMARK    3  A    between atoms: C_3  and  C_4
REMARK    4  A    between atoms: C_3  and  N_5
REMARK    5  A    between atoms: N_8  and  C_9
REMARK    6  A    between atoms: C_14  and  C_15
REMARK                            x       y       z     vdW  Elec       q    Type
REMARK                         _______ _______ _______ _____ _____    ______ ____
ROOT
ATOM      1  N   UNL     1       6.208   5.383  18.381  0.00  0.00    +0.000 N 
ATOM      2  C   UNL     1       4.859   5.106  18.370  0.00  0.00    +0.000 C 
ATOM      3  O   UNL     1       4.071   5.649  17.601  0.00  0.00    +0.000 OA
ATOM      4  N   UNL     1       4.527   4.213  19.370  0.00  0.00    +0.000 N 
ATOM      5  H   UNL     1       6.803   4.596  18.601  0.00  0.00    +0.000 HD
ATOM      6  H   UNL     1       5.101   4.324  20.192  0.00  0.00    +0.000 HD
ENDROOT
BRANCH   4   7
ATOM      7  C   UNL     1       3.196   3.783  19.568  0.00  0.00    +0.000 A 
ATOM      8  C   UNL     1       2.341   4.522  20.395  0.00  0.00    +0.000 A 
ATOM      9  C   UNL     1       1.020   4.124  20.589  0.00  0.00    +0.000 A 
ATOM     10  C   UNL     1       0.544   2.979  19.959  0.00  0.00    +0.000 A 
ATOM     11  C   UNL     1       1.388   2.235  19.135  0.00  0.00    +0.000 A 
ATOM     12  C   UNL     1       2.723   2.622  18.930  0.00  0.00    +0.000 A 
ATOM     13  C   UNL     1       3.614   1.748  18.093  0.00  0.00    +0.000 C 
ENDBRANCH   4   7
BRANCH   1  14
ATOM     14  C   UNL     1       6.750   6.422  17.513  0.00  0.00    +0.000 C 
ATOM     15  C   UNL     1       7.171   5.848  16.159  0.00  0.00    +0.000 C 
BRANCH  14  17
ATOM     16  C   UNL     1       8.018   8.612  17.814  0.00  0.00    +0.000 C 
ATOM     17  C   UNL     1       7.934   7.137  18.183  0.00  0.00    +0.000 C 
ENDBRANCH  14  17
ENDBRANCH   1  14
TORSDOF 3
ENDMDL
MODEL 8
REMARK VINA RESULT:      -6.9      1.313      1.325
REMARK  Name = 
REMARK  6 active torsions:
REMARK  status: ('A' for Active; 'I' for Inactive)
REMARK    1  A    between atoms: C_1  and  C_2
REMARK    2  A    between atoms: C_2  and  C_3
REMARK    3  A    between atoms: C_3  and  C_4
REMARK    4  A    between atoms: C_3  and  N_5
REMARK    5  A    between atoms: N_8  and  C_9
REMARK    6  A    between atoms: C_14  and  C_15
REMARK                            x       y       z     vdW  Elec       q    Type
REMARK                         _______ _______ _______ _____ _____    ______ ____
ROOT
ATOM      1  N   UNL     1       5.732   6.235  18.183  0.00  0.00    +0.000 N 
ATOM      2  C   UNL     1       5.076   5.183  18.784  0.00  0.00    +0.000 C 
ATOM      3  O   UNL     1       5.652   4.171  19.173  0.00  0.00    +0.000 OA
ATOM      4  N   UNL     1       3.713   5.398  18.811  0.00  0.00    +0.000 N 
ATOM      5  H   UNL     1       5.348   7.148  18.385  0.00  0.00    +0.000 HD
ATOM      6  H   UNL     1       3.387   5.916  18.009  0.00  0.00    +0.000 HD
ENDROOT
BRANCH   4   7
ATOM      7  C   UNL     1       2.824   4.452  19.369  0.00  0.00    +0.000 A 
ATOM      8  C   UNL     1       2.502   4.519  20.731  0.00  0.00    +0.000 A 
ATOM      9  C   UNL     1       1.614   3.606  21.297  0.00  0.00    +0.000 A 
ATOM     10  C   UNL     1       1.044   2.615  20.506  0.00  0.00    +0.000 A 
ATOM     11  C   UNL     1       1.361   2.539  19.149  0.00  0.00    +0.000 A 
ATOM     12  C   UNL     1       2.254   3.451  18.563  0.00  0.00    +0.000 A 
ATOM     13  C   UNL     1       2.620   3.283  17.115  0.00  0.00    +0.000 C 
ENDBRANCH   4   7
BRANCH   1  14
ATOM     14  C   UNL     1       7.160   6.146  17.904  0.00  0.00    +0.000 C 
ATOM     15  C   UNL     1       7.973   6.067  19.198  0.00  0.00    +0.000 C 
BRANCH  14  17
ATOM     16  C   UNL     1       8.021   8.545  17.882  0.00  0.00    +0.000 C 
ATOM     17  C   UNL     1       7.629   7.332  17.048  0.00  0.00    +0.000 C 
ENDBRANCH  14  17
ENDBRANCH   1  14
TORSDOF 3
ENDMDL
MODEL 9
REMARK VINA RESULT:      -6.9      0.915      1.309
REMARK  Name = 
REMARK  6 active torsions:
REMARK  status: ('A' for Active; 'I' for Inactive)
REMARK    1  A    between atoms: C_1  and  C_2
REMARK    2  A    between atoms: C_2  and  C_3
REMARK    3  A    between atoms: C_3  and  C_4
REMARK    4  A    between atoms: C_3  and  N_5
REMARK    5  A    between atoms: N_8  and  C_9
REMARK    6  A    between atoms: C_14  and  C_15
REMARK                            x       y       z     vdW  Elec       q    Type
REMARK                         _______ _______ _______ _____ _____    ______ ____
ROOT
ATOM      1  N   UNL     1       5.595   4.352  16.959  0.00  0.00    +0.000 N 
ATOM      2  C   UNL     1       4.661   4.506  17.960  0.00  0.00    +0.000 C 
ATOM      3  O   UNL     1       4.426   5.587  18.493  0.00  0.00    +0.000 OA
ATOM      4  N   UNL     1       4.105   3.293  18.312  0.00  0.00    +0.000 N 
ATOM      5  H   UNL     1       5.361   3.659  16.261  0.00  0.00    +0.000 HD
ATOM      6  H   UNL     1       4.758   2.529  18.227  0.00  0.00    +0.000 HD
ENDROOT
BRANCH   4   7
ATOM      7  C   UNL     1       3.127   3.193  19.327  0.00  0.00    +0.000 A 
ATOM      8  C   UNL     1       3.484   2.705  20.591  0.00  0.00    +0.000 A 
ATOM      9  C   UNL     1       2.538   2.615  21.611  0.00  0.00    +0.000 A 
ATOM     10  C   UNL     1       1.226   3.009  21.373  0.00  0.00    +0.000 A 
ATOM     11  C   UNL     1       0.861   3.494  20.117  0.00  0.00    +0.000 A 
ATOM     12  C   UNL     1       1.802   3.590  19.078  0.00  0.00    +0.000 A 
ATOM     13  C   UNL     1       1.344   4.050  17.723  0.00  0.00    +0.000 C 
ENDBRANCH   4   7
BRANCH   1  14
ATOM     14  C   UNL     1       6.419   5.480  16.544  0.00  0.00    +0.000 C 
ATOM     15  C   UNL     1       7.175   5.169  15.251  0.00  0.00    +0.000 C 
BRANCH  14  17
ATOM     16  C   UNL     1       7.669   7.380  17.697  0.00  0.00    +0.000 C 
ATOM     17  C   UNL     1       7.403   5.881  17.655  0.00  0.00    +0.000 C 
ENDBRANCH  14  17
ENDBRANCH   1  14
TORSDOF 3
ENDMDL
