MODEL 1
REMARK VINA RESULT:      -8.4      0.000      0.000
REMARK  Name = 
REMARK  6 active torsions:
REMARK  status: ('A' for Active; 'I' for Inactive)
REMARK    1  A    between atoms: C_2  and  C_3
REMARK    2  A    between atoms: C_6  and  S_7
REMARK    3  A    between atoms: S_7  and  N_10
REMARK    4  A    between atoms: N_10  and  C_11
REMARK    5  A    between atoms: N_19  and  C_20
REMARK    6  A    between atoms: C_20  and  C_21
REMARK                            x       y       z     vdW  Elec       q    Type
REMARK                         _______ _______ _______ _____ _____    ______ ____
ROOT
ATOM      1  C   UNL     1       2.894   6.010  18.948  0.00  0.00    +0.000 A 
ATOM      2  C   UNL     1       3.042   6.795  17.814  0.00  0.00    +0.000 A 
ATOM      3  C   UNL     1       2.506   8.085  17.795  0.00  0.00    +0.000 A 
ATOM      4  C   UNL     1       1.836   8.619  18.915  0.00  0.00    +0.000 A 
ATOM      5  C   UNL     1       1.759   7.842  20.087  0.00  0.00    +0.000 A 
ATOM      6  C   UNL     1       2.276   6.533  20.080  0.00  0.00    +0.000 A 
ATOM      7  C   UNL     1       1.209   8.361  21.394  0.00  0.00    +0.000 C 
ATOM      8  C   UNL     1      -0.220   8.901  21.316  0.00  0.00    +0.000 C 
ATOM      9  N   UNL     1      -0.392  10.246  20.752  0.00  0.00    +0.000 NA
ATOM     10  C   UNL     1      -0.146  10.250  19.302  0.00  0.00    +0.000 C 
ATOM     11  C   UNL     1       1.298  10.030  18.810  0.00  0.00    +0.000 C 
ENDROOT
BRANCH   1  12
ATOM     12  N   UNL     1       3.392   4.682  18.967  0.00  0.00    +0.000 N 
ATOM     13  H   UNL     1       2.859   3.995  19.497  0.00  0.00    +0.000 HD
BRANCH  12  14
ATOM     14  S   UNL     1       5.054   4.416  19.051  0.00  0.00    +0.000 S 
ATOM     15  O   UNL     1       5.310   3.095  19.583  0.00  0.00    +0.000 OA
ATOM     16  O   UNL     1       5.618   5.600  19.665  0.00  0.00    +0.000 OA
BRANCH  14  20
ATOM     17  C   UNL     1       6.421   4.352  14.679  0.00  0.00    +0.000 A 
ATOM     18  C   UNL     1       7.297   4.778  15.686  0.00  0.00    +0.000 A 
ATOM     19  C   UNL     1       6.875   4.814  17.019  0.00  0.00    +0.000 A 
ATOM     20  C   UNL     1       5.567   4.431  17.342  0.00  0.00    +0.000 A 
ATOM     21  C   UNL     1       4.691   3.990  16.345  0.00  0.00    +0.000 A 
ATOM     22  C   UNL     1       5.117   3.960  15.013  0.00  0.00    +0.000 A 
BRANCH  17  24
ATOM     23  N   UNL     1       7.215   4.269  12.209  0.00  0.00    +0.000 NA
ATOM     24  C   UNL     1       6.861   4.310  13.315  0.00  0.00    +0.000 C 
ENDBRANCH  17  24
ENDBRANCH  14  20
ENDBRANCH  12  14
ENDBRANCH   1  12
BRANCH   9  25
ATOM     25  C   UNL     1       0.378  11.303  21.440  0.00  0.00    +0.000 C 
BRANCH  25  26
ATOM     26  C   UNL     1      -0.490  12.246  22.226  0.00  0.00    +0.000 A 
ATOM     27  C   UNL     1      -1.703  11.966  22.900  0.00  0.00    +0.000 A 
ATOM     28  C   UNL     1      -2.111  13.171  23.416  0.00  0.00    +0.000 A 
ATOM     29  N   UNL     1      -1.161  14.078  23.050  0.00  0.00    +0.000 N 
ATOM     30  N   UNL     1      -0.160  13.544  22.333  0.00  0.00    +0.000 NA
ATOM     31  H   UNL     1      -1.134  15.072  23.249  0.00  0.00    +0.000 HD
ENDBRANCH  25  26
ENDBRANCH   9  25
TORSDOF 6
ENDMDL
MODEL 2
REMARK VINA RESULT:      -8.0      1.017      1.424
REMARK  Name = 
REMARK  6 active torsions:
REMARK  status: ('A' for Active; 'I' for Inactive)
REMARK    1  A    between atoms: C_2  and  C_3
REMARK    2  A    between atoms: C_6  and  S_7
REMARK    3  A    between atoms: S_7  and  N_10
REMARK    4  A    between atoms: N_10  and  C_11
REMARK    5  A    between atoms: N_19  and  C_20
REMARK    6  A    between atoms: C_20  and  C_21
REMARK                            x       y       z     vdW  Elec       q    Type
REMARK                         _______ _______ _______ _____ _____    ______ ____
ROOT
ATOM      1  C   UNL     1       2.890   6.025  18.899  0.00  0.00    +0.000 A 
ATOM      2  C   UNL     1       3.044   6.821  17.773  0.00  0.00    +0.000 A 
ATOM      3  C   UNL     1       2.513   8.112  17.764  0.00  0.00    +0.000 A 
ATOM      4  C   UNL     1       1.840   8.638  18.887  0.00  0.00    +0.000 A 
ATOM      5  C   UNL     1       1.756   7.850  20.051  0.00  0.00    +0.000 A 
ATOM      6  C   UNL     1       2.269   6.539  20.033  0.00  0.00    +0.000 A 
ATOM      7  C   UNL     1       1.202   8.359  21.360  0.00  0.00    +0.000 C 
ATOM      8  C   UNL     1      -0.225   8.904  21.282  0.00  0.00    +0.000 C 
ATOM      9  N   UNL     1      -0.390  10.254  20.730  0.00  0.00    +0.000 NA
ATOM     10  C   UNL     1      -0.139  10.271  19.281  0.00  0.00    +0.000 C 
ATOM     11  C   UNL     1       1.306  10.051  18.793  0.00  0.00    +0.000 C 
ENDROOT
BRANCH   1  12
ATOM     12  N   UNL     1       3.384   4.696  18.907  0.00  0.00    +0.000 N 
ATOM     13  H   UNL     1       2.823   3.996  19.390  0.00  0.00    +0.000 HD
BRANCH  12  14
ATOM     14  S   UNL     1       5.039   4.422  19.071  0.00  0.00    +0.000 S 
ATOM     15  O   UNL     1       5.262   3.115  19.649  0.00  0.00    +0.000 OA
ATOM     16  O   UNL     1       5.584   5.620  19.677  0.00  0.00    +0.000 OA
BRANCH  14  20
ATOM     17  C   UNL     1       6.498   4.435  14.728  0.00  0.00    +0.000 A 
ATOM     18  C   UNL     1       5.190   4.035  15.032  0.00  0.00    +0.000 A 
ATOM     19  C   UNL     1       4.749   4.015  16.359  0.00  0.00    +0.000 A 
ATOM     20  C   UNL     1       5.626   4.387  17.385  0.00  0.00    +0.000 A 
ATOM     21  C   UNL     1       6.928   4.802  17.090  0.00  0.00    +0.000 A 
ATOM     22  C   UNL     1       7.365   4.816  15.761  0.00  0.00    +0.000 A 
BRANCH  17  24
ATOM     23  N   UNL     1       7.306   4.475  12.262  0.00  0.00    +0.000 NA
ATOM     24  C   UNL     1       6.942   4.460  13.365  0.00  0.00    +0.000 C 
ENDBRANCH  17  24
ENDBRANCH  14  20
ENDBRANCH  12  14
ENDBRANCH   1  12
BRANCH   9  25
ATOM     25  C   UNL     1       0.380  11.302  21.431  0.00  0.00    +0.000 C 
BRANCH  25  26
ATOM     26  C   UNL     1       0.023  12.693  20.985  0.00  0.00    +0.000 A 
ATOM     27  C   UNL     1      -1.249  13.315  20.987  0.00  0.00    +0.000 A 
ATOM     28  C   UNL     1      -1.039  14.557  20.441  0.00  0.00    +0.000 A 
ATOM     29  N   UNL     1       0.292  14.623  20.156  0.00  0.00    +0.000 N 
ATOM     30  N   UNL     1       0.964  13.509  20.481  0.00  0.00    +0.000 NA
ATOM     31  H   UNL     1       0.806  15.390  19.736  0.00  0.00    +0.000 HD
ENDBRANCH  25  26
ENDBRANCH   9  25
TORSDOF 6
ENDMDL
MODEL 3
REMARK VINA RESULT:      -7.8      3.469     10.289
REMARK  Name = 
REMARK  6 active torsions:
REMARK  status: ('A' for Active; 'I' for Inactive)
REMARK    1  A    between atoms: C_2  and  C_3
REMARK    2  A    between atoms: C_6  and  S_7
REMARK    3  A    between atoms: S_7  and  N_10
REMARK    4  A    between atoms: N_10  and  C_11
REMARK    5  A    between atoms: N_19  and  C_20
REMARK    6  A    between atoms: C_20  and  C_21
REMARK                            x       y       z     vdW  Elec       q    Type
REMARK                         _______ _______ _______ _____ _____    ______ ____
ROOT
ATOM      1  C   UNL     1       0.753   9.811  18.961  0.00  0.00    +0.000 A 
ATOM      2  C   UNL     1       0.435   9.354  20.232  0.00  0.00    +0.000 A 
ATOM      3  C   UNL     1       1.026   8.182  20.710  0.00  0.00    +0.000 A 
ATOM      4  C   UNL     1       1.961   7.464  19.937  0.00  0.00    +0.000 A 
ATOM      5  C   UNL     1       2.334   7.978  18.681  0.00  0.00    +0.000 A 
ATOM      6  C   UNL     1       1.706   9.142  18.200  0.00  0.00    +0.000 A 
ATOM      7  C   UNL     1       3.435   7.386  17.834  0.00  0.00    +0.000 C 
ATOM      8  C   UNL     1       3.253   5.906  17.493  0.00  0.00    +0.000 C 
ATOM      9  N   UNL     1       3.590   4.936  18.543  0.00  0.00    +0.000 NA
ATOM     10  C   UNL     1       2.601   4.966  19.631  0.00  0.00    +0.000 C 
ATOM     11  C   UNL     1       2.560   6.210  20.540  0.00  0.00    +0.000 C 
ENDROOT
BRANCH   1  12
ATOM     12  N   UNL     1       0.127  10.974  18.444  0.00  0.00    +0.000 N 
ATOM     13  H   UNL     1       0.108  11.078  17.431  0.00  0.00    +0.000 HD
BRANCH  12  14
ATOM     14  S   UNL     1       0.316  12.447  19.240  0.00  0.00    +0.000 S 
ATOM     15  O   UNL     1      -0.076  13.529  18.363  0.00  0.00    +0.000 OA
ATOM     16  O   UNL     1       1.629  12.407  19.851  0.00  0.00    +0.000 OA
BRANCH  14  20
ATOM     17  C   UNL     1      -2.709  12.329  22.679  0.00  0.00    +0.000 A 
ATOM     18  C   UNL     1      -1.345  12.129  22.932  0.00  0.00    +0.000 A 
ATOM     19  C   UNL     1      -0.423  12.148  21.880  0.00  0.00    +0.000 A 
ATOM     20  C   UNL     1      -0.872  12.359  20.570  0.00  0.00    +0.000 A 
ATOM     21  C   UNL     1      -2.228  12.575  20.311  0.00  0.00    +0.000 A 
ATOM     22  C   UNL     1      -3.147  12.550  21.367  0.00  0.00    +0.000 A 
BRANCH  17  24
ATOM     23  N   UNL     1      -4.408  12.299  24.641  0.00  0.00    +0.000 NA
ATOM     24  C   UNL     1      -3.649  12.316  23.763  0.00  0.00    +0.000 C 
ENDBRANCH  17  24
ENDBRANCH  14  20
ENDBRANCH  12  14
ENDBRANCH   1  12
BRANCH   9  25
ATOM     25  C   UNL     1       4.972   5.042  19.056  0.00  0.00    +0.000 C 
BRANCH  25  26
ATOM     26  C   UNL     1       6.012   4.744  18.012  0.00  0.00    +0.000 A 
ATOM     27  C   UNL     1       5.825   4.523  16.625  0.00  0.00    +0.000 A 
ATOM     28  C   UNL     1       7.078   4.250  16.136  0.00  0.00    +0.000 A 
ATOM     29  N   UNL     1       7.923   4.323  17.203  0.00  0.00    +0.000 N 
ATOM     30  N   UNL     1       7.306   4.629  18.354  0.00  0.00    +0.000 NA
ATOM     31  H   UNL     1       8.926   4.172  17.220  0.00  0.00    +0.000 HD
ENDBRANCH  25  26
ENDBRANCH   9  25
TORSDOF 6
ENDMDL
MODEL 4
REMARK VINA RESULT:      -7.7      2.102      2.602
REMARK  Name = 
REMARK  6 active torsions:
REMARK  status: ('A' for Active; 'I' for Inactive)
REMARK    1  A    between atoms: C_2  and  C_3
REMARK    2  A    between atoms: C_6  and  S_7
REMARK    3  A    between atoms: S_7  and  N_10
REMARK    4  A    between atoms: N_10  and  C_11
REMARK    5  A    between atoms: N_19  and  C_20
REMARK    6  A    between atoms: C_20  and  C_21
REMARK                            x       y       z     vdW  Elec       q    Type
REMARK                         _______ _______ _______ _____ _____    ______ ____
ROOT
ATOM      1  C   UNL     1       2.367   6.369  19.998  0.00  0.00    +0.000 A 
ATOM      2  C   UNL     1       2.635   6.683  18.674  0.00  0.00    +0.000 A 
ATOM      3  C   UNL     1       2.258   7.931  18.172  0.00  0.00    +0.000 A 
ATOM      4  C   UNL     1       1.631   8.893  18.991  0.00  0.00    +0.000 A 
ATOM      5  C   UNL     1       1.433   8.593  20.352  0.00  0.00    +0.000 A 
ATOM      6  C   UNL     1       1.789   7.320  20.835  0.00  0.00    +0.000 A 
ATOM      7  C   UNL     1       0.919   9.595  21.358  0.00  0.00    +0.000 C 
ATOM      8  C   UNL     1      -0.433  10.218  21.005  0.00  0.00    +0.000 C 
ATOM      9  N   UNL     1      -0.429  11.287  19.998  0.00  0.00    +0.000 NA
ATOM     10  C   UNL     1      -0.150  10.752  18.656  0.00  0.00    +0.000 C 
ATOM     11  C   UNL     1       1.268  10.224  18.366  0.00  0.00    +0.000 C 
ENDROOT
BRANCH   1  12
ATOM     12  N   UNL     1       2.701   5.089  20.510  0.00  0.00    +0.000 N 
ATOM     13  H   UNL     1       3.478   5.042  21.167  0.00  0.00    +0.000 HD
BRANCH  12  14
ATOM     14  S   UNL     1       2.627   3.742  19.500  0.00  0.00    +0.000 S 
ATOM     15  O   UNL     1       1.365   3.732  18.793  0.00  0.00    +0.000 OA
ATOM     16  O   UNL     1       3.052   2.615  20.304  0.00  0.00    +0.000 OA
BRANCH  14  20
ATOM     17  C   UNL     1       5.915   4.615  16.432  0.00  0.00    +0.000 A 
ATOM     18  C   UNL     1       4.632   4.248  16.005  0.00  0.00    +0.000 A 
ATOM     19  C   UNL     1       3.632   3.965  16.941  0.00  0.00    +0.000 A 
ATOM     20  C   UNL     1       3.923   4.041  18.310  0.00  0.00    +0.000 A 
ATOM     21  C   UNL     1       5.197   4.421  18.743  0.00  0.00    +0.000 A 
ATOM     22  C   UNL     1       6.195   4.698  17.802  0.00  0.00    +0.000 A 
BRANCH  17  24
ATOM     23  N   UNL     1       7.758   5.146  14.682  0.00  0.00    +0.000 NA
ATOM     24  C   UNL     1       6.934   4.911  15.467  0.00  0.00    +0.000 C 
ENDBRANCH  17  24
ENDBRANCH  14  20
ENDBRANCH  12  14
ENDBRANCH   1  12
BRANCH   9  25
ATOM     25  C   UNL     1       0.446  12.432  20.323  0.00  0.00    +0.000 C 
BRANCH  25  26
ATOM     26  C   UNL     1      -0.087  13.742  19.813  0.00  0.00    +0.000 A 
ATOM     27  C   UNL     1       0.576  14.710  19.020  0.00  0.00    +0.000 A 
ATOM     28  C   UNL     1      -0.329  15.732  18.873  0.00  0.00    +0.000 A 
ATOM     29  N   UNL     1      -1.447  15.344  19.549  0.00  0.00    +0.000 N 
ATOM     30  N   UNL     1      -1.333  14.137  20.124  0.00  0.00    +0.000 NA
ATOM     31  H   UNL     1      -2.318  15.852  19.664  0.00  0.00    +0.000 HD
ENDBRANCH  25  26
ENDBRANCH   9  25
TORSDOF 6
ENDMDL
MODEL 5
REMARK VINA RESULT:      -7.7      1.644      2.141
REMARK  Name = 
REMARK  6 active torsions:
REMARK  status: ('A' for Active; 'I' for Inactive)
REMARK    1  A    between atoms: C_2  and  C_3
REMARK    2  A    between atoms: C_6  and  S_7
REMARK    3  A    between atoms: S_7  and  N_10
REMARK    4  A    between atoms: N_10  and  C_11
REMARK    5  A    between atoms: N_19  and  C_20
REMARK    6  A    between atoms: C_20  and  C_21
REMARK                            x       y       z     vdW  Elec       q    Type
REMARK                         _______ _______ _______ _____ _____    ______ ____
ROOT
ATOM      1  C   UNL     1       3.167   6.118  19.222  0.00  0.00    +0.000 A 
ATOM      2  C   UNL     1       3.346   6.752  18.002  0.00  0.00    +0.000 A 
ATOM      3  C   UNL     1       2.734   7.987  17.772  0.00  0.00    +0.000 A 
ATOM      4  C   UNL     1       1.956   8.617  18.765  0.00  0.00    +0.000 A 
ATOM      5  C   UNL     1       1.844   8.001  20.026  0.00  0.00    +0.000 A 
ATOM      6  C   UNL     1       2.440   6.742  20.231  0.00  0.00    +0.000 A 
ATOM      7  C   UNL     1       1.173   8.651  21.212  0.00  0.00    +0.000 C 
ATOM      8  C   UNL     1      -0.278   9.073  20.973  0.00  0.00    +0.000 C 
ATOM      9  N   UNL     1      -0.492  10.314  20.219  0.00  0.00    +0.000 NA
ATOM     10  C   UNL     1      -0.146  10.141  18.800  0.00  0.00    +0.000 C 
ATOM     11  C   UNL     1       1.340   9.960  18.432  0.00  0.00    +0.000 C 
ENDROOT
BRANCH   1  12
ATOM     12  N   UNL     1       3.744   4.843  19.455  0.00  0.00    +0.000 N 
ATOM     13  H   UNL     1       4.651   4.822  19.917  0.00  0.00    +0.000 HD
BRANCH  12  14
ATOM     14  S   UNL     1       3.582   3.631  18.295  0.00  0.00    +0.000 S 
ATOM     15  O   UNL     1       2.273   3.713  17.684  0.00  0.00    +0.000 OA
ATOM     16  O   UNL     1       4.049   2.411  18.922  0.00  0.00    +0.000 OA
BRANCH  14  20
ATOM     17  C   UNL     1       6.651   4.861  15.123  0.00  0.00    +0.000 A 
ATOM     18  C   UNL     1       5.363   4.460  14.742  0.00  0.00    +0.000 A 
ATOM     19  C   UNL     1       4.432   4.068  15.708  0.00  0.00    +0.000 A 
ATOM     20  C   UNL     1       4.795   4.069  17.061  0.00  0.00    +0.000 A 
ATOM     21  C   UNL     1       6.072   4.483  17.452  0.00  0.00    +0.000 A 
ATOM     22  C   UNL     1       7.002   4.869  16.480  0.00  0.00    +0.000 A 
BRANCH  17  24
ATOM     23  N   UNL     1       8.373   5.598  13.327  0.00  0.00    +0.000 NA
ATOM     24  C   UNL     1       7.600   5.269  14.128  0.00  0.00    +0.000 C 
ENDBRANCH  17  24
ENDBRANCH  14  20
ENDBRANCH  12  14
ENDBRANCH   1  12
BRANCH   9  25
ATOM     25  C   UNL     1       0.161  11.506  20.799  0.00  0.00    +0.000 C 
BRANCH  25  26
ATOM     26  C   UNL     1      -0.231  12.785  20.113  0.00  0.00    +0.000 A 
ATOM     27  C   UNL     1       0.602  13.703  19.428  0.00  0.00    +0.000 A 
ATOM     28  C   UNL     1      -0.235  14.716  19.031  0.00  0.00    +0.000 A 
ATOM     29  N   UNL     1      -1.479  14.371  19.471  0.00  0.00    +0.000 N 
ATOM     30  N   UNL     1      -1.508  13.199  20.125  0.00  0.00    +0.000 NA
ATOM     31  H   UNL     1      -2.346  14.886  19.365  0.00  0.00    +0.000 HD
ENDBRANCH  25  26
ENDBRANCH   9  25
TORSDOF 6
ENDMDL
MODEL 6
REMARK VINA RESULT:      -7.7      3.044     10.238
REMARK  Name = 
REMARK  6 active torsions:
REMARK  status: ('A' for Active; 'I' for Inactive)
REMARK    1  A    between atoms: C_2  and  C_3
REMARK    2  A    between atoms: C_6  and  S_7
REMARK    3  A    between atoms: S_7  and  N_10
REMARK    4  A    between atoms: N_10  and  C_11
REMARK    5  A    between atoms: N_19  and  C_20
REMARK    6  A    between atoms: C_20  and  C_21
REMARK                            x       y       z     vdW  Elec       q    Type
REMARK                         _______ _______ _______ _____ _____    ______ ____
ROOT
ATOM      1  C   UNL     1       1.100   8.329  20.230  0.00  0.00    +0.000 A 
ATOM      2  C   UNL     1       1.225   9.122  19.099  0.00  0.00    +0.000 A 
ATOM      3  C   UNL     1       2.144   8.768  18.109  0.00  0.00    +0.000 A 
ATOM      4  C   UNL     1       2.934   7.605  18.221  0.00  0.00    +0.000 A 
ATOM      5  C   UNL     1       2.744   6.768  19.337  0.00  0.00    +0.000 A 
ATOM      6  C   UNL     1       1.837   7.154  20.341  0.00  0.00    +0.000 A 
ATOM      7  C   UNL     1       3.413   5.423  19.490  0.00  0.00    +0.000 C 
ATOM      8  C   UNL     1       4.941   5.458  19.417  0.00  0.00    +0.000 C 
ATOM      9  N   UNL     1       5.540   5.562  18.081  0.00  0.00    +0.000 NA
ATOM     10  C   UNL     1       5.328   6.900  17.507  0.00  0.00    +0.000 C 
ATOM     11  C   UNL     1       3.896   7.293  17.095  0.00  0.00    +0.000 C 
ENDROOT
BRANCH   1  12
ATOM     12  N   UNL     1       0.204   8.700  21.266  0.00  0.00    +0.000 N 
ATOM     13  H   UNL     1      -0.791   8.587  21.080  0.00  0.00    +0.000 HD
BRANCH  12  14
ATOM     14  S   UNL     1       0.534  10.058  22.208  0.00  0.00    +0.000 S 
ATOM     15  O   UNL     1       1.729  10.711  21.718  0.00  0.00    +0.000 OA
ATOM     16  O   UNL     1       0.420   9.627  23.586  0.00  0.00    +0.000 OA
BRANCH  14  20
ATOM     17  C   UNL     1      -3.088  12.732  21.364  0.00  0.00    +0.000 A 
ATOM     18  C   UNL     1      -2.265  12.306  20.313  0.00  0.00    +0.000 A 
ATOM     19  C   UNL     1      -1.150  11.504  20.571  0.00  0.00    +0.000 A 
ATOM     20  C   UNL     1      -0.853  11.135  21.890  0.00  0.00    +0.000 A 
ATOM     21  C   UNL     1      -1.677  11.542  22.943  0.00  0.00    +0.000 A 
ATOM     22  C   UNL     1      -2.790  12.349  22.678  0.00  0.00    +0.000 A 
BRANCH  17  24
ATOM     23  N   UNL     1      -5.163  14.214  20.876  0.00  0.00    +0.000 NA
ATOM     24  C   UNL     1      -4.236  13.548  21.092  0.00  0.00    +0.000 C 
ENDBRANCH  17  24
ENDBRANCH  14  20
ENDBRANCH  12  14
ENDBRANCH   1  12
BRANCH   9  25
ATOM     25  C   UNL     1       5.138   4.494  17.143  0.00  0.00    +0.000 C 
BRANCH  25  26
ATOM     26  C   UNL     1       5.923   4.511  15.861  0.00  0.00    +0.000 A 
ATOM     27  C   UNL     1       5.463   4.249  14.547  0.00  0.00    +0.000 A 
ATOM     28  C   UNL     1       6.579   4.349  13.753  0.00  0.00    +0.000 A 
ATOM     29  N   UNL     1       7.610   4.659  14.588  0.00  0.00    +0.000 N 
ATOM     30  N   UNL     1       7.241   4.772  15.874  0.00  0.00    +0.000 NA
ATOM     31  H   UNL     1       8.586   4.803  14.353  0.00  0.00    +0.000 HD
ENDBRANCH  25  26
ENDBRANCH   9  25
TORSDOF 6
ENDMDL
MODEL 7
REMARK VINA RESULT:      -7.7      1.178      1.582
REMARK  Name = 
REMARK  6 active torsions:
REMARK  status: ('A' for Active; 'I' for Inactive)
REMARK    1  A    between atoms: C_2  and  C_3
REMARK    2  A    between atoms: C_6  and  S_7
REMARK    3  A    between atoms: S_7  and  N_10
REMARK    4  A    between atoms: N_10  and  C_11
REMARK    5  A    between atoms: N_19  and  C_20
REMARK    6  A    between atoms: C_20  and  C_21
REMARK                            x       y       z     vdW  Elec       q    Type
REMARK                         _______ _______ _______ _____ _____    ______ ____
ROOT
ATOM      1  C   UNL     1       3.154   6.108  19.158  0.00  0.00    +0.000 A 
ATOM      2  C   UNL     1       3.293   6.819  17.975  0.00  0.00    +0.000 A 
ATOM      3  C   UNL     1       2.662   8.057  17.838  0.00  0.00    +0.000 A 
ATOM      4  C   UNL     1       1.902   8.615  18.887  0.00  0.00    +0.000 A 
ATOM      5  C   UNL     1       1.830   7.920  20.110  0.00  0.00    +0.000 A 
ATOM      6  C   UNL     1       2.446   6.659  20.222  0.00  0.00    +0.000 A 
ATOM      7  C   UNL     1       1.182   8.486  21.351  0.00  0.00    +0.000 C 
ATOM      8  C   UNL     1      -0.279   8.903  21.174  0.00  0.00    +0.000 C 
ATOM      9  N   UNL     1      -0.528  10.186  20.504  0.00  0.00    +0.000 NA
ATOM     10  C   UNL     1      -0.216  10.105  19.069  0.00  0.00    +0.000 C 
ATOM     11  C   UNL     1       1.262   9.967  18.654  0.00  0.00    +0.000 C 
ENDROOT
BRANCH   1  12
ATOM     12  N   UNL     1       3.751   4.828  19.297  0.00  0.00    +0.000 N 
ATOM     13  H   UNL     1       4.676   4.793  19.721  0.00  0.00    +0.000 HD
BRANCH  12  14
ATOM     14  S   UNL     1       3.555   3.681  18.078  0.00  0.00    +0.000 S 
ATOM     15  O   UNL     1       2.263   3.854  17.450  0.00  0.00    +0.000 OA
ATOM     16  O   UNL     1       3.951   2.412  18.655  0.00  0.00    +0.000 OA
BRANCH  14  20
ATOM     17  C   UNL     1       6.729   4.905  15.010  0.00  0.00    +0.000 A 
ATOM     18  C   UNL     1       5.475   4.446  14.584  0.00  0.00    +0.000 A 
ATOM     19  C   UNL     1       4.512   4.057  15.519  0.00  0.00    +0.000 A 
ATOM     20  C   UNL     1       4.810   4.117  16.887  0.00  0.00    +0.000 A 
ATOM     21  C   UNL     1       6.053   4.588  17.321  0.00  0.00    +0.000 A 
ATOM     22  C   UNL     1       7.015   4.972  16.380  0.00  0.00    +0.000 A 
BRANCH  17  24
ATOM     23  N   UNL     1       8.510   5.634  13.268  0.00  0.00    +0.000 NA
ATOM     24  C   UNL     1       7.711   5.310  14.046  0.00  0.00    +0.000 C 
ENDBRANCH  17  24
ENDBRANCH  14  20
ENDBRANCH  12  14
ENDBRANCH   1  12
BRANCH   9  25
ATOM     25  C   UNL     1       0.126  11.348  21.142  0.00  0.00    +0.000 C 
BRANCH  25  26
ATOM     26  C   UNL     1      -0.845  12.266  21.829  0.00  0.00    +0.000 A 
ATOM     27  C   UNL     1      -1.937  12.970  21.264  0.00  0.00    +0.000 A 
ATOM     28  C   UNL     1      -2.468  13.696  22.301  0.00  0.00    +0.000 A 
ATOM     29  N   UNL     1      -1.709  13.401  23.395  0.00  0.00    +0.000 N 
ATOM     30  N   UNL     1      -0.720  12.530  23.140  0.00  0.00    +0.000 NA
ATOM     31  H   UNL     1      -1.804  13.759  24.339  0.00  0.00    +0.000 HD
ENDBRANCH  25  26
ENDBRANCH   9  25
TORSDOF 6
ENDMDL
MODEL 8
REMARK VINA RESULT:      -7.7      3.009      4.323
REMARK  Name = 
REMARK  6 active torsions:
REMARK  status: ('A' for Active; 'I' for Inactive)
REMARK    1  A    between atoms: C_2  and  C_3
REMARK    2  A    between atoms: C_6  and  S_7
REMARK    3  A    between atoms: S_7  and  N_10
REMARK    4  A    between atoms: N_10  and  C_11
REMARK    5  A    between atoms: N_19  and  C_20
REMARK    6  A    between atoms: C_20  and  C_21
REMARK                            x       y       z     vdW  Elec       q    Type
REMARK                         _______ _______ _______ _____ _____    ______ ____
ROOT
ATOM      1  C   UNL     1       3.870   5.857  17.802  0.00  0.00    +0.000 A 
ATOM      2  C   UNL     1       3.743   5.335  19.081  0.00  0.00    +0.000 A 
ATOM      3  C   UNL     1       2.935   5.989  20.015  0.00  0.00    +0.000 A 
ATOM      4  C   UNL     1       2.223   7.158  19.678  0.00  0.00    +0.000 A 
ATOM      5  C   UNL     1       2.298   7.636  18.356  0.00  0.00    +0.000 A 
ATOM      6  C   UNL     1       3.141   6.985  17.436  0.00  0.00    +0.000 A 
ATOM      7  C   UNL     1       1.462   8.781  17.837  0.00  0.00    +0.000 C 
ATOM      8  C   UNL     1       1.610  10.087  18.619  0.00  0.00    +0.000 C 
ATOM      9  N   UNL     1       0.886  10.184  19.893  0.00  0.00    +0.000 NA
ATOM     10  C   UNL     1       1.493   9.320  20.917  0.00  0.00    +0.000 C 
ATOM     11  C   UNL     1       1.362   7.794  20.749  0.00  0.00    +0.000 C 
ENDROOT
BRANCH   1  12
ATOM     12  N   UNL     1       4.723   5.231  16.857  0.00  0.00    +0.000 N 
ATOM     13  H   UNL     1       4.292   4.578  16.206  0.00  0.00    +0.000 HD
BRANCH  12  14
ATOM     14  S   UNL     1       6.272   4.755  17.320  0.00  0.00    +0.000 S 
ATOM     15  O   UNL     1       6.979   4.220  16.176  0.00  0.00    +0.000 OA
ATOM     16  O   UNL     1       6.108   3.984  18.535  0.00  0.00    +0.000 OA
BRANCH  14  20
ATOM     17  C   UNL     1       8.386   8.655  18.463  0.00  0.00    +0.000 A 
ATOM     18  C   UNL     1       8.580   7.496  19.227  0.00  0.00    +0.000 A 
ATOM     19  C   UNL     1       7.922   6.310  18.889  0.00  0.00    +0.000 A 
ATOM     20  C   UNL     1       7.059   6.287  17.786  0.00  0.00    +0.000 A 
ATOM     21  C   UNL     1       6.871   7.434  17.009  0.00  0.00    +0.000 A 
ATOM     22  C   UNL     1       7.528   8.620  17.355  0.00  0.00    +0.000 A 
BRANCH  17  24
ATOM     23  N   UNL     1       9.629  10.845  19.093  0.00  0.00    +0.000 NA
ATOM     24  C   UNL     1       9.070   9.867  18.810  0.00  0.00    +0.000 C 
ENDBRANCH  17  24
ENDBRANCH  14  20
ENDBRANCH  12  14
ENDBRANCH   1  12
BRANCH   9  25
ATOM     25  C   UNL     1      -0.572   9.966  19.788  0.00  0.00    +0.000 C 
BRANCH  25  26
ATOM     26  C   UNL     1      -1.193  10.690  18.626  0.00  0.00    +0.000 A 
ATOM     27  C   UNL     1      -1.975  10.153  17.574  0.00  0.00    +0.000 A 
ATOM     28  C   UNL     1      -2.252  11.220  16.756  0.00  0.00    +0.000 A 
ATOM     29  N   UNL     1      -1.655  12.302  17.331  0.00  0.00    +0.000 N 
ATOM     30  N   UNL     1      -1.011  12.013  18.472  0.00  0.00    +0.000 NA
ATOM     31  H   UNL     1      -1.642  13.261  17.001  0.00  0.00    +0.000 HD
ENDBRANCH  25  26
ENDBRANCH   9  25
TORSDOF 6
ENDMDL
MODEL 9
REMARK VINA RESULT:      -7.7      1.455      1.913
REMARK  Name = 
REMARK  6 active torsions:
REMARK  status: ('A' for Active; 'I' for Inactive)
REMARK    1  A    between atoms: C_2  and  C_3
REMARK    2  A    between atoms: C_6  and  S_7
REMARK    3  A    between atoms: S_7  and  N_10
REMARK    4  A    between atoms: N_10  and  C_11
REMARK    5  A    between atoms: N_19  and  C_20
REMARK    6  A    between atoms: C_20  and  C_21
REMARK                            x       y       z     vdW  Elec       q    Type
REMARK                         _______ _______ _______ _____ _____    ______ ____
ROOT
ATOM      1  C   UNL     1       2.552   6.292  19.917  0.00  0.00    +0.000 A 
ATOM      2  C   UNL     1       2.801   6.583  18.584  0.00  0.00    +0.000 A 
ATOM      3  C   UNL     1       2.335   7.783  18.042  0.00  0.00    +0.000 A 
ATOM      4  C   UNL     1       1.634   8.721  18.828  0.00  0.00    +0.000 A 
ATOM      5  C   UNL     1       1.453   8.450  20.198  0.00  0.00    +0.000 A 
ATOM      6  C   UNL     1       1.901   7.223  20.722  0.00  0.00    +0.000 A 
ATOM      7  C   UNL     1       0.861   9.442  21.170  0.00  0.00    +0.000 C 
ATOM      8  C   UNL     1      -0.532   9.951  20.795  0.00  0.00    +0.000 C 
ATOM      9  N   UNL     1      -0.603  10.984  19.754  0.00  0.00    +0.000 NA
ATOM     10  C   UNL     1      -0.279  10.430  18.431  0.00  0.00    +0.000 C 
ATOM     11  C   UNL     1       1.176  10.000  18.161  0.00  0.00    +0.000 C 
ENDROOT
BRANCH   1  12
ATOM     12  N   UNL     1       2.979   5.058  20.470  0.00  0.00    +0.000 N 
ATOM     13  H   UNL     1       3.770   5.087  21.111  0.00  0.00    +0.000 HD
BRANCH  12  14
ATOM     14  S   UNL     1       2.971   3.669  19.515  0.00  0.00    +0.000 S 
ATOM     15  O   UNL     1       1.694   3.544  18.848  0.00  0.00    +0.000 OA
ATOM     16  O   UNL     1       3.496   2.607  20.347  0.00  0.00    +0.000 OA
BRANCH  14  20
ATOM     17  C   UNL     1       6.105   4.645  16.318  0.00  0.00    +0.000 A 
ATOM     18  C   UNL     1       4.829   4.203  15.944  0.00  0.00    +0.000 A 
ATOM     19  C   UNL     1       3.877   3.889  16.919  0.00  0.00    +0.000 A 
ATOM     20  C   UNL     1       4.210   4.009  18.275  0.00  0.00    +0.000 A 
ATOM     21  C   UNL     1       5.476   4.463  18.657  0.00  0.00    +0.000 A 
ATOM     22  C   UNL     1       6.425   4.771  17.676  0.00  0.00    +0.000 A 
BRANCH  17  24
ATOM     23  N   UNL     1       7.857   5.244  14.499  0.00  0.00    +0.000 NA
ATOM     24  C   UNL     1       7.075   4.972  15.313  0.00  0.00    +0.000 C 
ENDBRANCH  17  24
ENDBRANCH  14  20
ENDBRANCH  12  14
ENDBRANCH   1  12
BRANCH   9  25
ATOM     25  C   UNL     1       0.182  12.202  20.044  0.00  0.00    +0.000 C 
BRANCH  25  26
ATOM     26  C   UNL     1      -0.431  13.055  21.119  0.00  0.00    +0.000 A 
ATOM     27  C   UNL     1      -1.787  13.431  21.275  0.00  0.00    +0.000 A 
ATOM     28  C   UNL     1      -1.807  14.245  22.380  0.00  0.00    +0.000 A 
ATOM     29  N   UNL     1      -0.520  14.313  22.822  0.00  0.00    +0.000 N 
ATOM     30  N   UNL     1       0.338  13.594  22.081  0.00  0.00    +0.000 NA
ATOM     31  H   UNL     1      -0.155  14.830  23.614  0.00  0.00    +0.000 HD
ENDBRANCH  25  26
ENDBRANCH   9  25
TORSDOF 6
ENDMDL
