MODEL 1
REMARK VINA RESULT:      -7.3      0.000      0.000
REMARK  Name = 
REMARK  5 active torsions:
REMARK  status: ('A' for Active; 'I' for Inactive)
REMARK    1  A    between atoms: C_1  and  C_2
REMARK    2  A    between atoms: C_4  and  C_5
REMARK    3  A    between atoms: C_7  and  N_8
REMARK    4  A    between atoms: C_9  and  C_11
REMARK    5  A    between atoms: C_11  and  N_12
REMARK                            x       y       z     vdW  Elec       q    Type
REMARK                         _______ _______ _______ _____ _____    ______ ____
ROOT
ATOM      1  N   UNL     1      -0.860  11.298  19.697  0.00  0.00    +0.000 N 
ATOM      2  N   UNL     1      -2.202  11.680  19.744  0.00  0.00    +0.000 NA
ATOM      3  C   UNL     1      -2.662  11.241  18.603  0.00  0.00    +0.000 A 
ATOM      4  C   UNL     1      -4.066  11.397  18.016  0.00  0.00    +0.000 A 
ATOM      5  N   UNL     1      -5.064  12.103  18.680  0.00  0.00    +0.000 N 
ATOM      6  C   UNL     1      -5.096  12.377  20.127  0.00  0.00    +0.000 C 
ATOM      7  C   UNL     1      -6.565  12.535  20.640  0.00  0.00    +0.000 C 
ATOM      8  C   UNL     1      -7.166  13.722  19.921  0.00  0.00    +0.000 A 
ATOM      9  C   UNL     1      -7.914  14.697  20.574  0.00  0.00    +0.000 A 
ATOM     10  C   UNL     1      -7.869  15.999  20.084  0.00  0.00    +0.000 A 
ATOM     11  C   UNL     1      -7.074  16.295  18.973  0.00  0.00    +0.000 A 
ATOM     12  C   UNL     1      -6.500  15.267  18.219  0.00  0.00    +0.000 A 
ATOM     13  C   UNL     1      -6.652  13.949  18.636  0.00  0.00    +0.000 A 
ATOM     14  C   UNL     1      -6.128  12.739  17.898  0.00  0.00    +0.000 C 
ATOM     15  N   UNL     1      -4.310  10.882  16.824  0.00  0.00    +0.000 NA
ATOM     16  C   UNL     1      -3.309  10.224  16.157  0.00  0.00    +0.000 A 
ATOM     17  C   UNL     1      -2.053  10.080  16.598  0.00  0.00    +0.000 A 
ATOM     18  N   UNL     1      -1.758  10.611  17.814  0.00  0.00    +0.000 N 
ATOM     19  C   UNL     1      -0.569  10.634  18.499  0.00  0.00    +0.000 A 
ATOM     20  O   UNL     1       0.512  10.176  18.144  0.00  0.00    +0.000 OA
ENDROOT
BRANCH   1  21
ATOM     21  C   UNL     1       0.100  11.544  20.745  0.00  0.00    +0.000 C 
BRANCH  21  23
ATOM     22  N   UNL     1      -1.129  13.309  21.921  0.00  0.00    +0.000 N 
ATOM     23  C   UNL     1      -0.490  12.084  22.045  0.00  0.00    +0.000 C 
ATOM     24  O   UNL     1      -0.519  11.360  23.039  0.00  0.00    +0.000 OA
ATOM     25  H   UNL     1      -1.149  13.701  20.982  0.00  0.00    +0.000 HD
BRANCH  22  32
ATOM     26  C   UNL     1      -5.418  14.897  23.782  0.00  0.00    +0.000 C 
ATOM     27  C   UNL     1      -3.922  14.793  23.867  0.00  0.00    +0.000 A 
ATOM     28  C   UNL     1      -3.238  15.327  24.966  0.00  0.00    +0.000 A 
ATOM     29  C   UNL     1      -1.849  15.217  25.058  0.00  0.00    +0.000 A 
ATOM     30  C   UNL     1      -1.087  15.785  26.219  0.00  0.00    +0.000 C 
ATOM     31  C   UNL     1      -1.147  14.558  24.041  0.00  0.00    +0.000 A 
ATOM     32  C   UNL     1      -1.809  14.003  22.943  0.00  0.00    +0.000 A 
ATOM     33  C   UNL     1      -3.198  14.146  22.850  0.00  0.00    +0.000 A 
ENDBRANCH  22  32
ENDBRANCH  21  23
ENDBRANCH   1  21
TORSDOF 3
ENDMDL
MODEL 2
REMARK VINA RESULT:      -7.3      2.494      6.580
REMARK  Name = 
REMARK  5 active torsions:
REMARK  status: ('A' for Active; 'I' for Inactive)
REMARK    1  A    between atoms: C_1  and  C_2
REMARK    2  A    between atoms: C_4  and  C_5
REMARK    3  A    between atoms: C_7  and  N_8
REMARK    4  A    between atoms: C_9  and  C_11
REMARK    5  A    between atoms: C_11  and  N_12
REMARK                            x       y       z     vdW  Elec       q    Type
REMARK                         _______ _______ _______ _____ _____    ______ ____
ROOT
ATOM      1  N   UNL     1      -4.864  11.866  18.954  0.00  0.00    +0.000 N 
ATOM      2  N   UNL     1      -4.367  12.499  20.095  0.00  0.00    +0.000 NA
ATOM      3  C   UNL     1      -5.393  12.474  20.902  0.00  0.00    +0.000 A 
ATOM      4  C   UNL     1      -5.517  13.069  22.307  0.00  0.00    +0.000 A 
ATOM      5  N   UNL     1      -4.476  13.777  22.898  0.00  0.00    +0.000 N 
ATOM      6  C   UNL     1      -3.054  13.671  22.526  0.00  0.00    +0.000 C 
ATOM      7  C   UNL     1      -2.126  13.999  23.741  0.00  0.00    +0.000 C 
ATOM      8  C   UNL     1      -2.404  15.431  24.143  0.00  0.00    +0.000 A 
ATOM      9  C   UNL     1      -1.391  16.342  24.430  0.00  0.00    +0.000 A 
ATOM     10  C   UNL     1      -1.615  17.685  24.145  0.00  0.00    +0.000 A 
ATOM     11  C   UNL     1      -2.827  18.081  23.573  0.00  0.00    +0.000 A 
ATOM     12  C   UNL     1      -3.896  17.183  23.485  0.00  0.00    +0.000 A 
ATOM     13  C   UNL     1      -3.714  15.865  23.891  0.00  0.00    +0.000 A 
ATOM     14  C   UNL     1      -4.788  14.802  23.897  0.00  0.00    +0.000 C 
ATOM     15  N   UNL     1      -6.667  12.941  22.945  0.00  0.00    +0.000 NA
ATOM     16  C   UNL     1      -7.703  12.278  22.338  0.00  0.00    +0.000 A 
ATOM     17  C   UNL     1      -7.673  11.763  21.103  0.00  0.00    +0.000 A 
ATOM     18  N   UNL     1      -6.511  11.891  20.407  0.00  0.00    +0.000 N 
ATOM     19  C   UNL     1      -6.200  11.485  19.134  0.00  0.00    +0.000 A 
ATOM     20  O   UNL     1      -6.927  10.914  18.327  0.00  0.00    +0.000 OA
ENDROOT
BRANCH   1  21
ATOM     21  C   UNL     1      -4.104  11.625  17.752  0.00  0.00    +0.000 C 
BRANCH  21  23
ATOM     22  N   UNL     1      -1.964  11.114  18.833  0.00  0.00    +0.000 N 
ATOM     23  C   UNL     1      -2.915  10.683  17.920  0.00  0.00    +0.000 C 
ATOM     24  O   UNL     1      -2.951   9.570  17.397  0.00  0.00    +0.000 OA
ATOM     25  H   UNL     1      -2.171  11.995  19.299  0.00  0.00    +0.000 HD
BRANCH  22  32
ATOM     26  C   UNL     1       0.767   9.219  22.484  0.00  0.00    +0.000 C 
ATOM     27  C   UNL     1       0.552   9.479  21.020  0.00  0.00    +0.000 A 
ATOM     28  C   UNL     1       1.459   8.985  20.074  0.00  0.00    +0.000 A 
ATOM     29  C   UNL     1       1.254   9.210  18.711  0.00  0.00    +0.000 A 
ATOM     30  C   UNL     1       2.211   8.701  17.674  0.00  0.00    +0.000 C 
ATOM     31  C   UNL     1       0.124   9.927  18.300  0.00  0.00    +0.000 A 
ATOM     32  C   UNL     1      -0.803  10.415  19.223  0.00  0.00    +0.000 A 
ATOM     33  C   UNL     1      -0.570  10.208  20.587  0.00  0.00    +0.000 A 
ENDBRANCH  22  32
ENDBRANCH  21  23
ENDBRANCH   1  21
TORSDOF 3
ENDMDL
MODEL 3
REMARK VINA RESULT:      -7.2      5.274      8.988
REMARK  Name = 
REMARK  5 active torsions:
REMARK  status: ('A' for Active; 'I' for Inactive)
REMARK    1  A    between atoms: C_1  and  C_2
REMARK    2  A    between atoms: C_4  and  C_5
REMARK    3  A    between atoms: C_7  and  N_8
REMARK    4  A    between atoms: C_9  and  C_11
REMARK    5  A    between atoms: C_11  and  N_12
REMARK                            x       y       z     vdW  Elec       q    Type
REMARK                         _______ _______ _______ _____ _____    ______ ____
ROOT
ATOM      1  N   UNL     1       0.472  10.465  19.201  0.00  0.00    +0.000 N 
ATOM      2  N   UNL     1       0.815  11.813  19.085  0.00  0.00    +0.000 NA
ATOM      3  C   UNL     1       0.379  12.314  20.209  0.00  0.00    +0.000 A 
ATOM      4  C   UNL     1       0.395  13.771  20.676  0.00  0.00    +0.000 A 
ATOM      5  N   UNL     1       0.890  14.792  19.872  0.00  0.00    +0.000 N 
ATOM      6  C   UNL     1       1.834  14.616  18.754  0.00  0.00    +0.000 C 
ATOM      7  C   UNL     1       2.696  15.903  18.534  0.00  0.00    +0.000 C 
ATOM      8  C   UNL     1       1.745  17.024  18.177  0.00  0.00    +0.000 A 
ATOM      9  C   UNL     1       1.990  17.916  17.137  0.00  0.00    +0.000 A 
ATOM     10  C   UNL     1       0.900  18.441  16.450  0.00  0.00    +0.000 A 
ATOM     11  C   UNL     1      -0.396  18.056  16.806  0.00  0.00    +0.000 A 
ATOM     12  C   UNL     1      -0.620  17.324  17.977  0.00  0.00    +0.000 A 
ATOM     13  C   UNL     1       0.465  16.905  18.738  0.00  0.00    +0.000 A 
ATOM     14  C   UNL     1       0.370  16.151  20.045  0.00  0.00    +0.000 C 
ATOM     15  N   UNL     1      -0.121  14.060  21.858  0.00  0.00    +0.000 NA
ATOM     16  C   UNL     1      -0.645  13.053  22.627  0.00  0.00    +0.000 A 
ATOM     17  C   UNL     1      -0.721  11.766  22.267  0.00  0.00    +0.000 A 
ATOM     18  N   UNL     1      -0.215  11.432  21.049  0.00  0.00    +0.000 N 
ATOM     19  C   UNL     1      -0.173  10.214  20.418  0.00  0.00    +0.000 A 
ATOM     20  O   UNL     1      -0.605   9.140  20.826  0.00  0.00    +0.000 OA
ENDROOT
BRANCH   1  21
ATOM     21  C   UNL     1       0.752   9.459  18.206  0.00  0.00    +0.000 C 
BRANCH  21  23
ATOM     22  N   UNL     1       2.450   7.819  17.545  0.00  0.00    +0.000 N 
ATOM     23  C   UNL     1       1.805   8.429  18.610  0.00  0.00    +0.000 C 
ATOM     24  O   UNL     1       2.128   8.332  19.792  0.00  0.00    +0.000 OA
ATOM     25  H   UNL     1       2.166   8.134  16.620  0.00  0.00    +0.000 HD
BRANCH  22  32
ATOM     26  C   UNL     1       3.843   3.121  18.148  0.00  0.00    +0.000 C 
ATOM     27  C   UNL     1       4.196   4.564  17.930  0.00  0.00    +0.000 A 
ATOM     28  C   UNL     1       5.532   4.947  17.761  0.00  0.00    +0.000 A 
ATOM     29  C   UNL     1       5.863   6.286  17.540  0.00  0.00    +0.000 A 
ATOM     30  C   UNL     1       7.285   6.729  17.362  0.00  0.00    +0.000 C 
ATOM     31  C   UNL     1       4.841   7.241  17.481  0.00  0.00    +0.000 A 
ATOM     32  C   UNL     1       3.499   6.881  17.631  0.00  0.00    +0.000 A 
ATOM     33  C   UNL     1       3.185   5.541  17.880  0.00  0.00    +0.000 A 
ENDBRANCH  22  32
ENDBRANCH  21  23
ENDBRANCH   1  21
TORSDOF 3
ENDMDL
MODEL 4
REMARK VINA RESULT:      -7.2      4.212      8.001
REMARK  Name = 
REMARK  5 active torsions:
REMARK  status: ('A' for Active; 'I' for Inactive)
REMARK    1  A    between atoms: C_1  and  C_2
REMARK    2  A    between atoms: C_4  and  C_5
REMARK    3  A    between atoms: C_7  and  N_8
REMARK    4  A    between atoms: C_9  and  C_11
REMARK    5  A    between atoms: C_11  and  N_12
REMARK                            x       y       z     vdW  Elec       q    Type
REMARK                         _______ _______ _______ _____ _____    ______ ____
ROOT
ATOM      1  N   UNL     1       0.614   9.818  19.738  0.00  0.00    +0.000 N 
ATOM      2  N   UNL     1      -0.249  10.555  20.551  0.00  0.00    +0.000 NA
ATOM      3  C   UNL     1      -1.166  10.948  19.708  0.00  0.00    +0.000 A 
ATOM      4  C   UNL     1      -2.374  11.851  19.963  0.00  0.00    +0.000 A 
ATOM      5  N   UNL     1      -2.619  12.411  21.212  0.00  0.00    +0.000 N 
ATOM      6  C   UNL     1      -2.101  11.899  22.493  0.00  0.00    +0.000 C 
ATOM      7  C   UNL     1      -3.056  12.265  23.676  0.00  0.00    +0.000 C 
ATOM      8  C   UNL     1      -3.111  13.774  23.758  0.00  0.00    +0.000 A 
ATOM      9  C   UNL     1      -3.017  14.466  24.962  0.00  0.00    +0.000 A 
ATOM     10  C   UNL     1      -2.430  15.728  24.952  0.00  0.00    +0.000 A 
ATOM     11  C   UNL     1      -1.943  16.256  23.753  0.00  0.00    +0.000 A 
ATOM     12  C   UNL     1      -2.232  15.633  22.535  0.00  0.00    +0.000 A 
ATOM     13  C   UNL     1      -2.934  14.433  22.533  0.00  0.00    +0.000 A 
ATOM     14  C   UNL     1      -3.355  13.676  21.294  0.00  0.00    +0.000 C 
ATOM     15  N   UNL     1      -3.172  12.137  18.949  0.00  0.00    +0.000 NA
ATOM     16  C   UNL     1      -2.899  11.615  17.710  0.00  0.00    +0.000 A 
ATOM     17  C   UNL     1      -1.844  10.847  17.411  0.00  0.00    +0.000 A 
ATOM     18  N   UNL     1      -0.990  10.545  18.426  0.00  0.00    +0.000 N 
ATOM     19  C   UNL     1       0.166   9.806  18.411  0.00  0.00    +0.000 A 
ATOM     20  O   UNL     1       0.695   9.256  17.451  0.00  0.00    +0.000 OA
ENDROOT
BRANCH   1  21
ATOM     21  C   UNL     1       1.805   9.148  20.201  0.00  0.00    +0.000 C 
BRANCH  21  23
ATOM     22  N   UNL     1       2.466   7.267  18.776  0.00  0.00    +0.000 N 
ATOM     23  C   UNL     1       1.834   7.642  19.952  0.00  0.00    +0.000 C 
ATOM     24  O   UNL     1       1.472   6.878  20.844  0.00  0.00    +0.000 OA
ATOM     25  H   UNL     1       2.852   8.028  18.221  0.00  0.00    +0.000 HD
BRANCH  22  32
ATOM     26  C   UNL     1       5.340   4.088  16.324  0.00  0.00    +0.000 C 
ATOM     27  C   UNL     1       4.099   4.371  17.120  0.00  0.00    +0.000 A 
ATOM     28  C   UNL     1       3.220   3.333  17.453  0.00  0.00    +0.000 A 
ATOM     29  C   UNL     1       2.073   3.589  18.208  0.00  0.00    +0.000 A 
ATOM     30  C   UNL     1       1.110   2.500  18.575  0.00  0.00    +0.000 C 
ATOM     31  C   UNL     1       1.817   4.898  18.636  0.00  0.00    +0.000 A 
ATOM     32  C   UNL     1       2.686   5.947  18.330  0.00  0.00    +0.000 A 
ATOM     33  C   UNL     1       3.816   5.680  17.549  0.00  0.00    +0.000 A 
ENDBRANCH  22  32
ENDBRANCH  21  23
ENDBRANCH   1  21
TORSDOF 3
ENDMDL
MODEL 5
REMARK VINA RESULT:      -7.2      4.205      7.902
REMARK  Name = 
REMARK  5 active torsions:
REMARK  status: ('A' for Active; 'I' for Inactive)
REMARK    1  A    between atoms: C_1  and  C_2
REMARK    2  A    between atoms: C_4  and  C_5
REMARK    3  A    between atoms: C_7  and  N_8
REMARK    4  A    between atoms: C_9  and  C_11
REMARK    5  A    between atoms: C_11  and  N_12
REMARK                            x       y       z     vdW  Elec       q    Type
REMARK                         _______ _______ _______ _____ _____    ______ ____
ROOT
ATOM      1  N   UNL     1       0.637   9.796  19.815  0.00  0.00    +0.000 N 
ATOM      2  N   UNL     1      -0.241  10.544  20.602  0.00  0.00    +0.000 NA
ATOM      3  C   UNL     1      -1.129  10.946  19.734  0.00  0.00    +0.000 A 
ATOM      4  C   UNL     1      -2.333  11.864  19.955  0.00  0.00    +0.000 A 
ATOM      5  N   UNL     1      -2.607  12.428  21.197  0.00  0.00    +0.000 N 
ATOM      6  C   UNL     1      -2.130  11.911  22.492  0.00  0.00    +0.000 C 
ATOM      7  C   UNL     1      -3.113  12.288  23.648  0.00  0.00    +0.000 C 
ATOM      8  C   UNL     1      -3.153  13.798  23.728  0.00  0.00    +0.000 A 
ATOM      9  C   UNL     1      -3.085  14.490  24.933  0.00  0.00    +0.000 A 
ATOM     10  C   UNL     1      -2.483  15.745  24.938  0.00  0.00    +0.000 A 
ATOM     11  C   UNL     1      -1.956  16.267  23.753  0.00  0.00    +0.000 A 
ATOM     12  C   UNL     1      -2.219  15.647  22.528  0.00  0.00    +0.000 A 
ATOM     13  C   UNL     1      -2.934  14.454  22.507  0.00  0.00    +0.000 A 
ATOM     14  C   UNL     1      -3.330  13.701  21.258  0.00  0.00    +0.000 C 
ATOM     15  N   UNL     1      -3.099  12.158  18.919  0.00  0.00    +0.000 NA
ATOM     16  C   UNL     1      -2.798  11.632  17.689  0.00  0.00    +0.000 A 
ATOM     17  C   UNL     1      -1.744  10.851  17.420  0.00  0.00    +0.000 A 
ATOM     18  N   UNL     1      -0.922  10.540  18.458  0.00  0.00    +0.000 N 
ATOM     19  C   UNL     1       0.225   9.788  18.476  0.00  0.00    +0.000 A 
ATOM     20  O   UNL     1       0.775   9.231  17.531  0.00  0.00    +0.000 OA
ENDROOT
BRANCH   1  21
ATOM     21  C   UNL     1       1.806   9.113  20.311  0.00  0.00    +0.000 C 
BRANCH  21  23
ATOM     22  N   UNL     1       2.498   7.264  18.858  0.00  0.00    +0.000 N 
ATOM     23  C   UNL     1       1.843   7.613  20.029  0.00  0.00    +0.000 C 
ATOM     24  O   UNL     1       1.465   6.829  20.897  0.00  0.00    +0.000 OA
ATOM     25  H   UNL     1       2.894   8.038  18.329  0.00  0.00    +0.000 HD
BRANCH  22  32
ATOM     26  C   UNL     1       1.017   2.559  18.636  0.00  0.00    +0.000 C 
ATOM     27  C   UNL     1       2.007   3.630  18.276  0.00  0.00    +0.000 A 
ATOM     28  C   UNL     1       3.097   3.334  17.447  0.00  0.00    +0.000 A 
ATOM     29  C   UNL     1       4.010   4.331  17.096  0.00  0.00    +0.000 A 
ATOM     30  C   UNL     1       5.191   4.044  16.216  0.00  0.00    +0.000 C 
ATOM     31  C   UNL     1       3.818   5.632  17.574  0.00  0.00    +0.000 A 
ATOM     32  C   UNL     1       2.730   5.955  18.388  0.00  0.00    +0.000 A 
ATOM     33  C   UNL     1       1.840   4.940  18.756  0.00  0.00    +0.000 A 
ENDBRANCH  22  32
ENDBRANCH  21  23
ENDBRANCH   1  21
TORSDOF 3
ENDMDL
MODEL 6
REMARK VINA RESULT:      -7.2      5.487      9.952
REMARK  Name = 
REMARK  5 active torsions:
REMARK  status: ('A' for Active; 'I' for Inactive)
REMARK    1  A    between atoms: C_1  and  C_2
REMARK    2  A    between atoms: C_4  and  C_5
REMARK    3  A    between atoms: C_7  and  N_8
REMARK    4  A    between atoms: C_9  and  C_11
REMARK    5  A    between atoms: C_11  and  N_12
REMARK                            x       y       z     vdW  Elec       q    Type
REMARK                         _______ _______ _______ _____ _____    ______ ____
ROOT
ATOM      1  N   UNL     1       0.701  11.443  20.894  0.00  0.00    +0.000 N 
ATOM      2  N   UNL     1       1.783  12.324  20.843  0.00  0.00    +0.000 NA
ATOM      3  C   UNL     1       1.256  13.391  20.307  0.00  0.00    +0.000 A 
ATOM      4  C   UNL     1       1.940  14.705  19.924  0.00  0.00    +0.000 A 
ATOM      5  N   UNL     1       3.306  14.897  20.097  0.00  0.00    +0.000 N 
ATOM      6  C   UNL     1       4.162  14.143  21.031  0.00  0.00    +0.000 C 
ATOM      7  C   UNL     1       5.386  15.001  21.493  0.00  0.00    +0.000 C 
ATOM      8  C   UNL     1       6.201  15.321  20.260  0.00  0.00    +0.000 A 
ATOM      9  C   UNL     1       7.588  15.212  20.225  0.00  0.00    +0.000 A 
ATOM     10  C   UNL     1       8.191  14.872  19.018  0.00  0.00    +0.000 A 
ATOM     11  C   UNL     1       7.400  14.637  17.889  0.00  0.00    +0.000 A 
ATOM     12  C   UNL     1       6.038  14.951  17.901  0.00  0.00    +0.000 A 
ATOM     13  C   UNL     1       5.455  15.416  19.075  0.00  0.00    +0.000 A 
ATOM     14  C   UNL     1       4.011  15.837  19.221  0.00  0.00    +0.000 C 
ATOM     15  N   UNL     1       1.210  15.657  19.371  0.00  0.00    +0.000 NA
ATOM     16  C   UNL     1      -0.129  15.443  19.164  0.00  0.00    +0.000 A 
ATOM     17  C   UNL     1      -0.783  14.309  19.445  0.00  0.00    +0.000 A 
ATOM     18  N   UNL     1      -0.060  13.299  20.000  0.00  0.00    +0.000 N 
ATOM     19  C   UNL     1      -0.453  12.037  20.369  0.00  0.00    +0.000 A 
ATOM     20  O   UNL     1      -1.568  11.535  20.263  0.00  0.00    +0.000 OA
ENDROOT
BRANCH   1  21
ATOM     21  C   UNL     1       0.757  10.103  21.425  0.00  0.00    +0.000 C 
BRANCH  21  23
ATOM     22  N   UNL     1       1.630   7.860  20.961  0.00  0.00    +0.000 N 
ATOM     23  C   UNL     1       1.118   9.023  20.407  0.00  0.00    +0.000 C 
ATOM     24  O   UNL     1       0.788   9.170  19.232  0.00  0.00    +0.000 OA
ATOM     25  H   UNL     1       1.693   7.847  21.977  0.00  0.00    +0.000 HD
BRANCH  22  32
ATOM     26  C   UNL     1       1.151   2.974  20.432  0.00  0.00    +0.000 C 
ATOM     27  C   UNL     1       1.759   4.276  19.996  0.00  0.00    +0.000 A 
ATOM     28  C   UNL     1       2.613   4.321  18.886  0.00  0.00    +0.000 A 
ATOM     29  C   UNL     1       3.166   5.533  18.466  0.00  0.00    +0.000 A 
ATOM     30  C   UNL     1       4.089   5.612  17.287  0.00  0.00    +0.000 C 
ATOM     31  C   UNL     1       2.850   6.706  19.163  0.00  0.00    +0.000 A 
ATOM     32  C   UNL     1       1.988   6.689  20.262  0.00  0.00    +0.000 A 
ATOM     33  C   UNL     1       1.464   5.463  20.689  0.00  0.00    +0.000 A 
ENDBRANCH  22  32
ENDBRANCH  21  23
ENDBRANCH   1  21
TORSDOF 3
ENDMDL
MODEL 7
REMARK VINA RESULT:      -7.2      5.269      9.028
REMARK  Name = 
REMARK  5 active torsions:
REMARK  status: ('A' for Active; 'I' for Inactive)
REMARK    1  A    between atoms: C_1  and  C_2
REMARK    2  A    between atoms: C_4  and  C_5
REMARK    3  A    between atoms: C_7  and  N_8
REMARK    4  A    between atoms: C_9  and  C_11
REMARK    5  A    between atoms: C_11  and  N_12
REMARK                            x       y       z     vdW  Elec       q    Type
REMARK                         _______ _______ _______ _____ _____    ______ ____
ROOT
ATOM      1  N   UNL     1       0.474  10.475  19.250  0.00  0.00    +0.000 N 
ATOM      2  N   UNL     1       0.813  11.823  19.129  0.00  0.00    +0.000 NA
ATOM      3  C   UNL     1       0.367  12.329  20.246  0.00  0.00    +0.000 A 
ATOM      4  C   UNL     1       0.375  13.790  20.704  0.00  0.00    +0.000 A 
ATOM      5  N   UNL     1       0.874  14.807  19.898  0.00  0.00    +0.000 N 
ATOM      6  C   UNL     1       1.828  14.627  18.789  0.00  0.00    +0.000 C 
ATOM      7  C   UNL     1       2.688  15.914  18.569  0.00  0.00    +0.000 C 
ATOM      8  C   UNL     1       1.737  17.031  18.197  0.00  0.00    +0.000 A 
ATOM      9  C   UNL     1       1.988  17.917  17.154  0.00  0.00    +0.000 A 
ATOM     10  C   UNL     1       0.902  18.435  16.455  0.00  0.00    +0.000 A 
ATOM     11  C   UNL     1      -0.395  18.048  16.802  0.00  0.00    +0.000 A 
ATOM     12  C   UNL     1      -0.628  17.323  17.975  0.00  0.00    +0.000 A 
ATOM     13  C   UNL     1       0.452  16.912  18.748  0.00  0.00    +0.000 A 
ATOM     14  C   UNL     1       0.349  16.166  20.058  0.00  0.00    +0.000 C 
ATOM     15  N   UNL     1      -0.151  14.084  21.880  0.00  0.00    +0.000 NA
ATOM     16  C   UNL     1      -0.680  13.080  22.651  0.00  0.00    +0.000 A 
ATOM     17  C   UNL     1      -0.749  11.790  22.298  0.00  0.00    +0.000 A 
ATOM     18  N   UNL     1      -0.231  11.451  21.087  0.00  0.00    +0.000 N 
ATOM     19  C   UNL     1      -0.181  10.230  20.464  0.00  0.00    +0.000 A 
ATOM     20  O   UNL     1      -0.614   9.157  20.874  0.00  0.00    +0.000 OA
ENDROOT
BRANCH   1  21
ATOM     21  C   UNL     1       0.764   9.463  18.264  0.00  0.00    +0.000 C 
BRANCH  21  23
ATOM     22  N   UNL     1       2.425   7.769  17.649  0.00  0.00    +0.000 N 
ATOM     23  C   UNL     1       1.790   8.418  18.696  0.00  0.00    +0.000 C 
ATOM     24  O   UNL     1       2.105   8.340  19.882  0.00  0.00    +0.000 OA
ATOM     25  H   UNL     1       2.153   8.070  16.715  0.00  0.00    +0.000 HD
BRANCH  22  32
ATOM     26  C   UNL     1       7.231   6.695  17.284  0.00  0.00    +0.000 C 
ATOM     27  C   UNL     1       5.822   6.269  17.581  0.00  0.00    +0.000 A 
ATOM     28  C   UNL     1       5.554   4.963  18.013  0.00  0.00    +0.000 A 
ATOM     29  C   UNL     1       4.248   4.568  18.307  0.00  0.00    +0.000 A 
ATOM     30  C   UNL     1       3.928   3.176  18.764  0.00  0.00    +0.000 C 
ATOM     31  C   UNL     1       3.207   5.496  18.174  0.00  0.00    +0.000 A 
ATOM     32  C   UNL     1       3.451   6.808  17.761  0.00  0.00    +0.000 A 
ATOM     33  C   UNL     1       4.761   7.181  17.442  0.00  0.00    +0.000 A 
ENDBRANCH  22  32
ENDBRANCH  21  23
ENDBRANCH   1  21
TORSDOF 3
ENDMDL
MODEL 8
REMARK VINA RESULT:      -7.2      6.870      9.840
REMARK  Name = 
REMARK  5 active torsions:
REMARK  status: ('A' for Active; 'I' for Inactive)
REMARK    1  A    between atoms: C_1  and  C_2
REMARK    2  A    between atoms: C_4  and  C_5
REMARK    3  A    between atoms: C_7  and  N_8
REMARK    4  A    between atoms: C_9  and  C_11
REMARK    5  A    between atoms: C_11  and  N_12
REMARK                            x       y       z     vdW  Elec       q    Type
REMARK                         _______ _______ _______ _____ _____    ______ ____
ROOT
ATOM      1  N   UNL     1       4.028  15.631  20.115  0.00  0.00    +0.000 N 
ATOM      2  N   UNL     1       3.178  14.524  20.093  0.00  0.00    +0.000 NA
ATOM      3  C   UNL     1       2.053  15.038  19.677  0.00  0.00    +0.000 A 
ATOM      4  C   UNL     1       0.698  14.351  19.496  0.00  0.00    +0.000 A 
ATOM      5  N   UNL     1       0.509  13.009  19.808  0.00  0.00    +0.000 N 
ATOM      6  C   UNL     1       1.575  11.995  19.891  0.00  0.00    +0.000 C 
ATOM      7  C   UNL     1       1.025  10.568  19.565  0.00  0.00    +0.000 C 
ATOM      8  C   UNL     1      -0.020  10.241  20.608  0.00  0.00    +0.000 A 
ATOM      9  C   UNL     1      -0.085   9.007  21.248  0.00  0.00    +0.000 A 
ATOM     10  C   UNL     1      -0.556   8.968  22.557  0.00  0.00    +0.000 A 
ATOM     11  C   UNL     1      -0.935  10.154  23.193  0.00  0.00    +0.000 A 
ATOM     12  C   UNL     1      -1.053  11.342  22.465  0.00  0.00    +0.000 A 
ATOM     13  C   UNL     1      -0.704  11.354  21.119  0.00  0.00    +0.000 A 
ATOM     14  C   UNL     1      -0.825  12.549  20.202  0.00  0.00    +0.000 C 
ATOM     15  N   UNL     1      -0.324  15.075  19.075  0.00  0.00    +0.000 NA
ATOM     16  C   UNL     1      -0.140  16.408  18.810  0.00  0.00    +0.000 A 
ATOM     17  C   UNL     1       1.007  17.078  18.977  0.00  0.00    +0.000 A 
ATOM     18  N   UNL     1       2.078  16.369  19.426  0.00  0.00    +0.000 N 
ATOM     19  C   UNL     1       3.354  16.789  19.705  0.00  0.00    +0.000 A 
ATOM     20  O   UNL     1       3.809  17.925  19.617  0.00  0.00    +0.000 OA
ENDROOT
BRANCH   1  21
ATOM     21  C   UNL     1       5.418  15.592  20.500  0.00  0.00    +0.000 C 
BRANCH  21  23
ATOM     22  N   UNL     1       7.691  15.012  19.791  0.00  0.00    +0.000 N 
ATOM     23  C   UNL     1       6.386  15.229  19.376  0.00  0.00    +0.000 C 
ATOM     24  O   UNL     1       5.943  14.990  18.255  0.00  0.00    +0.000 OA
ATOM     25  H   UNL     1       7.855  15.100  20.792  0.00  0.00    +0.000 HD
BRANCH  22  32
ATOM     26  C   UNL     1      10.308  11.320  17.816  0.00  0.00    +0.000 C 
ATOM     27  C   UNL     1      10.069  12.791  18.001  0.00  0.00    +0.000 A 
ATOM     28  C   UNL     1      10.868  13.726  17.331  0.00  0.00    +0.000 A 
ATOM     29  C   UNL     1      10.637  15.095  17.486  0.00  0.00    +0.000 A 
ATOM     30  C   UNL     1      11.479  16.121  16.788  0.00  0.00    +0.000 C 
ATOM     31  C   UNL     1       9.590  15.522  18.312  0.00  0.00    +0.000 A 
ATOM     32  C   UNL     1       8.770  14.608  18.978  0.00  0.00    +0.000 A 
ATOM     33  C   UNL     1       9.031  13.240  18.836  0.00  0.00    +0.000 A 
ENDBRANCH  22  32
ENDBRANCH  21  23
ENDBRANCH   1  21
TORSDOF 3
ENDMDL
MODEL 9
REMARK VINA RESULT:      -7.1      5.486      9.989
REMARK  Name = 
REMARK  5 active torsions:
REMARK  status: ('A' for Active; 'I' for Inactive)
REMARK    1  A    between atoms: C_1  and  C_2
REMARK    2  A    between atoms: C_4  and  C_5
REMARK    3  A    between atoms: C_7  and  N_8
REMARK    4  A    between atoms: C_9  and  C_11
REMARK    5  A    between atoms: C_11  and  N_12
REMARK                            x       y       z     vdW  Elec       q    Type
REMARK                         _______ _______ _______ _____ _____    ______ ____
ROOT
ATOM      1  N   UNL     1       0.731  11.467  20.921  0.00  0.00    +0.000 N 
ATOM      2  N   UNL     1       1.810  12.351  20.863  0.00  0.00    +0.000 NA
ATOM      3  C   UNL     1       1.277  13.414  20.325  0.00  0.00    +0.000 A 
ATOM      4  C   UNL     1       1.955  14.730  19.935  0.00  0.00    +0.000 A 
ATOM      5  N   UNL     1       3.321  14.928  20.103  0.00  0.00    +0.000 N 
ATOM      6  C   UNL     1       4.182  14.180  21.036  0.00  0.00    +0.000 C 
ATOM      7  C   UNL     1       5.404  15.044  21.492  0.00  0.00    +0.000 C 
ATOM      8  C   UNL     1       6.214  15.363  20.255  0.00  0.00    +0.000 A 
ATOM      9  C   UNL     1       7.601  15.259  20.215  0.00  0.00    +0.000 A 
ATOM     10  C   UNL     1       8.201  14.917  19.007  0.00  0.00    +0.000 A 
ATOM     11  C   UNL     1       7.408  14.675  17.882  0.00  0.00    +0.000 A 
ATOM     12  C   UNL     1       6.044  14.984  17.898  0.00  0.00    +0.000 A 
ATOM     13  C   UNL     1       5.464  15.451  19.072  0.00  0.00    +0.000 A 
ATOM     14  C   UNL     1       4.019  15.867  19.221  0.00  0.00    +0.000 C 
ATOM     15  N   UNL     1       1.218  15.677  19.381  0.00  0.00    +0.000 NA
ATOM     16  C   UNL     1      -0.120  15.458  19.180  0.00  0.00    +0.000 A 
ATOM     17  C   UNL     1      -0.769  14.322  19.467  0.00  0.00    +0.000 A 
ATOM     18  N   UNL     1      -0.040  13.317  20.023  0.00  0.00    +0.000 N 
ATOM     19  C   UNL     1      -0.428  12.055  20.397  0.00  0.00    +0.000 A 
ATOM     20  O   UNL     1      -1.541  11.548  20.297  0.00  0.00    +0.000 OA
ENDROOT
BRANCH   1  21
ATOM     21  C   UNL     1       0.794  10.129  21.455  0.00  0.00    +0.000 C 
BRANCH  21  23
ATOM     22  N   UNL     1       1.619   7.874  20.964  0.00  0.00    +0.000 N 
ATOM     23  C   UNL     1       1.094   9.039  20.428  0.00  0.00    +0.000 C 
ATOM     24  O   UNL     1       0.710   9.183  19.269  0.00  0.00    +0.000 OA
ATOM     25  H   UNL     1       1.730   7.866  21.976  0.00  0.00    +0.000 HD
BRANCH  22  32
ATOM     26  C   UNL     1       4.121   5.716  17.295  0.00  0.00    +0.000 C 
ATOM     27  C   UNL     1       3.160   5.622  18.445  0.00  0.00    +0.000 A 
ATOM     28  C   UNL     1       2.638   4.380  18.831  0.00  0.00    +0.000 A 
ATOM     29  C   UNL     1       1.759   4.286  19.911  0.00  0.00    +0.000 A 
ATOM     30  C   UNL     1       1.177   2.973  20.344  0.00  0.00    +0.000 C 
ATOM     31  C   UNL     1       1.410   5.448  20.612  0.00  0.00    +0.000 A 
ATOM     32  C   UNL     1       1.930   6.694  20.256  0.00  0.00    +0.000 A 
ATOM     33  C   UNL     1       2.788   6.778  19.154  0.00  0.00    +0.000 A 
ENDBRANCH  22  32
ENDBRANCH  21  23
ENDBRANCH   1  21
TORSDOF 3
ENDMDL
