MODEL 1
REMARK VINA RESULT:      -8.8      0.000      0.000
REMARK  Name = 
REMARK  6 active torsions:
REMARK  status: ('A' for Active; 'I' for Inactive)
REMARK    1  A    between atoms: C_1  and  C_2
REMARK    2  A    between atoms: C_2  and  C_3
REMARK    3  A    between atoms: C_2  and  C_4
REMARK    4  A    between atoms: C_4  and  N_5
REMARK    5  A    between atoms: C_19  and  O_20
REMARK    6  A    between atoms: C_21  and  O_22
REMARK                            x       y       z     vdW  Elec       q    Type
REMARK                         _______ _______ _______ _____ _____    ______ ____
ROOT
ATOM      1  N   UNL     1       4.787   4.919  17.022  0.00  0.00    +0.000 NA
ATOM      2  C   UNL     1       4.392   3.500  17.397  0.00  0.00    +0.000 C 
ATOM      3  C   UNL     1       2.906   3.204  17.447  0.00  0.00    +0.000 C 
ATOM      4  C   UNL     1       2.433   3.990  18.634  0.00  0.00    +0.000 A 
ATOM      5  C   UNL     1       1.713   3.390  19.657  0.00  0.00    +0.000 A 
ATOM      6  C   UNL     1       1.375   4.138  20.763  0.00  0.00    +0.000 A 
ATOM      7  C   UNL     1       1.630   5.513  20.760  0.00  0.00    +0.000 A 
ATOM      8  C   UNL     1       2.241   6.169  19.675  0.00  0.00    +0.000 A 
ATOM      9  C   UNL     1       2.794   5.363  18.677  0.00  0.00    +0.000 A 
ATOM     10  C   UNL     1       3.641   5.872  17.494  0.00  0.00    +0.000 C 
ATOM     11  C   UNL     1       3.576   7.440  17.346  0.00  0.00    +0.000 C 
ATOM     12  C   UNL     1       2.576   8.213  18.249  0.00  0.00    +0.000 A 
ATOM     13  C   UNL     1       2.140   9.490  17.837  0.00  0.00    +0.000 A 
ATOM     14  C   UNL     1       1.222  10.255  18.601  0.00  0.00    +0.000 A 
ATOM     15  C   UNL     1       0.778   9.732  19.807  0.00  0.00    +0.000 A 
ATOM     16  C   UNL     1       1.186   8.476  20.223  0.00  0.00    +0.000 A 
ATOM     17  C   UNL     1       2.062   7.636  19.447  0.00  0.00    +0.000 A 
ENDROOT
BRANCH  15  18
ATOM     18  O   UNL     1      -0.117  10.400  20.618  0.00  0.00    +0.000 OA
ATOM     19  H   UNL     1      -0.165   9.943  21.477  0.00  0.00    +0.000 HD
ENDBRANCH  15  18
BRANCH  16  20
ATOM     20  O   UNL     1       0.638   8.063  21.416  0.00  0.00    +0.000 OA
ATOM     21  H   UNL     1       1.398   7.737  21.941  0.00  0.00    +0.000 HD
ENDBRANCH  16  20
BRANCH   1  22
ATOM     22  C   UNL     1       6.213   4.955  17.459  0.00  0.00    +0.000 C 
BRANCH  22  24
ATOM     23  C   UNL     1       7.991   5.527  19.322  0.00  0.00    +0.000 C 
ATOM     24  C   UNL     1       6.977   6.028  18.302  0.00  0.00    +0.000 C 
ATOM     25  C   UNL     1       7.494   7.179  17.469  0.00  0.00    +0.000 C 
ENDBRANCH  22  24
ENDBRANCH   1  22
TORSDOF 4
ENDMDL
MODEL 2
REMARK VINA RESULT:      -8.5      0.764      1.106
REMARK  Name = 
REMARK  6 active torsions:
REMARK  status: ('A' for Active; 'I' for Inactive)
REMARK    1  A    between atoms: C_1  and  C_2
REMARK    2  A    between atoms: C_2  and  C_3
REMARK    3  A    between atoms: C_2  and  C_4
REMARK    4  A    between atoms: C_4  and  N_5
REMARK    5  A    between atoms: C_19  and  O_20
REMARK    6  A    between atoms: C_21  and  O_22
REMARK                            x       y       z     vdW  Elec       q    Type
REMARK                         _______ _______ _______ _____ _____    ______ ____
ROOT
ATOM      1  N   UNL     1       4.441   4.311  16.969  0.00  0.00    +0.000 NA
ATOM      2  C   UNL     1       3.978   2.940  17.437  0.00  0.00    +0.000 C 
ATOM      3  C   UNL     1       2.485   2.760  17.624  0.00  0.00    +0.000 C 
ATOM      4  C   UNL     1       2.175   3.622  18.812  0.00  0.00    +0.000 A 
ATOM      5  C   UNL     1       1.505   3.115  19.916  0.00  0.00    +0.000 A 
ATOM      6  C   UNL     1       1.320   3.927  21.014  0.00  0.00    +0.000 A 
ATOM      7  C   UNL     1       1.672   5.277  20.931  0.00  0.00    +0.000 A 
ATOM      8  C   UNL     1       2.233   5.845  19.771  0.00  0.00    +0.000 A 
ATOM      9  C   UNL     1       2.636   4.964  18.766  0.00  0.00    +0.000 A 
ATOM     10  C   UNL     1       3.412   5.364  17.495  0.00  0.00    +0.000 C 
ATOM     11  C   UNL     1       3.448   6.926  17.287  0.00  0.00    +0.000 C 
ATOM     12  C   UNL     1       2.589   7.806  18.237  0.00  0.00    +0.000 A 
ATOM     13  C   UNL     1       2.212   9.096  17.809  0.00  0.00    +0.000 A 
ATOM     14  C   UNL     1       1.422   9.956  18.615  0.00  0.00    +0.000 A 
ATOM     15  C   UNL     1       1.048   9.511  19.875  0.00  0.00    +0.000 A 
ATOM     16  C   UNL     1       1.399   8.244  20.308  0.00  0.00    +0.000 A 
ATOM     17  C   UNL     1       2.141   7.313  19.497  0.00  0.00    +0.000 A 
ENDROOT
BRANCH  15  18
ATOM     18  O   UNL     1       0.278  10.275  20.729  0.00  0.00    +0.000 OA
ATOM     19  H   UNL     1      -0.627  10.330  20.373  0.00  0.00    +0.000 HD
ENDBRANCH  15  18
BRANCH  16  20
ATOM     20  O   UNL     1       0.929   7.917  21.559  0.00  0.00    +0.000 OA
ATOM     21  H   UNL     1       0.398   7.106  21.423  0.00  0.00    +0.000 HD
ENDBRANCH  16  20
BRANCH   1  22
ATOM     22  C   UNL     1       5.898   4.255  17.283  0.00  0.00    +0.000 C 
BRANCH  22  24
ATOM     23  C   UNL     1       7.202   4.945  15.095  0.00  0.00    +0.000 C 
ATOM     24  C   UNL     1       7.098   5.003  16.614  0.00  0.00    +0.000 C 
ATOM     25  C   UNL     1       7.315   6.392  17.169  0.00  0.00    +0.000 C 
ENDBRANCH  22  24
ENDBRANCH   1  22
TORSDOF 4
ENDMDL
MODEL 3
REMARK VINA RESULT:      -8.4      0.839      1.106
REMARK  Name = 
REMARK  6 active torsions:
REMARK  status: ('A' for Active; 'I' for Inactive)
REMARK    1  A    between atoms: C_1  and  C_2
REMARK    2  A    between atoms: C_2  and  C_3
REMARK    3  A    between atoms: C_2  and  C_4
REMARK    4  A    between atoms: C_4  and  N_5
REMARK    5  A    between atoms: C_19  and  O_20
REMARK    6  A    between atoms: C_21  and  O_22
REMARK                            x       y       z     vdW  Elec       q    Type
REMARK                         _______ _______ _______ _____ _____    ______ ____
ROOT
ATOM      1  N   UNL     1       5.236   5.236  16.321  0.00  0.00    +0.000 NA
ATOM      2  C   UNL     1       5.117   3.755  16.643  0.00  0.00    +0.000 C 
ATOM      3  C   UNL     1       3.716   3.227  16.880  0.00  0.00    +0.000 C 
ATOM      4  C   UNL     1       3.316   3.866  18.177  0.00  0.00    +0.000 A 
ATOM      5  C   UNL     1       2.856   3.108  19.244  0.00  0.00    +0.000 A 
ATOM      6  C   UNL     1       2.582   3.737  20.438  0.00  0.00    +0.000 A 
ATOM      7  C   UNL     1       2.625   5.133  20.500  0.00  0.00    +0.000 A 
ATOM      8  C   UNL     1       2.961   5.931  19.391  0.00  0.00    +0.000 A 
ATOM      9  C   UNL     1       3.471   5.275  18.269  0.00  0.00    +0.000 A 
ATOM     10  C   UNL     1       4.045   5.971  17.019  0.00  0.00    +0.000 C 
ATOM     11  C   UNL     1       3.725   7.514  16.997  0.00  0.00    +0.000 C 
ATOM     12  C   UNL     1       2.769   8.073  18.087  0.00  0.00    +0.000 A 
ATOM     13  C   UNL     1       2.090   9.284  17.835  0.00  0.00    +0.000 A 
ATOM     14  C   UNL     1       1.194   9.855  18.776  0.00  0.00    +0.000 A 
ATOM     15  C   UNL     1       1.020   9.207  19.990  0.00  0.00    +0.000 A 
ATOM     16  C   UNL     1       1.669   8.011  20.251  0.00  0.00    +0.000 A 
ATOM     17  C   UNL     1       2.533   7.362  19.299  0.00  0.00    +0.000 A 
ENDROOT
BRANCH  15  18
ATOM     18  O   UNL     1       0.169   9.683  20.967  0.00  0.00    +0.000 OA
ATOM     19  H   UNL     1      -0.746   9.635  20.637  0.00  0.00    +0.000 HD
ENDBRANCH  15  18
BRANCH  16  20
ATOM     20  O   UNL     1       1.375   7.457  21.476  0.00  0.00    +0.000 OA
ATOM     21  H   UNL     1       2.223   7.467  21.965  0.00  0.00    +0.000 HD
ENDBRANCH  16  20
BRANCH   1  22
ATOM     22  C   UNL     1       6.689   5.475  16.553  0.00  0.00    +0.000 C 
BRANCH  22  24
ATOM     23  C   UNL     1       7.490   7.730  17.667  0.00  0.00    +0.000 C 
ATOM     24  C   UNL     1       7.409   6.210  17.732  0.00  0.00    +0.000 C 
ATOM     25  C   UNL     1       6.995   5.697  19.092  0.00  0.00    +0.000 C 
ENDBRANCH  22  24
ENDBRANCH   1  22
TORSDOF 4
ENDMDL
MODEL 4
REMARK VINA RESULT:      -7.9      1.696      4.087
REMARK  Name = 
REMARK  6 active torsions:
REMARK  status: ('A' for Active; 'I' for Inactive)
REMARK    1  A    between atoms: C_1  and  C_2
REMARK    2  A    between atoms: C_2  and  C_3
REMARK    3  A    between atoms: C_2  and  C_4
REMARK    4  A    between atoms: C_4  and  N_5
REMARK    5  A    between atoms: C_19  and  O_20
REMARK    6  A    between atoms: C_21  and  O_22
REMARK                            x       y       z     vdW  Elec       q    Type
REMARK                         _______ _______ _______ _____ _____    ______ ____
ROOT
ATOM      1  N   UNL     1       3.771   3.608  20.010  0.00  0.00    +0.000 NA
ATOM      2  C   UNL     1       5.020   3.417  19.165  0.00  0.00    +0.000 C 
ATOM      3  C   UNL     1       5.972   4.595  19.093  0.00  0.00    +0.000 C 
ATOM      4  C   UNL     1       5.207   5.615  18.302  0.00  0.00    +0.000 A 
ATOM      5  C   UNL     1       5.751   6.209  17.173  0.00  0.00    +0.000 A 
ATOM      6  C   UNL     1       4.974   7.076  16.437  0.00  0.00    +0.000 A 
ATOM      7  C   UNL     1       3.721   7.454  16.927  0.00  0.00    +0.000 A 
ATOM      8  C   UNL     1       3.203   6.965  18.141  0.00  0.00    +0.000 A 
ATOM      9  C   UNL     1       3.890   5.909  18.744  0.00  0.00    +0.000 A 
ATOM     10  C   UNL     1       3.406   5.129  19.982  0.00  0.00    +0.000 C 
ATOM     11  C   UNL     1       2.192   5.837  20.695  0.00  0.00    +0.000 C 
ATOM     12  C   UNL     1       1.777   7.248  20.194  0.00  0.00    +0.000 A 
ATOM     13  C   UNL     1       1.061   8.093  21.067  0.00  0.00    +0.000 A 
ATOM     14  C   UNL     1       0.654   9.397  20.687  0.00  0.00    +0.000 A 
ATOM     15  C   UNL     1       0.946   9.825  19.399  0.00  0.00    +0.000 A 
ATOM     16  C   UNL     1       1.658   9.014  18.532  0.00  0.00    +0.000 A 
ATOM     17  C   UNL     1       2.150   7.711  18.899  0.00  0.00    +0.000 A 
ENDROOT
BRANCH  15  18
ATOM     18  O   UNL     1       0.593  11.077  18.939  0.00  0.00    +0.000 OA
ATOM     19  H   UNL     1       1.383  11.649  18.944  0.00  0.00    +0.000 HD
ENDBRANCH  15  18
BRANCH  16  20
ATOM     20  O   UNL     1       1.914   9.578  17.303  0.00  0.00    +0.000 OA
ATOM     21  H   UNL     1       2.883   9.501  17.189  0.00  0.00    +0.000 HD
ENDBRANCH  16  20
BRANCH   1  22
ATOM     22  C   UNL     1       2.918   2.479  19.539  0.00  0.00    +0.000 C 
BRANCH  22  24
ATOM     23  C   UNL     1       0.388   2.724  18.830  0.00  0.00    +0.000 C 
ATOM     24  C   UNL     1       1.828   2.445  18.418  0.00  0.00    +0.000 C 
ATOM     25  C   UNL     1       2.239   3.187  17.166  0.00  0.00    +0.000 C 
ENDBRANCH  22  24
ENDBRANCH   1  22
TORSDOF 4
ENDMDL
MODEL 5
REMARK VINA RESULT:      -7.5      3.194      7.058
REMARK  Name = 
REMARK  6 active torsions:
REMARK  status: ('A' for Active; 'I' for Inactive)
REMARK    1  A    between atoms: C_1  and  C_2
REMARK    2  A    between atoms: C_2  and  C_3
REMARK    3  A    between atoms: C_2  and  C_4
REMARK    4  A    between atoms: C_4  and  N_5
REMARK    5  A    between atoms: C_19  and  O_20
REMARK    6  A    between atoms: C_21  and  O_22
REMARK                            x       y       z     vdW  Elec       q    Type
REMARK                         _______ _______ _______ _____ _____    ______ ____
ROOT
ATOM      1  N   UNL     1      -0.534  11.944  18.463  0.00  0.00    +0.000 NA
ATOM      2  C   UNL     1      -1.036  12.536  19.771  0.00  0.00    +0.000 C 
ATOM      3  C   UNL     1      -0.065  12.519  20.935  0.00  0.00    +0.000 C 
ATOM      4  C   UNL     1       0.053  11.062  21.271  0.00  0.00    +0.000 A 
ATOM      5  C   UNL     1      -0.164  10.599  22.560  0.00  0.00    +0.000 A 
ATOM      6  C   UNL     1      -0.125   9.242  22.796  0.00  0.00    +0.000 A 
ATOM      7  C   UNL     1       0.281   8.383  21.771  0.00  0.00    +0.000 A 
ATOM      8  C   UNL     1       0.635   8.845  20.490  0.00  0.00    +0.000 A 
ATOM      9  C   UNL     1       0.356  10.182  20.199  0.00  0.00    +0.000 A 
ATOM     10  C   UNL     1       0.515  10.839  18.814  0.00  0.00    +0.000 C 
ATOM     11  C   UNL     1       1.318   9.927  17.810  0.00  0.00    +0.000 C 
ATOM     12  C   UNL     1       1.968   8.630  18.368  0.00  0.00    +0.000 A 
ATOM     13  C   UNL     1       3.055   8.063  17.669  0.00  0.00    +0.000 A 
ATOM     14  C   UNL     1       3.707   6.886  18.119  0.00  0.00    +0.000 A 
ATOM     15  C   UNL     1       3.225   6.267  19.263  0.00  0.00    +0.000 A 
ATOM     16  C   UNL     1       2.166   6.815  19.968  0.00  0.00    +0.000 A 
ATOM     17  C   UNL     1       1.520   8.044  19.587  0.00  0.00    +0.000 A 
ENDROOT
BRANCH  15  18
ATOM     18  O   UNL     1       3.794   5.120  19.779  0.00  0.00    +0.000 OA
ATOM     19  H   UNL     1       3.260   4.815  20.534  0.00  0.00    +0.000 HD
ENDBRANCH  15  18
BRANCH  16  20
ATOM     20  O   UNL     1       1.817   6.121  21.105  0.00  0.00    +0.000 OA
ATOM     21  H   UNL     1       2.130   5.207  20.946  0.00  0.00    +0.000 HD
ENDBRANCH  16  20
BRANCH   1  22
ATOM     22  C   UNL     1      -1.810  11.756  17.714  0.00  0.00    +0.000 C 
BRANCH  22  24
ATOM     23  C   UNL     1      -3.277   9.563  17.690  0.00  0.00    +0.000 C 
ATOM     24  C   UNL     1      -2.344  10.506  16.941  0.00  0.00    +0.000 C 
ATOM     25  C   UNL     1      -2.828  10.833  15.546  0.00  0.00    +0.000 C 
ENDBRANCH  22  24
ENDBRANCH   1  22
TORSDOF 4
ENDMDL
MODEL 6
REMARK VINA RESULT:      -7.4      3.048      6.147
REMARK  Name = 
REMARK  6 active torsions:
REMARK  status: ('A' for Active; 'I' for Inactive)
REMARK    1  A    between atoms: C_1  and  C_2
REMARK    2  A    between atoms: C_2  and  C_3
REMARK    3  A    between atoms: C_2  and  C_4
REMARK    4  A    between atoms: C_4  and  N_5
REMARK    5  A    between atoms: C_19  and  O_20
REMARK    6  A    between atoms: C_21  and  O_22
REMARK                            x       y       z     vdW  Elec       q    Type
REMARK                         _______ _______ _______ _____ _____    ______ ____
ROOT
ATOM      1  N   UNL     1       1.640   9.139  18.845  0.00  0.00    +0.000 NA
ATOM      2  C   UNL     1       0.899   8.733  20.109  0.00  0.00    +0.000 C 
ATOM      3  C   UNL     1       1.662   7.865  21.090  0.00  0.00    +0.000 C 
ATOM      4  C   UNL     1       1.797   6.557  20.368  0.00  0.00    +0.000 A 
ATOM      5  C   UNL     1       1.393   5.365  20.951  0.00  0.00    +0.000 A 
ATOM      6  C   UNL     1       1.462   4.205  20.212  0.00  0.00    +0.000 A 
ATOM      7  C   UNL     1       2.076   4.230  18.957  0.00  0.00    +0.000 A 
ATOM      8  C   UNL     1       2.614   5.406  18.400  0.00  0.00    +0.000 A 
ATOM      9  C   UNL     1       2.319   6.607  19.048  0.00  0.00    +0.000 A 
ATOM     10  C   UNL     1       2.672   8.011  18.517  0.00  0.00    +0.000 C 
ATOM     11  C   UNL     1       3.677   7.953  17.304  0.00  0.00    +0.000 C 
ATOM     12  C   UNL     1       4.290   6.574  16.934  0.00  0.00    +0.000 A 
ATOM     13  C   UNL     1       5.506   6.545  16.217  0.00  0.00    +0.000 A 
ATOM     14  C   UNL     1       6.134   5.327  15.850  0.00  0.00    +0.000 A 
ATOM     15  C   UNL     1       5.500   4.138  16.183  0.00  0.00    +0.000 A 
ATOM     16  C   UNL     1       4.313   4.147  16.895  0.00  0.00    +0.000 A 
ATOM     17  C   UNL     1       3.676   5.357  17.348  0.00  0.00    +0.000 A 
ENDROOT
BRANCH  15  18
ATOM     18  O   UNL     1       6.034   2.904  15.870  0.00  0.00    +0.000 OA
ATOM     19  H   UNL     1       5.403   2.211  16.136  0.00  0.00    +0.000 HD
ENDBRANCH  15  18
BRANCH  16  20
ATOM     20  O   UNL     1       3.816   2.898  17.192  0.00  0.00    +0.000 OA
ATOM     21  H   UNL     1       3.040   3.068  17.764  0.00  0.00    +0.000 HD
ENDBRANCH  16  20
BRANCH   1  22
ATOM     22  C   UNL     1       0.518   9.599  17.978  0.00  0.00    +0.000 C 
BRANCH  22  24
ATOM     23  C   UNL     1      -0.743  11.796  18.715  0.00  0.00    +0.000 C 
ATOM     24  C   UNL     1      -0.818  10.317  18.361  0.00  0.00    +0.000 C 
ATOM     25  C   UNL     1      -1.957   9.990  17.423  0.00  0.00    +0.000 C 
ENDBRANCH  22  24
ENDBRANCH   1  22
TORSDOF 4
ENDMDL
MODEL 7
REMARK VINA RESULT:      -7.3      3.576      7.521
REMARK  Name = 
REMARK  6 active torsions:
REMARK  status: ('A' for Active; 'I' for Inactive)
REMARK    1  A    between atoms: C_1  and  C_2
REMARK    2  A    between atoms: C_2  and  C_3
REMARK    3  A    between atoms: C_2  and  C_4
REMARK    4  A    between atoms: C_4  and  N_5
REMARK    5  A    between atoms: C_19  and  O_20
REMARK    6  A    between atoms: C_21  and  O_22
REMARK                            x       y       z     vdW  Elec       q    Type
REMARK                         _______ _______ _______ _____ _____    ______ ____
ROOT
ATOM      1  N   UNL     1      -1.639  12.260  18.690  0.00  0.00    +0.000 NA
ATOM      2  C   UNL     1      -2.059  12.886  20.010  0.00  0.00    +0.000 C 
ATOM      3  C   UNL     1      -0.975  13.039  21.059  0.00  0.00    +0.000 C 
ATOM      4  C   UNL     1      -0.673  11.625  21.459  0.00  0.00    +0.000 A 
ATOM      5  C   UNL     1      -0.705  11.229  22.788  0.00  0.00    +0.000 A 
ATOM      6  C   UNL     1      -0.502   9.901  23.092  0.00  0.00    +0.000 A 
ATOM      7  C   UNL     1      -0.119   9.019  22.078  0.00  0.00    +0.000 A 
ATOM      8  C   UNL     1       0.049   9.428  20.741  0.00  0.00    +0.000 A 
ATOM      9  C   UNL     1      -0.395  10.710  20.410  0.00  0.00    +0.000 A 
ATOM     10  C   UNL     1      -0.450  11.287  18.982  0.00  0.00    +0.000 C 
ATOM     11  C   UNL     1       0.333  10.393  17.947  0.00  0.00    +0.000 C 
ATOM     12  C   UNL     1       1.168   9.205  18.500  0.00  0.00    +0.000 A 
ATOM     13  C   UNL     1       2.228   8.700  17.717  0.00  0.00    +0.000 A 
ATOM     14  C   UNL     1       3.042   7.624  18.155  0.00  0.00    +0.000 A 
ATOM     15  C   UNL     1       2.748   7.038  19.378  0.00  0.00    +0.000 A 
ATOM     16  C   UNL     1       1.719   7.526  20.165  0.00  0.00    +0.000 A 
ATOM     17  C   UNL     1       0.913   8.659  19.791  0.00  0.00    +0.000 A 
ENDROOT
BRANCH  15  18
ATOM     18  O   UNL     1       3.484   5.987  19.890  0.00  0.00    +0.000 OA
ATOM     19  H   UNL     1       3.261   5.177  19.396  0.00  0.00    +0.000 HD
ENDBRANCH  15  18
BRANCH  16  20
ATOM     20  O   UNL     1       1.564   6.878  21.370  0.00  0.00    +0.000 OA
ATOM     21  H   UNL     1       2.398   6.381  21.495  0.00  0.00    +0.000 HD
ENDBRANCH  16  20
BRANCH   1  22
ATOM     22  C   UNL     1      -2.959  11.901  18.098  0.00  0.00    +0.000 C 
BRANCH  22  24
ATOM     23  C   UNL     1      -2.679  10.728  15.751  0.00  0.00    +0.000 C 
ATOM     24  C   UNL     1      -3.339  10.738  17.124  0.00  0.00    +0.000 C 
ATOM     25  C   UNL     1      -3.338   9.381  17.790  0.00  0.00    +0.000 C 
ENDBRANCH  22  24
ENDBRANCH   1  22
TORSDOF 4
ENDMDL
MODEL 8
REMARK VINA RESULT:      -7.2      2.671      5.122
REMARK  Name = 
REMARK  6 active torsions:
REMARK  status: ('A' for Active; 'I' for Inactive)
REMARK    1  A    between atoms: C_1  and  C_2
REMARK    2  A    between atoms: C_2  and  C_3
REMARK    3  A    between atoms: C_2  and  C_4
REMARK    4  A    between atoms: C_4  and  N_5
REMARK    5  A    between atoms: C_19  and  O_20
REMARK    6  A    between atoms: C_21  and  O_22
REMARK                            x       y       z     vdW  Elec       q    Type
REMARK                         _______ _______ _______ _____ _____    ______ ____
ROOT
ATOM      1  N   UNL     1       5.777   4.962  15.832  0.00  0.00    +0.000 NA
ATOM      2  C   UNL     1       5.574   6.437  15.524  0.00  0.00    +0.000 C 
ATOM      3  C   UNL     1       5.515   7.373  16.716  0.00  0.00    +0.000 C 
ATOM      4  C   UNL     1       4.224   7.008  17.384  0.00  0.00    +0.000 A 
ATOM      5  C   UNL     1       3.264   7.967  17.674  0.00  0.00    +0.000 A 
ATOM      6  C   UNL     1       2.062   7.565  18.212  0.00  0.00    +0.000 A 
ATOM      7  C   UNL     1       1.896   6.231  18.594  0.00  0.00    +0.000 A 
ATOM      8  C   UNL     1       2.907   5.265  18.431  0.00  0.00    +0.000 A 
ATOM      9  C   UNL     1       4.017   5.631  17.667  0.00  0.00    +0.000 A 
ATOM     10  C   UNL     1       5.151   4.680  17.237  0.00  0.00    +0.000 C 
ATOM     11  C   UNL     1       5.095   3.302  18.002  0.00  0.00    +0.000 C 
ATOM     12  C   UNL     1       4.069   3.157  19.160  0.00  0.00    +0.000 A 
ATOM     13  C   UNL     1       4.300   2.178  20.150  0.00  0.00    +0.000 A 
ATOM     14  C   UNL     1       3.416   1.989  21.243  0.00  0.00    +0.000 A 
ATOM     15  C   UNL     1       2.274   2.775  21.304  0.00  0.00    +0.000 A 
ATOM     16  C   UNL     1       2.035   3.747  20.348  0.00  0.00    +0.000 A 
ATOM     17  C   UNL     1       2.940   4.020  19.261  0.00  0.00    +0.000 A 
ENDROOT
BRANCH  15  18
ATOM     18  O   UNL     1       1.356   2.665  22.329  0.00  0.00    +0.000 OA
ATOM     19  H   UNL     1       0.818   1.866  22.186  0.00  0.00    +0.000 HD
ENDBRANCH  15  18
BRANCH  16  20
ATOM     20  O   UNL     1       0.888   4.480  20.552  0.00  0.00    +0.000 OA
ATOM     21  H   UNL     1       0.304   3.891  21.072  0.00  0.00    +0.000 HD
ENDBRANCH  16  20
BRANCH   1  22
ATOM     22  C   UNL     1       5.384   4.333  14.539  0.00  0.00    +0.000 C 
BRANCH  22  24
ATOM     23  C   UNL     1       5.567   3.197  12.164  0.00  0.00    +0.000 C 
ATOM     24  C   UNL     1       6.276   3.814  13.363  0.00  0.00    +0.000 C 
ATOM     25  C   UNL     1       7.365   4.786  12.971  0.00  0.00    +0.000 C 
ENDBRANCH  22  24
ENDBRANCH   1  22
TORSDOF 4
ENDMDL
MODEL 9
REMARK VINA RESULT:      -7.0      3.165      6.604
REMARK  Name = 
REMARK  6 active torsions:
REMARK  status: ('A' for Active; 'I' for Inactive)
REMARK    1  A    between atoms: C_1  and  C_2
REMARK    2  A    between atoms: C_2  and  C_3
REMARK    3  A    between atoms: C_2  and  C_4
REMARK    4  A    between atoms: C_4  and  N_5
REMARK    5  A    between atoms: C_19  and  O_20
REMARK    6  A    between atoms: C_21  and  O_22
REMARK                            x       y       z     vdW  Elec       q    Type
REMARK                         _______ _______ _______ _____ _____    ______ ____
ROOT
ATOM      1  N   UNL     1       1.128   8.357  20.241  0.00  0.00    +0.000 NA
ATOM      2  C   UNL     1       1.467   9.238  19.050  0.00  0.00    +0.000 C 
ATOM      3  C   UNL     1       1.565   8.545  17.705  0.00  0.00    +0.000 C 
ATOM      4  C   UNL     1       2.798   7.701  17.836  0.00  0.00    +0.000 A 
ATOM      5  C   UNL     1       3.826   7.775  16.908  0.00  0.00    +0.000 A 
ATOM      6  C   UNL     1       4.970   7.039  17.121  0.00  0.00    +0.000 A 
ATOM      7  C   UNL     1       5.007   6.125  18.178  0.00  0.00    +0.000 A 
ATOM      8  C   UNL     1       3.923   5.936  19.055  0.00  0.00    +0.000 A 
ATOM      9  C   UNL     1       2.876   6.857  18.975  0.00  0.00    +0.000 A 
ATOM     10  C   UNL     1       1.679   6.924  19.945  0.00  0.00    +0.000 C 
ATOM     11  C   UNL     1       1.591   5.652  20.872  0.00  0.00    +0.000 C 
ATOM     12  C   UNL     1       2.561   4.473  20.581  0.00  0.00    +0.000 A 
ATOM     13  C   UNL     1       2.212   3.183  21.034  0.00  0.00    +0.000 A 
ATOM     14  C   UNL     1       3.040   2.055  20.801  0.00  0.00    +0.000 A 
ATOM     15  C   UNL     1       4.243   2.251  20.137  0.00  0.00    +0.000 A 
ATOM     16  C   UNL     1       4.596   3.508  19.676  0.00  0.00    +0.000 A 
ATOM     17  C   UNL     1       3.756   4.667  19.830  0.00  0.00    +0.000 A 
ENDROOT
BRANCH  15  18
ATOM     18  O   UNL     1       5.113   1.215  19.863  0.00  0.00    +0.000 OA
ATOM     19  H   UNL     1       5.054   0.997  18.915  0.00  0.00    +0.000 HD
ENDBRANCH  15  18
BRANCH  16  20
ATOM     20  O   UNL     1       5.794   3.552  19.000  0.00  0.00    +0.000 OA
ATOM     21  H   UNL     1       6.202   4.400  19.269  0.00  0.00    +0.000 HD
ENDBRANCH  16  20
BRANCH   1  22
ATOM     22  C   UNL     1       1.508   9.240  21.381  0.00  0.00    +0.000 C 
BRANCH  22  24
ATOM     23  C   UNL     1      -0.034  11.370  21.599  0.00  0.00    +0.000 C 
ATOM     24  C   UNL     1       0.619  10.169  22.271  0.00  0.00    +0.000 C 
ATOM     25  C   UNL     1      -0.329   9.404  23.166  0.00  0.00    +0.000 C 
ENDBRANCH  22  24
ENDBRANCH   1  22
TORSDOF 4
ENDMDL
