MODEL 1
REMARK VINA RESULT:      -6.5      0.000      0.000
REMARK  Name = 
REMARK  5 active torsions:
REMARK  status: ('A' for Active; 'I' for Inactive)
REMARK    1  A    between atoms: C_1  and  C_2
REMARK    2  A    between atoms: C_2  and  C_3
REMARK    3  A    between atoms: C_2  and  C_4
REMARK    4  A    between atoms: C_2  and  C_5
REMARK    5  A    between atoms: C_10  and  C_11
REMARK                            x       y       z     vdW  Elec       q    Type
REMARK                         _______ _______ _______ _____ _____    ______ ____
ROOT
ATOM      1  C   UNL     1       2.854   3.500  20.133  0.00  0.00    +0.000 C 
ATOM      2  C   UNL     1       3.849   2.961  19.106  0.00  0.00    +0.000 C 
ATOM      3  S   UNL     1       3.756   3.530  17.435  0.00  0.00    +0.000 S 
ATOM      4  O   UNL     1       2.480   3.167  16.869  0.00  0.00    +0.000 OA
ATOM      5  O   UNL     1       4.964   2.983  16.833  0.00  0.00    +0.000 OA
ATOM      6  C   UNL     1       3.869   5.307  17.519  0.00  0.00    +0.000 C 
ATOM      7  S   UNL     1       2.680   5.956  18.674  0.00  0.00    +0.000 S 
ATOM      8  O   UNL     1       1.342   5.740  18.169  0.00  0.00    +0.000 OA
ATOM      9  O   UNL     1       3.060   7.323  18.997  0.00  0.00    +0.000 OA
ATOM     10  C   UNL     1       2.860   5.033  20.188  0.00  0.00    +0.000 C 
ENDROOT
BRANCH   6  11
ATOM     11  C   UNL     1       5.302   5.748  17.781  0.00  0.00    +0.000 C 
ATOM     12  C   UNL     1       6.125   5.385  18.780  0.00  0.00    +0.000 C 
ATOM     13  C   UNL     1       7.484   5.923  18.893  0.00  0.00    +0.000 C 
ATOM     14  N   UNL     1       8.252   5.495  19.874  0.00  0.00    +0.000 NA
ATOM     15  N   UNL     1       8.897   5.078  20.721  0.00  0.00    +0.000 NA
ATOM     16  C   UNL     1       7.994   6.887  17.927  0.00  0.00    +0.000 C 
ATOM     17  C   UNL     1       7.180   7.285  16.948  0.00  0.00    +0.000 C 
ATOM     18  C   UNL     1       5.783   6.813  16.841  0.00  0.00    +0.000 C 
ATOM     19  O   UNL     1       5.025   7.333  16.030  0.00  0.00    +0.000 OA
ENDBRANCH   6  11
BRANCH   1  21
ATOM     20  C   UNL     1       1.546   1.400  19.492  0.00  0.00    +0.000 C 
ATOM     21  C   UNL     1       1.482   2.734  20.282  0.00  0.00    +0.000 C 
ATOM     22  C   UNL     1       0.249   3.479  19.765  0.00  0.00    +0.000 C 
ATOM     23  C   UNL     1       1.221   2.363  21.759  0.00  0.00    +0.000 C 
ENDBRANCH   1  21
TORSDOF 2
ENDMDL
MODEL 2
REMARK VINA RESULT:      -5.6      8.643     10.918
REMARK  Name = 
REMARK  5 active torsions:
REMARK  status: ('A' for Active; 'I' for Inactive)
REMARK    1  A    between atoms: C_1  and  C_2
REMARK    2  A    between atoms: C_2  and  C_3
REMARK    3  A    between atoms: C_2  and  C_4
REMARK    4  A    between atoms: C_2  and  C_5
REMARK    5  A    between atoms: C_10  and  C_11
REMARK                            x       y       z     vdW  Elec       q    Type
REMARK                         _______ _______ _______ _____ _____    ______ ____
ROOT
ATOM      1  C   UNL     1       1.258  15.258  18.648  0.00  0.00    +0.000 C 
ATOM      2  C   UNL     1       2.295  14.519  19.492  0.00  0.00    +0.000 C 
ATOM      3  S   UNL     1       1.996  14.293  21.220  0.00  0.00    +0.000 S 
ATOM      4  O   UNL     1       1.908  15.578  21.869  0.00  0.00    +0.000 OA
ATOM      5  O   UNL     1       3.059  13.382  21.623  0.00  0.00    +0.000 OA
ATOM      6  C   UNL     1       0.416  13.475  21.338  0.00  0.00    +0.000 C 
ATOM      7  S   UNL     1      -0.816  14.354  20.400  0.00  0.00    +0.000 S 
ATOM      8  O   UNL     1      -1.069  15.639  21.013  0.00  0.00    +0.000 OA
ATOM      9  O   UNL     1      -1.954  13.469  20.205  0.00  0.00    +0.000 OA
ATOM     10  C   UNL     1      -0.137  14.636  18.777  0.00  0.00    +0.000 C 
ENDROOT
BRANCH   6  11
ATOM     11  C   UNL     1       0.541  12.000  20.982  0.00  0.00    +0.000 C 
ATOM     12  C   UNL     1       0.972  11.445  19.836  0.00  0.00    +0.000 C 
ATOM     13  C   UNL     1       1.013   9.991  19.653  0.00  0.00    +0.000 C 
ATOM     14  N   UNL     1       1.484   9.512  18.520  0.00  0.00    +0.000 NA
ATOM     15  N   UNL     1       1.924   9.134  17.535  0.00  0.00    +0.000 NA
ATOM     16  C   UNL     1       0.575   9.087  20.708  0.00  0.00    +0.000 C 
ATOM     17  C   UNL     1       0.113   9.621  21.841  0.00  0.00    +0.000 C 
ATOM     18  C   UNL     1      -0.004  11.081  22.035  0.00  0.00    +0.000 C 
ATOM     19  O   UNL     1      -0.589  11.520  23.019  0.00  0.00    +0.000 OA
ENDBRANCH   6  11
BRANCH   1  21
ATOM     20  C   UNL     1       2.382  17.195  17.416  0.00  0.00    +0.000 C 
ATOM     21  C   UNL     1       1.390  16.828  18.552  0.00  0.00    +0.000 C 
ATOM     22  C   UNL     1       1.905  17.526  19.813  0.00  0.00    +0.000 C 
ATOM     23  C   UNL     1       0.034  17.469  18.181  0.00  0.00    +0.000 C 
ENDBRANCH   1  21
TORSDOF 2
ENDMDL
MODEL 3
REMARK VINA RESULT:      -5.6      9.496     11.889
REMARK  Name = 
REMARK  5 active torsions:
REMARK  status: ('A' for Active; 'I' for Inactive)
REMARK    1  A    between atoms: C_1  and  C_2
REMARK    2  A    between atoms: C_2  and  C_3
REMARK    3  A    between atoms: C_2  and  C_4
REMARK    4  A    between atoms: C_2  and  C_5
REMARK    5  A    between atoms: C_10  and  C_11
REMARK                            x       y       z     vdW  Elec       q    Type
REMARK                         _______ _______ _______ _____ _____    ______ ____
ROOT
ATOM      1  C   UNL     1       2.497  14.359  20.012  0.00  0.00    +0.000 C 
ATOM      2  C   UNL     1       2.105  14.756  21.434  0.00  0.00    +0.000 C 
ATOM      3  S   UNL     1       0.678  15.768  21.684  0.00  0.00    +0.000 S 
ATOM      4  O   UNL     1       0.867  17.042  21.034  0.00  0.00    +0.000 OA
ATOM      5  O   UNL     1       0.505  15.745  23.130  0.00  0.00    +0.000 OA
ATOM      6  C   UNL     1      -0.672  14.910  20.895  0.00  0.00    +0.000 C 
ATOM      7  S   UNL     1      -0.250  14.486  19.219  0.00  0.00    +0.000 S 
ATOM      8  O   UNL     1      -0.125  15.690  18.428  0.00  0.00    +0.000 OA
ATOM      9  O   UNL     1      -1.189  13.476  18.756  0.00  0.00    +0.000 OA
ATOM     10  C   UNL     1       1.341  13.683  19.265  0.00  0.00    +0.000 C 
ENDROOT
BRANCH   6  11
ATOM     11  C   UNL     1      -1.135  13.733  21.742  0.00  0.00    +0.000 C 
ATOM     12  C   UNL     1      -0.451  12.630  22.096  0.00  0.00    +0.000 C 
ATOM     13  C   UNL     1      -1.060  11.575  22.911  0.00  0.00    +0.000 C 
ATOM     14  N   UNL     1      -0.323  10.540  23.255  0.00  0.00    +0.000 NA
ATOM     15  N   UNL     1       0.357   9.672  23.556  0.00  0.00    +0.000 NA
ATOM     16  C   UNL     1      -2.442  11.676  23.362  0.00  0.00    +0.000 C 
ATOM     17  C   UNL     1      -3.146  12.748  22.994  0.00  0.00    +0.000 C 
ATOM     18  C   UNL     1      -2.585  13.799  22.118  0.00  0.00    +0.000 C 
ATOM     19  O   UNL     1      -3.318  14.673  21.669  0.00  0.00    +0.000 OA
ENDBRANCH   6  11
BRANCH   1  21
ATOM     20  C   UNL     1       4.323  16.133  20.229  0.00  0.00    +0.000 C 
ATOM     21  C   UNL     1       3.447  15.342  19.222  0.00  0.00    +0.000 C 
ATOM     22  C   UNL     1       2.743  16.386  18.353  0.00  0.00    +0.000 C 
ATOM     23  C   UNL     1       4.418  14.553  18.316  0.00  0.00    +0.000 C 
ENDBRANCH   1  21
TORSDOF 2
ENDMDL
MODEL 4
REMARK VINA RESULT:      -5.5      8.923     10.829
REMARK  Name = 
REMARK  5 active torsions:
REMARK  status: ('A' for Active; 'I' for Inactive)
REMARK    1  A    between atoms: C_1  and  C_2
REMARK    2  A    between atoms: C_2  and  C_3
REMARK    3  A    between atoms: C_2  and  C_4
REMARK    4  A    between atoms: C_2  and  C_5
REMARK    5  A    between atoms: C_10  and  C_11
REMARK                            x       y       z     vdW  Elec       q    Type
REMARK                         _______ _______ _______ _____ _____    ______ ____
ROOT
ATOM      1  C   UNL     1      -0.409  10.519  19.384  0.00  0.00    +0.000 C 
ATOM      2  C   UNL     1      -0.854   9.976  20.741  0.00  0.00    +0.000 C 
ATOM      3  S   UNL     1      -0.105  10.611  22.211  0.00  0.00    +0.000 S 
ATOM      4  O   UNL     1       1.308  10.325  22.198  0.00  0.00    +0.000 OA
ATOM      5  O   UNL     1      -0.921  10.036  23.272  0.00  0.00    +0.000 OA
ATOM      6  C   UNL     1      -0.339  12.378  22.153  0.00  0.00    +0.000 C 
ATOM      7  S   UNL     1       0.223  13.033  20.596  0.00  0.00    +0.000 S 
ATOM      8  O   UNL     1       1.660  12.893  20.499  0.00  0.00    +0.000 OA
ATOM      9  O   UNL     1      -0.331  14.369  20.440  0.00  0.00    +0.000 OA
ATOM     10  C   UNL     1      -0.520  12.046  19.312  0.00  0.00    +0.000 C 
ENDROOT
BRANCH   6  11
ATOM     11  C   UNL     1      -1.773  12.747  22.506  0.00  0.00    +0.000 C 
ATOM     12  C   UNL     1      -2.914  12.349  21.917  0.00  0.00    +0.000 C 
ATOM     13  C   UNL     1      -4.224  12.818  22.379  0.00  0.00    +0.000 C 
ATOM     14  N   UNL     1      -5.305  12.359  21.783  0.00  0.00    +0.000 NA
ATOM     15  N   UNL     1      -6.219  11.916  21.259  0.00  0.00    +0.000 NA
ATOM     16  C   UNL     1      -4.339  13.748  23.495  0.00  0.00    +0.000 C 
ATOM     17  C   UNL     1      -3.216  14.180  24.071  0.00  0.00    +0.000 C 
ATOM     18  C   UNL     1      -1.877  13.779  23.589  0.00  0.00    +0.000 C 
ATOM     19  O   UNL     1      -0.878  14.331  24.038  0.00  0.00    +0.000 OA
ENDBRANCH   6  11
BRANCH   1  21
ATOM     20  C   UNL     1       0.338   9.113  17.384  0.00  0.00    +0.000 C 
ATOM     21  C   UNL     1       0.817   9.807  18.687  0.00  0.00    +0.000 C 
ATOM     22  C   UNL     1       1.512   8.726  19.517  0.00  0.00    +0.000 C 
ATOM     23  C   UNL     1       1.886  10.842  18.272  0.00  0.00    +0.000 C 
ENDBRANCH   1  21
TORSDOF 2
ENDMDL
MODEL 5
REMARK VINA RESULT:      -5.5      9.839     11.420
REMARK  Name = 
REMARK  5 active torsions:
REMARK  status: ('A' for Active; 'I' for Inactive)
REMARK    1  A    between atoms: C_1  and  C_2
REMARK    2  A    between atoms: C_2  and  C_3
REMARK    3  A    between atoms: C_2  and  C_4
REMARK    4  A    between atoms: C_2  and  C_5
REMARK    5  A    between atoms: C_10  and  C_11
REMARK                            x       y       z     vdW  Elec       q    Type
REMARK                         _______ _______ _______ _____ _____    ______ ____
ROOT
ATOM      1  C   UNL     1      -3.837  13.864  22.144  0.00  0.00    +0.000 C 
ATOM      2  C   UNL     1      -3.165  14.352  20.862  0.00  0.00    +0.000 C 
ATOM      3  S   UNL     1      -1.447  14.768  20.893  0.00  0.00    +0.000 S 
ATOM      4  O   UNL     1      -1.229  15.861  21.809  0.00  0.00    +0.000 OA
ATOM      5  O   UNL     1      -1.129  14.965  19.486  0.00  0.00    +0.000 OA
ATOM      6  C   UNL     1      -0.607  13.321  21.510  0.00  0.00    +0.000 C 
ATOM      7  S   UNL     1      -1.347  12.769  23.033  0.00  0.00    +0.000 S 
ATOM      8  O   UNL     1      -1.111  13.748  24.071  0.00  0.00    +0.000 OA
ATOM      9  O   UNL     1      -0.904  11.406  23.284  0.00  0.00    +0.000 OA
ATOM     10  C   UNL     1      -3.104  12.664  22.755  0.00  0.00    +0.000 C 
ENDROOT
BRANCH   6  11
ATOM     11  C   UNL     1      -0.514  12.248  20.434  0.00  0.00    +0.000 C 
ATOM     12  C   UNL     1      -1.508  11.641  19.763  0.00  0.00    +0.000 C 
ATOM     13  C   UNL     1      -1.240  10.606  18.760  0.00  0.00    +0.000 C 
ATOM     14  N   UNL     1      -2.257  10.080  18.110  0.00  0.00    +0.000 NA
ATOM     15  N   UNL     1      -3.163   9.667  17.548  0.00  0.00    +0.000 NA
ATOM     16  C   UNL     1       0.122  10.186  18.457  0.00  0.00    +0.000 C 
ATOM     17  C   UNL     1       1.120  10.754  19.137  0.00  0.00    +0.000 C 
ATOM     18  C   UNL     1       0.882  11.752  20.201  0.00  0.00    +0.000 C 
ATOM     19  O   UNL     1       1.812  12.118  20.911  0.00  0.00    +0.000 OA
ENDBRANCH   6  11
BRANCH   1  21
ATOM     20  C   UNL     1      -4.665  16.276  22.312  0.00  0.00    +0.000 C 
ATOM     21  C   UNL     1      -4.445  14.959  23.104  0.00  0.00    +0.000 C 
ATOM     22  C   UNL     1      -3.585  15.327  24.315  0.00  0.00    +0.000 C 
ATOM     23  C   UNL     1      -5.830  14.520  23.627  0.00  0.00    +0.000 C 
ENDBRANCH   1  21
TORSDOF 2
ENDMDL
MODEL 6
REMARK VINA RESULT:      -5.4     11.613     13.728
REMARK  Name = 
REMARK  5 active torsions:
REMARK  status: ('A' for Active; 'I' for Inactive)
REMARK    1  A    between atoms: C_1  and  C_2
REMARK    2  A    between atoms: C_2  and  C_3
REMARK    3  A    between atoms: C_2  and  C_4
REMARK    4  A    between atoms: C_2  and  C_5
REMARK    5  A    between atoms: C_10  and  C_11
REMARK                            x       y       z     vdW  Elec       q    Type
REMARK                         _______ _______ _______ _____ _____    ______ ____
ROOT
ATOM      1  C   UNL     1      -2.142  11.879  21.799  0.00  0.00    +0.000 C 
ATOM      2  C   UNL     1      -2.421  12.182  23.270  0.00  0.00    +0.000 C 
ATOM      3  S   UNL     1      -2.512  13.866  23.801  0.00  0.00    +0.000 S 
ATOM      4  O   UNL     1      -1.244  14.515  23.572  0.00  0.00    +0.000 OA
ATOM      5  O   UNL     1      -2.999  13.755  25.169  0.00  0.00    +0.000 OA
ATOM      6  C   UNL     1      -3.750  14.634  22.773  0.00  0.00    +0.000 C 
ATOM      7  S   UNL     1      -3.410  14.333  21.052  0.00  0.00    +0.000 S 
ATOM      8  O   UNL     1      -2.197  15.021  20.667  0.00  0.00    +0.000 OA
ATOM      9  O   UNL     1      -4.616  14.628  20.293  0.00  0.00    +0.000 OA
ATOM     10  C   UNL     1      -3.138  12.581  20.869  0.00  0.00    +0.000 C 
ENDROOT
BRANCH   6  11
ATOM     11  C   UNL     1      -5.149  14.230  23.216  0.00  0.00    +0.000 C 
ATOM     12  C   UNL     1      -5.704  13.005  23.236  0.00  0.00    +0.000 C 
ATOM     13  C   UNL     1      -7.084  12.792  23.682  0.00  0.00    +0.000 C 
ATOM     14  N   UNL     1      -7.553  11.562  23.715  0.00  0.00    +0.000 NA
ATOM     15  N   UNL     1      -7.915  10.479  23.756  0.00  0.00    +0.000 NA
ATOM     16  C   UNL     1      -7.917  13.908  24.112  0.00  0.00    +0.000 C 
ATOM     17  C   UNL     1      -7.393  15.135  24.067  0.00  0.00    +0.000 C 
ATOM     18  C   UNL     1      -6.028  15.394  23.561  0.00  0.00    +0.000 C 
ATOM     19  O   UNL     1      -5.655  16.547  23.380  0.00  0.00    +0.000 OA
ENDBRANCH   6  11
BRANCH   1  21
ATOM     20  C   UNL     1       0.078  10.680  22.208  0.00  0.00    +0.000 C 
ATOM     21  C   UNL     1      -0.630  11.768  21.357  0.00  0.00    +0.000 C 
ATOM     22  C   UNL     1       0.200  13.043  21.516  0.00  0.00    +0.000 C 
ATOM     23  C   UNL     1      -0.523  11.317  19.884  0.00  0.00    +0.000 C 
ENDBRANCH   1  21
TORSDOF 2
ENDMDL
MODEL 7
REMARK VINA RESULT:      -5.2      9.910     11.783
REMARK  Name = 
REMARK  5 active torsions:
REMARK  status: ('A' for Active; 'I' for Inactive)
REMARK    1  A    between atoms: C_1  and  C_2
REMARK    2  A    between atoms: C_2  and  C_3
REMARK    3  A    between atoms: C_2  and  C_4
REMARK    4  A    between atoms: C_2  and  C_5
REMARK    5  A    between atoms: C_10  and  C_11
REMARK                            x       y       z     vdW  Elec       q    Type
REMARK                         _______ _______ _______ _____ _____    ______ ____
ROOT
ATOM      1  C   UNL     1      -2.487  15.296  21.171  0.00  0.00    +0.000 C 
ATOM      2  C   UNL     1      -1.017  14.931  20.969  0.00  0.00    +0.000 C 
ATOM      3  S   UNL     1      -0.114  14.219  22.312  0.00  0.00    +0.000 S 
ATOM      4  O   UNL     1      -0.066  15.150  23.412  0.00  0.00    +0.000 OA
ATOM      5  O   UNL     1       1.139  13.814  21.689  0.00  0.00    +0.000 OA
ATOM      6  C   UNL     1      -1.039  12.779  22.812  0.00  0.00    +0.000 C 
ATOM      7  S   UNL     1      -2.745  13.199  23.101  0.00  0.00    +0.000 S 
ATOM      8  O   UNL     1      -2.844  14.066  24.256  0.00  0.00    +0.000 OA
ATOM      9  O   UNL     1      -3.519  11.968  23.120  0.00  0.00    +0.000 OA
ATOM     10  C   UNL     1      -3.311  14.106  21.676  0.00  0.00    +0.000 C 
ENDROOT
BRANCH   6  11
ATOM     11  C   UNL     1      -0.834  11.634  21.830  0.00  0.00    +0.000 C 
ATOM     12  C   UNL     1      -1.189  11.563  20.535  0.00  0.00    +0.000 C 
ATOM     13  C   UNL     1      -0.928  10.367  19.729  0.00  0.00    +0.000 C 
ATOM     14  N   UNL     1      -1.265  10.378  18.456  0.00  0.00    +0.000 NA
ATOM     15  N   UNL     1      -1.547  10.436  17.350  0.00  0.00    +0.000 NA
ATOM     16  C   UNL     1      -0.279   9.197  20.308  0.00  0.00    +0.000 C 
ATOM     17  C   UNL     1       0.050   9.237  21.600  0.00  0.00    +0.000 C 
ATOM     18  C   UNL     1      -0.258  10.401  22.458  0.00  0.00    +0.000 C 
ATOM     19  O   UNL     1      -0.090  10.325  23.670  0.00  0.00    +0.000 OA
ENDBRANCH   6  11
BRANCH   1  21
ATOM     20  C   UNL     1      -3.144  17.687  20.552  0.00  0.00    +0.000 C 
ATOM     21  C   UNL     1      -2.803  16.738  21.732  0.00  0.00    +0.000 C 
ATOM     22  C   UNL     1      -1.667  17.410  22.507  0.00  0.00    +0.000 C 
ATOM     23  C   UNL     1      -4.045  16.708  22.650  0.00  0.00    +0.000 C 
ENDBRANCH   1  21
TORSDOF 2
ENDMDL
MODEL 8
REMARK VINA RESULT:      -5.2     10.578     11.960
REMARK  Name = 
REMARK  5 active torsions:
REMARK  status: ('A' for Active; 'I' for Inactive)
REMARK    1  A    between atoms: C_1  and  C_2
REMARK    2  A    between atoms: C_2  and  C_3
REMARK    3  A    between atoms: C_2  and  C_4
REMARK    4  A    between atoms: C_2  and  C_5
REMARK    5  A    between atoms: C_10  and  C_11
REMARK                            x       y       z     vdW  Elec       q    Type
REMARK                         _______ _______ _______ _____ _____    ______ ____
ROOT
ATOM      1  C   UNL     1      -5.164  13.290  23.064  0.00  0.00    +0.000 C 
ATOM      2  C   UNL     1      -4.912  12.553  21.750  0.00  0.00    +0.000 C 
ATOM      3  S   UNL     1      -4.285  13.454  20.364  0.00  0.00    +0.000 S 
ATOM      4  O   UNL     1      -5.227  14.478  19.984  0.00  0.00    +0.000 OA
ATOM      5  O   UNL     1      -3.973  12.405  19.402  0.00  0.00    +0.000 OA
ATOM      6  C   UNL     1      -2.782  14.231  20.928  0.00  0.00    +0.000 C 
ATOM      7  S   UNL     1      -3.071  15.136  22.433  0.00  0.00    +0.000 S 
ATOM      8  O   UNL     1      -3.938  16.263  22.164  0.00  0.00    +0.000 OA
ATOM      9  O   UNL     1      -1.783  15.414  23.049  0.00  0.00    +0.000 OA
ATOM     10  C   UNL     1      -3.918  14.038  23.552  0.00  0.00    +0.000 C 
ENDROOT
BRANCH   6  11
ATOM     11  C   UNL     1      -1.648  13.219  21.013  0.00  0.00    +0.000 C 
ATOM     12  C   UNL     1      -1.394  12.319  21.980  0.00  0.00    +0.000 C 
ATOM     13  C   UNL     1      -0.237  11.422  21.912  0.00  0.00    +0.000 C 
ATOM     14  N   UNL     1      -0.069  10.536  22.872  0.00  0.00    +0.000 NA
ATOM     15  N   UNL     1       0.027   9.764  23.709  0.00  0.00    +0.000 NA
ATOM     16  C   UNL     1       0.695  11.479  20.794  0.00  0.00    +0.000 C 
ATOM     17  C   UNL     1       0.478  12.388  19.842  0.00  0.00    +0.000 C 
ATOM     18  C   UNL     1      -0.641  13.352  19.910  0.00  0.00    +0.000 C 
ATOM     19  O   UNL     1      -0.700  14.274  19.104  0.00  0.00    +0.000 OA
ENDBRANCH   6  11
BRANCH   1  21
ATOM     20  C   UNL     1      -7.410  13.122  24.273  0.00  0.00    +0.000 C 
ATOM     21  C   UNL     1      -6.582  13.956  23.259  0.00  0.00    +0.000 C 
ATOM     22  C   UNL     1      -7.439  14.068  21.996  0.00  0.00    +0.000 C 
ATOM     23  C   UNL     1      -6.442  15.373  23.860  0.00  0.00    +0.000 C 
ENDBRANCH   1  21
TORSDOF 2
ENDMDL
MODEL 9
REMARK VINA RESULT:      -5.2     10.333     11.506
REMARK  Name = 
REMARK  5 active torsions:
REMARK  status: ('A' for Active; 'I' for Inactive)
REMARK    1  A    between atoms: C_1  and  C_2
REMARK    2  A    between atoms: C_2  and  C_3
REMARK    3  A    between atoms: C_2  and  C_4
REMARK    4  A    between atoms: C_2  and  C_5
REMARK    5  A    between atoms: C_10  and  C_11
REMARK                            x       y       z     vdW  Elec       q    Type
REMARK                         _______ _______ _______ _____ _____    ______ ____
ROOT
ATOM      1  C   UNL     1       6.238  15.227  19.724  0.00  0.00    +0.000 C 
ATOM      2  C   UNL     1       7.187  15.257  18.527  0.00  0.00    +0.000 C 
ATOM      3  S   UNL     1       8.722  16.123  18.666  0.00  0.00    +0.000 S 
ATOM      4  O   UNL     1       8.470  17.521  18.913  0.00  0.00    +0.000 OA
ATOM      5  O   UNL     1       9.424  15.747  17.446  0.00  0.00    +0.000 OA
ATOM      6  C   UNL     1       9.548  15.425  20.084  0.00  0.00    +0.000 C 
ATOM      7  S   UNL     1       8.472  15.430  21.501  0.00  0.00    +0.000 S 
ATOM      8  O   UNL     1       8.216  16.792  21.914  0.00  0.00    +0.000 OA
ATOM      9  O   UNL     1       9.026  14.523  22.495  0.00  0.00    +0.000 OA
ATOM     10  C   UNL     1       6.927  14.704  20.990  0.00  0.00    +0.000 C 
ENDROOT
BRANCH   6  11
ATOM     11  C   UNL     1      10.139  14.062  19.750  0.00  0.00    +0.000 C 
ATOM     12  C   UNL     1       9.510  12.881  19.621  0.00  0.00    +0.000 C 
ATOM     13  C   UNL     1      10.240  11.649  19.310  0.00  0.00    +0.000 C 
ATOM     14  N   UNL     1       9.558  10.533  19.157  0.00  0.00    +0.000 NA
ATOM     15  N   UNL     1       8.929   9.590  19.005  0.00  0.00    +0.000 NA
ATOM     16  C   UNL     1      11.688  11.655  19.138  0.00  0.00    +0.000 C 
ATOM     17  C   UNL     1      12.333  12.812  19.296  0.00  0.00    +0.000 C 
ATOM     18  C   UNL     1      11.637  14.060  19.674  0.00  0.00    +0.000 C 
ATOM     19  O   UNL     1      12.289  15.054  19.972  0.00  0.00    +0.000 OA
ENDBRANCH   6  11
BRANCH   1  21
ATOM     20  C   UNL     1       4.443  16.578  18.506  0.00  0.00    +0.000 C 
ATOM     21  C   UNL     1       5.197  16.407  19.851  0.00  0.00    +0.000 C 
ATOM     22  C   UNL     1       5.789  17.778  20.187  0.00  0.00    +0.000 C 
ATOM     23  C   UNL     1       4.129  16.081  20.919  0.00  0.00    +0.000 C 
ENDBRANCH   1  21
TORSDOF 2
ENDMDL
