MODEL 1
REMARK VINA RESULT:      -9.7      0.000      0.000
REMARK  Name = 
REMARK  6 active torsions:
REMARK  status: ('A' for Active; 'I' for Inactive)
REMARK    1  A    between atoms: C_2  and  C_11
REMARK    2  A    between atoms: N_3  and  C_4
REMARK    3  A    between atoms: C_4  and  C_5
REMARK    4  A    between atoms: C_13  and  C_14
REMARK    5  A    between atoms: C_19  and  C_20
REMARK    6  A    between atoms: N_22  and  C_23
REMARK                            x       y       z     vdW  Elec       q    Type
REMARK                         _______ _______ _______ _____ _____    ______ ____
ROOT
ATOM      1  C   UNL     1       4.318   5.077  19.137  0.00  0.00    +0.000 A 
ATOM      2  C   UNL     1       3.732   3.905  19.610  0.00  0.00    +0.000 A 
ATOM      3  C   UNL     1       2.491   3.976  20.242  0.00  0.00    +0.000 A 
ATOM      4  C   UNL     1       1.891   5.229  20.365  0.00  0.00    +0.000 A 
ATOM      5  C   UNL     1       2.545   6.356  19.860  0.00  0.00    +0.000 A 
ATOM      6  N   UNL     1       3.759   6.318  19.245  0.00  0.00    +0.000 NA
ENDROOT
BRANCH   1   8
ATOM      7  O   UNL     1       6.542   4.278  18.921  0.00  0.00    +0.000 OA
ATOM      8  C   UNL     1       5.642   4.962  18.444  0.00  0.00    +0.000 C 
ATOM      9  N   UNL     1       5.767   5.663  17.268  0.00  0.00    +0.000 N 
ATOM     10  H   UNL     1       5.044   6.329  17.027  0.00  0.00    +0.000 HD
BRANCH   9  11
ATOM     11  C   UNL     1       7.009   5.677  16.526  0.00  0.00    +0.000 C 
BRANCH  11  12
ATOM     12  C   UNL     1       6.865   5.094  15.140  0.00  0.00    +0.000 A 
ATOM     13  C   UNL     1       5.821   4.218  14.847  0.00  0.00    +0.000 A 
ATOM     14  C   UNL     1       5.707   3.715  13.554  0.00  0.00    +0.000 A 
ATOM     15  C   UNL     1       6.637   4.089  12.593  0.00  0.00    +0.000 A 
ATOM     16  C   UNL     1       7.656   4.948  12.971  0.00  0.00    +0.000 A 
ATOM     17  N   UNL     1       7.794   5.453  14.217  0.00  0.00    +0.000 NA
ENDBRANCH  11  12
ENDBRANCH   9  11
ENDBRANCH   1   8
BRANCH   3  18
ATOM     18  C   UNL     1       1.807   2.745  20.777  0.00  0.00    +0.000 C 
ATOM     19  F   UNL     1       1.931   1.662  19.963  0.00  0.00    +0.000 F 
ATOM     20  F   UNL     1       2.300   2.365  21.986  0.00  0.00    +0.000 F 
ATOM     21  F   UNL     1       0.471   2.932  20.953  0.00  0.00    +0.000 F 
ENDBRANCH   3  18
BRANCH   5  22
ATOM     22  C   UNL     1       1.855   7.683  19.992  0.00  0.00    +0.000 C 
ATOM     23  O   UNL     1       1.794   8.400  18.997  0.00  0.00    +0.000 OA
ATOM     24  N   UNL     1       1.382   7.993  21.255  0.00  0.00    +0.000 N 
ATOM     25  H   UNL     1       1.624   7.340  21.993  0.00  0.00    +0.000 HD
BRANCH  24  26
ATOM     26  C   UNL     1       0.699   9.180  21.617  0.00  0.00    +0.000 A 
ATOM     27  C   UNL     1       0.848  10.385  20.923  0.00  0.00    +0.000 A 
ATOM     28  C   UNL     1       0.173  11.539  21.330  0.00  0.00    +0.000 A 
ATOM     29  C   UNL     1      -0.665  11.501  22.438  0.00  0.00    +0.000 A 
ATOM     30  C   UNL     1      -0.839  10.301  23.125  0.00  0.00    +0.000 A 
ATOM     31  C   UNL     1      -0.172   9.142  22.711  0.00  0.00    +0.000 A 
ENDBRANCH  24  26
ENDBRANCH   5  22
TORSDOF 6
ENDMDL
MODEL 2
REMARK VINA RESULT:      -9.6      0.154      1.164
REMARK  Name = 
REMARK  6 active torsions:
REMARK  status: ('A' for Active; 'I' for Inactive)
REMARK    1  A    between atoms: C_2  and  C_11
REMARK    2  A    between atoms: N_3  and  C_4
REMARK    3  A    between atoms: C_4  and  C_5
REMARK    4  A    between atoms: C_13  and  C_14
REMARK    5  A    between atoms: C_19  and  C_20
REMARK    6  A    between atoms: N_22  and  C_23
REMARK                            x       y       z     vdW  Elec       q    Type
REMARK                         _______ _______ _______ _____ _____    ______ ____
ROOT
ATOM      1  C   UNL     1       4.258   5.119  19.101  0.00  0.00    +0.000 A 
ATOM      2  C   UNL     1       3.642   3.940  19.514  0.00  0.00    +0.000 A 
ATOM      3  C   UNL     1       2.390   4.008  20.125  0.00  0.00    +0.000 A 
ATOM      4  C   UNL     1       1.810   5.266  20.287  0.00  0.00    +0.000 A 
ATOM      5  C   UNL     1       2.494   6.401  19.842  0.00  0.00    +0.000 A 
ATOM      6  N   UNL     1       3.719   6.365  19.250  0.00  0.00    +0.000 NA
ENDROOT
BRANCH   1   8
ATOM      7  O   UNL     1       6.499   4.355  18.939  0.00  0.00    +0.000 OA
ATOM      8  C   UNL     1       5.594   5.008  18.430  0.00  0.00    +0.000 C 
ATOM      9  N   UNL     1       5.722   5.678  17.237  0.00  0.00    +0.000 N 
ATOM     10  H   UNL     1       4.992   6.324  16.966  0.00  0.00    +0.000 HD
BRANCH   9  11
ATOM     11  C   UNL     1       6.974   5.693  16.511  0.00  0.00    +0.000 C 
BRANCH  11  12
ATOM     12  C   UNL     1       6.852   5.102  15.126  0.00  0.00    +0.000 A 
ATOM     13  C   UNL     1       5.828   4.204  14.829  0.00  0.00    +0.000 A 
ATOM     14  C   UNL     1       5.732   3.694  13.538  0.00  0.00    +0.000 A 
ATOM     15  C   UNL     1       6.661   4.083  12.582  0.00  0.00    +0.000 A 
ATOM     16  C   UNL     1       7.660   4.965  12.962  0.00  0.00    +0.000 A 
ATOM     17  N   UNL     1       7.779   5.477  14.208  0.00  0.00    +0.000 NA
ENDBRANCH  11  12
ENDBRANCH   9  11
ENDBRANCH   1   8
BRANCH   3  18
ATOM     18  C   UNL     1       1.674   2.769  20.595  0.00  0.00    +0.000 C 
ATOM     19  F   UNL     1       1.917   2.467  21.898  0.00  0.00    +0.000 F 
ATOM     20  F   UNL     1       0.322   2.881  20.480  0.00  0.00    +0.000 F 
ATOM     21  F   UNL     1       2.025   1.667  19.881  0.00  0.00    +0.000 F 
ENDBRANCH   3  18
BRANCH   5  22
ATOM     22  C   UNL     1       1.825   7.733  20.015  0.00  0.00    +0.000 C 
ATOM     23  O   UNL     1       1.784   8.485  19.046  0.00  0.00    +0.000 OA
ATOM     24  N   UNL     1       1.348   8.007  21.286  0.00  0.00    +0.000 N 
ATOM     25  H   UNL     1       1.574   7.325  22.002  0.00  0.00    +0.000 HD
BRANCH  24  26
ATOM     26  C   UNL     1       0.681   9.192  21.684  0.00  0.00    +0.000 A 
ATOM     27  C   UNL     1      -0.251   9.225  22.727  0.00  0.00    +0.000 A 
ATOM     28  C   UNL     1      -0.905  10.412  23.071  0.00  0.00    +0.000 A 
ATOM     29  C   UNL     1      -0.630  11.584  22.376  0.00  0.00    +0.000 A 
ATOM     30  C   UNL     1       0.313  11.568  21.350  0.00  0.00    +0.000 A 
ATOM     31  C   UNL     1       0.976  10.383  21.013  0.00  0.00    +0.000 A 
ENDBRANCH  24  26
ENDBRANCH   5  22
TORSDOF 6
ENDMDL
MODEL 3
REMARK VINA RESULT:      -9.3      1.616      1.914
REMARK  Name = 
REMARK  6 active torsions:
REMARK  status: ('A' for Active; 'I' for Inactive)
REMARK    1  A    between atoms: C_2  and  C_11
REMARK    2  A    between atoms: N_3  and  C_4
REMARK    3  A    between atoms: C_4  and  C_5
REMARK    4  A    between atoms: C_13  and  C_14
REMARK    5  A    between atoms: C_19  and  C_20
REMARK    6  A    between atoms: N_22  and  C_23
REMARK                            x       y       z     vdW  Elec       q    Type
REMARK                         _______ _______ _______ _____ _____    ______ ____
ROOT
ATOM      1  C   UNL     1       4.267   5.074  19.019  0.00  0.00    +0.000 A 
ATOM      2  C   UNL     1       3.560   3.899  19.270  0.00  0.00    +0.000 A 
ATOM      3  C   UNL     1       2.260   3.984  19.766  0.00  0.00    +0.000 A 
ATOM      4  C   UNL     1       1.725   5.255  19.984  0.00  0.00    +0.000 A 
ATOM      5  C   UNL     1       2.501   6.383  19.704  0.00  0.00    +0.000 A 
ATOM      6  N   UNL     1       3.775   6.330  19.226  0.00  0.00    +0.000 NA
ENDROOT
BRANCH   1   8
ATOM      7  O   UNL     1       6.598   4.666  19.199  0.00  0.00    +0.000 OA
ATOM      8  C   UNL     1       5.655   4.946  18.467  0.00  0.00    +0.000 C 
ATOM      9  N   UNL     1       5.784   5.163  17.115  0.00  0.00    +0.000 N 
ATOM     10  H   UNL     1       4.994   5.547  16.612  0.00  0.00    +0.000 HD
BRANCH   9  11
ATOM     11  C   UNL     1       7.075   5.119  16.464  0.00  0.00    +0.000 C 
BRANCH  11  12
ATOM     12  C   UNL     1       6.975   4.787  14.993  0.00  0.00    +0.000 A 
ATOM     13  C   UNL     1       6.054   3.843  14.543  0.00  0.00    +0.000 A 
ATOM     14  C   UNL     1       5.974   3.576  13.179  0.00  0.00    +0.000 A 
ATOM     15  C   UNL     1       6.818   4.249  12.304  0.00  0.00    +0.000 A 
ATOM     16  C   UNL     1       7.718   5.158  12.834  0.00  0.00    +0.000 A 
ATOM     17  N   UNL     1       7.820   5.438  14.153  0.00  0.00    +0.000 NA
ENDBRANCH  11  12
ENDBRANCH   9  11
ENDBRANCH   1   8
BRANCH   3  18
ATOM     18  C   UNL     1       1.445   2.752  20.059  0.00  0.00    +0.000 C 
ATOM     19  F   UNL     1       1.326   2.486  21.388  0.00  0.00    +0.000 F 
ATOM     20  F   UNL     1       0.175   2.848  19.580  0.00  0.00    +0.000 F 
ATOM     21  F   UNL     1       1.979   1.634  19.498  0.00  0.00    +0.000 F 
ENDBRANCH   3  18
BRANCH   5  22
ATOM     22  C   UNL     1       1.881   7.731  19.930  0.00  0.00    +0.000 C 
ATOM     23  O   UNL     1       1.488   8.000  21.062  0.00  0.00    +0.000 OA
ATOM     24  N   UNL     1       1.774   8.541  18.812  0.00  0.00    +0.000 N 
ATOM     25  H   UNL     1       2.038   8.116  17.929  0.00  0.00    +0.000 HD
BRANCH  24  26
ATOM     26  C   UNL     1       1.230   9.848  18.783  0.00  0.00    +0.000 A 
ATOM     27  C   UNL     1       1.992  10.982  18.477  0.00  0.00    +0.000 A 
ATOM     28  C   UNL     1       1.420  12.257  18.485  0.00  0.00    +0.000 A 
ATOM     29  C   UNL     1       0.075  12.414  18.796  0.00  0.00    +0.000 A 
ATOM     30  C   UNL     1      -0.699  11.291  19.081  0.00  0.00    +0.000 A 
ATOM     31  C   UNL     1      -0.130  10.013  19.062  0.00  0.00    +0.000 A 
ENDBRANCH  24  26
ENDBRANCH   5  22
TORSDOF 6
ENDMDL
MODEL 4
REMARK VINA RESULT:      -9.0      1.668      1.872
REMARK  Name = 
REMARK  6 active torsions:
REMARK  status: ('A' for Active; 'I' for Inactive)
REMARK    1  A    between atoms: C_2  and  C_11
REMARK    2  A    between atoms: N_3  and  C_4
REMARK    3  A    between atoms: C_4  and  C_5
REMARK    4  A    between atoms: C_13  and  C_14
REMARK    5  A    between atoms: C_19  and  C_20
REMARK    6  A    between atoms: N_22  and  C_23
REMARK                            x       y       z     vdW  Elec       q    Type
REMARK                         _______ _______ _______ _____ _____    ______ ____
ROOT
ATOM      1  C   UNL     1       4.417   5.587  18.654  0.00  0.00    +0.000 A 
ATOM      2  C   UNL     1       3.735   4.640  19.415  0.00  0.00    +0.000 A 
ATOM      3  C   UNL     1       2.452   4.935  19.874  0.00  0.00    +0.000 A 
ATOM      4  C   UNL     1       1.907   6.175  19.538  0.00  0.00    +0.000 A 
ATOM      5  C   UNL     1       2.656   7.068  18.767  0.00  0.00    +0.000 A 
ATOM      6  N   UNL     1       3.913   6.811  18.313  0.00  0.00    +0.000 NA
ENDROOT
BRANCH   1   8
ATOM      7  O   UNL     1       6.681   4.942  18.949  0.00  0.00    +0.000 OA
ATOM      8  C   UNL     1       5.786   5.230  18.161  0.00  0.00    +0.000 C 
ATOM      9  N   UNL     1       5.955   5.251  16.797  0.00  0.00    +0.000 N 
ATOM     10  H   UNL     1       5.223   5.654  16.226  0.00  0.00    +0.000 HD
BRANCH   9  11
ATOM     11  C   UNL     1       7.241   4.973  16.192  0.00  0.00    +0.000 C 
BRANCH  11  12
ATOM     12  C   UNL     1       7.144   4.729  14.704  0.00  0.00    +0.000 A 
ATOM     13  C   UNL     1       6.229   3.806  14.198  0.00  0.00    +0.000 A 
ATOM     14  C   UNL     1       6.152   3.620  12.820  0.00  0.00    +0.000 A 
ATOM     15  C   UNL     1       6.991   4.349  11.988  0.00  0.00    +0.000 A 
ATOM     16  C   UNL     1       7.885   5.232  12.571  0.00  0.00    +0.000 A 
ATOM     17  N   UNL     1       7.984   5.434  13.904  0.00  0.00    +0.000 NA
ENDBRANCH  11  12
ENDBRANCH   9  11
ENDBRANCH   1   8
BRANCH   3  18
ATOM     18  C   UNL     1       1.665   3.954  20.702  0.00  0.00    +0.000 C 
ATOM     19  F   UNL     1       1.770   2.671  20.263  0.00  0.00    +0.000 F 
ATOM     20  F   UNL     1       2.066   3.939  22.003  0.00  0.00    +0.000 F 
ATOM     21  F   UNL     1       0.336   4.239  20.718  0.00  0.00    +0.000 F 
ENDBRANCH   3  18
BRANCH   5  22
ATOM     22  C   UNL     1       2.025   8.382  18.409  0.00  0.00    +0.000 C 
ATOM     23  O   UNL     1       2.291   8.867  17.313  0.00  0.00    +0.000 OA
ATOM     24  N   UNL     1       1.222   8.950  19.384  0.00  0.00    +0.000 N 
ATOM     25  H   UNL     1       1.207   8.475  20.280  0.00  0.00    +0.000 HD
BRANCH  24  26
ATOM     26  C   UNL     1       0.523  10.177  19.271  0.00  0.00    +0.000 A 
ATOM     27  C   UNL     1      -0.804  10.259  18.836  0.00  0.00    +0.000 A 
ATOM     28  C   UNL     1      -1.448  11.493  18.715  0.00  0.00    +0.000 A 
ATOM     29  C   UNL     1      -0.771  12.665  19.033  0.00  0.00    +0.000 A 
ATOM     30  C   UNL     1       0.544  12.595  19.488  0.00  0.00    +0.000 A 
ATOM     31  C   UNL     1       1.185  11.359  19.620  0.00  0.00    +0.000 A 
ENDBRANCH  24  26
ENDBRANCH   5  22
TORSDOF 6
ENDMDL
MODEL 5
REMARK VINA RESULT:      -9.0      0.597      1.165
REMARK  Name = 
REMARK  6 active torsions:
REMARK  status: ('A' for Active; 'I' for Inactive)
REMARK    1  A    between atoms: C_2  and  C_11
REMARK    2  A    between atoms: N_3  and  C_4
REMARK    3  A    between atoms: C_4  and  C_5
REMARK    4  A    between atoms: C_13  and  C_14
REMARK    5  A    between atoms: C_19  and  C_20
REMARK    6  A    between atoms: N_22  and  C_23
REMARK                            x       y       z     vdW  Elec       q    Type
REMARK                         _______ _______ _______ _____ _____    ______ ____
ROOT
ATOM      1  C   UNL     1       4.420   5.054  18.972  0.00  0.00    +0.000 A 
ATOM      2  C   UNL     1       3.842   3.881  19.453  0.00  0.00    +0.000 A 
ATOM      3  C   UNL     1       2.611   3.950  20.106  0.00  0.00    +0.000 A 
ATOM      4  C   UNL     1       2.013   5.203  20.241  0.00  0.00    +0.000 A 
ATOM      5  C   UNL     1       2.658   6.331  19.728  0.00  0.00    +0.000 A 
ATOM      6  N   UNL     1       3.862   6.295  19.093  0.00  0.00    +0.000 NA
ENDROOT
BRANCH   1   8
ATOM      7  O   UNL     1       6.725   4.507  18.834  0.00  0.00    +0.000 OA
ATOM      8  C   UNL     1       5.732   4.941  18.258  0.00  0.00    +0.000 C 
ATOM      9  N   UNL     1       5.737   5.352  16.946  0.00  0.00    +0.000 N 
ATOM     10  H   UNL     1       4.928   5.847  16.593  0.00  0.00    +0.000 HD
BRANCH   9  11
ATOM     11  C   UNL     1       6.950   5.341  16.156  0.00  0.00    +0.000 C 
BRANCH  11  12
ATOM     12  C   UNL     1       6.731   4.810  14.759  0.00  0.00    +0.000 A 
ATOM     13  C   UNL     1       7.600   5.160  13.726  0.00  0.00    +0.000 A 
ATOM     14  C   UNL     1       7.380   4.638  12.455  0.00  0.00    +0.000 A 
ATOM     15  C   UNL     1       6.300   3.791  12.245  0.00  0.00    +0.000 A 
ATOM     16  C   UNL     1       5.472   3.508  13.319  0.00  0.00    +0.000 A 
ATOM     17  N   UNL     1       5.659   4.000  14.565  0.00  0.00    +0.000 NA
ENDBRANCH  11  12
ENDBRANCH   9  11
ENDBRANCH   1   8
BRANCH   3  18
ATOM     18  C   UNL     1       1.936   2.718  20.649  0.00  0.00    +0.000 C 
ATOM     19  F   UNL     1       2.469   2.284  21.823  0.00  0.00    +0.000 F 
ATOM     20  F   UNL     1       0.612   2.919  20.888  0.00  0.00    +0.000 F 
ATOM     21  F   UNL     1       2.011   1.667  19.790  0.00  0.00    +0.000 F 
ENDBRANCH   3  18
BRANCH   5  22
ATOM     22  C   UNL     1       1.971   7.657  19.874  0.00  0.00    +0.000 C 
ATOM     23  O   UNL     1       1.968   8.413  18.906  0.00  0.00    +0.000 OA
ATOM     24  N   UNL     1       1.432   7.922  21.122  0.00  0.00    +0.000 N 
ATOM     25  H   UNL     1       1.630   7.239  21.845  0.00  0.00    +0.000 HD
BRANCH  24  26
ATOM     26  C   UNL     1       0.737   9.099  21.492  0.00  0.00    +0.000 A 
ATOM     27  C   UNL     1       0.824  10.294  20.769  0.00  0.00    +0.000 A 
ATOM     28  C   UNL     1       0.141  11.440  21.185  0.00  0.00    +0.000 A 
ATOM     29  C   UNL     1      -0.644  11.404  22.331  0.00  0.00    +0.000 A 
ATOM     30  C   UNL     1      -0.756  10.214  23.048  0.00  0.00    +0.000 A 
ATOM     31  C   UNL     1      -0.082   9.064  22.626  0.00  0.00    +0.000 A 
ENDBRANCH  24  26
ENDBRANCH   5  22
TORSDOF 6
ENDMDL
MODEL 6
REMARK VINA RESULT:      -8.9      1.687      2.030
REMARK  Name = 
REMARK  6 active torsions:
REMARK  status: ('A' for Active; 'I' for Inactive)
REMARK    1  A    between atoms: C_2  and  C_11
REMARK    2  A    between atoms: N_3  and  C_4
REMARK    3  A    between atoms: C_4  and  C_5
REMARK    4  A    between atoms: C_13  and  C_14
REMARK    5  A    between atoms: C_19  and  C_20
REMARK    6  A    between atoms: N_22  and  C_23
REMARK                            x       y       z     vdW  Elec       q    Type
REMARK                         _______ _______ _______ _____ _____    ______ ____
ROOT
ATOM      1  C   UNL     1       4.413   5.736  18.620  0.00  0.00    +0.000 A 
ATOM      2  C   UNL     1       3.735   4.781  19.374  0.00  0.00    +0.000 A 
ATOM      3  C   UNL     1       2.440   5.058  19.814  0.00  0.00    +0.000 A 
ATOM      4  C   UNL     1       1.883   6.289  19.466  0.00  0.00    +0.000 A 
ATOM      5  C   UNL     1       2.630   7.191  18.703  0.00  0.00    +0.000 A 
ATOM      6  N   UNL     1       3.897   6.950  18.268  0.00  0.00    +0.000 NA
ENDROOT
BRANCH   1   8
ATOM      7  O   UNL     1       6.739   5.385  18.929  0.00  0.00    +0.000 OA
ATOM      8  C   UNL     1       5.794   5.396  18.147  0.00  0.00    +0.000 C 
ATOM      9  N   UNL     1       5.915   5.110  16.808  0.00  0.00    +0.000 N 
ATOM     10  H   UNL     1       5.128   5.299  16.202  0.00  0.00    +0.000 HD
BRANCH   9  11
ATOM     11  C   UNL     1       7.201   4.815  16.213  0.00  0.00    +0.000 C 
BRANCH  11  12
ATOM     12  C   UNL     1       7.125   4.649  14.713  0.00  0.00    +0.000 A 
ATOM     13  C   UNL     1       6.227   3.746  14.147  0.00  0.00    +0.000 A 
ATOM     14  C   UNL     1       6.170   3.633  12.760  0.00  0.00    +0.000 A 
ATOM     15  C   UNL     1       7.011   4.415  11.979  0.00  0.00    +0.000 A 
ATOM     16  C   UNL     1       7.888   5.274  12.620  0.00  0.00    +0.000 A 
ATOM     17  N   UNL     1       7.968   5.405  13.964  0.00  0.00    +0.000 NA
ENDBRANCH  11  12
ENDBRANCH   9  11
ENDBRANCH   1   8
BRANCH   3  18
ATOM     18  C   UNL     1       1.656   4.068  20.634  0.00  0.00    +0.000 C 
ATOM     19  F   UNL     1       0.329   4.359  20.708  0.00  0.00    +0.000 F 
ATOM     20  F   UNL     1       1.737   2.806  20.133  0.00  0.00    +0.000 F 
ATOM     21  F   UNL     1       2.097   3.996  21.918  0.00  0.00    +0.000 F 
ENDBRANCH   3  18
BRANCH   5  22
ATOM     22  C   UNL     1       1.985   8.494  18.331  0.00  0.00    +0.000 C 
ATOM     23  O   UNL     1       2.240   8.967  17.227  0.00  0.00    +0.000 OA
ATOM     24  N   UNL     1       1.183   9.068  19.303  0.00  0.00    +0.000 N 
ATOM     25  H   UNL     1       1.178   8.605  20.206  0.00  0.00    +0.000 HD
BRANCH  24  26
ATOM     26  C   UNL     1       0.473  10.288  19.179  0.00  0.00    +0.000 A 
ATOM     27  C   UNL     1       0.926  11.491  19.731  0.00  0.00    +0.000 A 
ATOM     28  C   UNL     1       0.180  12.667  19.605  0.00  0.00    +0.000 A 
ATOM     29  C   UNL     1      -1.030  12.653  18.922  0.00  0.00    +0.000 A 
ATOM     30  C   UNL     1      -1.481  11.465  18.349  0.00  0.00    +0.000 A 
ATOM     31  C   UNL     1      -0.729  10.291  18.464  0.00  0.00    +0.000 A 
ENDBRANCH  24  26
ENDBRANCH   5  22
TORSDOF 6
ENDMDL
MODEL 7
REMARK VINA RESULT:      -8.8      0.634      1.500
REMARK  Name = 
REMARK  6 active torsions:
REMARK  status: ('A' for Active; 'I' for Inactive)
REMARK    1  A    between atoms: C_2  and  C_11
REMARK    2  A    between atoms: N_3  and  C_4
REMARK    3  A    between atoms: C_4  and  C_5
REMARK    4  A    between atoms: C_13  and  C_14
REMARK    5  A    between atoms: C_19  and  C_20
REMARK    6  A    between atoms: N_22  and  C_23
REMARK                            x       y       z     vdW  Elec       q    Type
REMARK                         _______ _______ _______ _____ _____    ______ ____
ROOT
ATOM      1  C   UNL     1       4.496   5.025  19.084  0.00  0.00    +0.000 A 
ATOM      2  C   UNL     1       3.911   3.843  19.532  0.00  0.00    +0.000 A 
ATOM      3  C   UNL     1       2.656   3.895  20.139  0.00  0.00    +0.000 A 
ATOM      4  C   UNL     1       2.041   5.141  20.262  0.00  0.00    +0.000 A 
ATOM      5  C   UNL     1       2.695   6.280  19.783  0.00  0.00    +0.000 A 
ATOM      6  N   UNL     1       3.922   6.260  19.194  0.00  0.00    +0.000 NA
ENDROOT
BRANCH   1   8
ATOM      7  O   UNL     1       6.853   4.755  19.080  0.00  0.00    +0.000 OA
ATOM      8  C   UNL     1       5.835   4.931  18.418  0.00  0.00    +0.000 C 
ATOM      9  N   UNL     1       5.834   5.055  17.049  0.00  0.00    +0.000 N 
ATOM     10  H   UNL     1       4.983   5.360  16.594  0.00  0.00    +0.000 HD
BRANCH   9  11
ATOM     11  C   UNL     1       7.065   5.032  16.289  0.00  0.00    +0.000 C 
BRANCH  11  12
ATOM     12  C   UNL     1       6.848   4.657  14.841  0.00  0.00    +0.000 A 
ATOM     13  C   UNL     1       7.671   5.180  13.845  0.00  0.00    +0.000 A 
ATOM     14  C   UNL     1       7.456   4.798  12.524  0.00  0.00    +0.000 A 
ATOM     15  C   UNL     1       6.426   3.915  12.231  0.00  0.00    +0.000 A 
ATOM     16  C   UNL     1       5.641   3.455  13.276  0.00  0.00    +0.000 A 
ATOM     17  N   UNL     1       5.824   3.808  14.568  0.00  0.00    +0.000 NA
ENDBRANCH  11  12
ENDBRANCH   9  11
ENDBRANCH   1   8
BRANCH   3  18
ATOM     18  C   UNL     1       1.973   2.652  20.645  0.00  0.00    +0.000 C 
ATOM     19  F   UNL     1       0.707   2.875  21.089  0.00  0.00    +0.000 F 
ATOM     20  F   UNL     1       1.872   1.692  19.686  0.00  0.00    +0.000 F 
ATOM     21  F   UNL     1       2.641   2.081  21.683  0.00  0.00    +0.000 F 
ENDBRANCH   3  18
BRANCH   5  22
ATOM     22  C   UNL     1       1.989   7.598  19.914  0.00  0.00    +0.000 C 
ATOM     23  O   UNL     1       1.978   8.343  18.939  0.00  0.00    +0.000 OA
ATOM     24  N   UNL     1       1.445   7.868  21.159  0.00  0.00    +0.000 N 
ATOM     25  H   UNL     1       1.651   7.196  21.890  0.00  0.00    +0.000 HD
BRANCH  24  26
ATOM     26  C   UNL     1       0.734   9.040  21.516  0.00  0.00    +0.000 A 
ATOM     27  C   UNL     1       0.049   9.173  22.729  0.00  0.00    +0.000 A 
ATOM     28  C   UNL     1      -0.661  10.339  23.031  0.00  0.00    +0.000 A 
ATOM     29  C   UNL     1      -0.692  11.389  22.122  0.00  0.00    +0.000 A 
ATOM     30  C   UNL     1       0.003  11.277  20.919  0.00  0.00    +0.000 A 
ATOM     31  C   UNL     1       0.724  10.115  20.622  0.00  0.00    +0.000 A 
ENDBRANCH  24  26
ENDBRANCH   5  22
TORSDOF 6
ENDMDL
MODEL 8
REMARK VINA RESULT:      -8.8      1.468      8.816
REMARK  Name = 
REMARK  6 active torsions:
REMARK  status: ('A' for Active; 'I' for Inactive)
REMARK    1  A    between atoms: C_2  and  C_11
REMARK    2  A    between atoms: N_3  and  C_4
REMARK    3  A    between atoms: C_4  and  C_5
REMARK    4  A    between atoms: C_13  and  C_14
REMARK    5  A    between atoms: C_19  and  C_20
REMARK    6  A    between atoms: N_22  and  C_23
REMARK                            x       y       z     vdW  Elec       q    Type
REMARK                         _______ _______ _______ _____ _____    ______ ____
ROOT
ATOM      1  C   UNL     1       2.832   6.828  18.454  0.00  0.00    +0.000 A 
ATOM      2  C   UNL     1       2.412   6.013  19.502  0.00  0.00    +0.000 A 
ATOM      3  C   UNL     1       2.938   4.726  19.612  0.00  0.00    +0.000 A 
ATOM      4  C   UNL     1       3.874   4.319  18.660  0.00  0.00    +0.000 A 
ATOM      5  C   UNL     1       4.245   5.201  17.641  0.00  0.00    +0.000 A 
ATOM      6  N   UNL     1       3.742   6.458  17.504  0.00  0.00    +0.000 NA
ENDROOT
BRANCH   1   8
ATOM      7  O   UNL     1       2.524   8.947  17.430  0.00  0.00    +0.000 OA
ATOM      8  C   UNL     1       2.262   8.212  18.377  0.00  0.00    +0.000 C 
ATOM      9  N   UNL     1       1.448   8.583  19.421  0.00  0.00    +0.000 N 
ATOM     10  H   UNL     1       1.412   7.988  20.238  0.00  0.00    +0.000 HD
BRANCH   9  11
ATOM     11  C   UNL     1       0.872   9.909  19.494  0.00  0.00    +0.000 C 
BRANCH  11  12
ATOM     12  C   UNL     1       0.199  10.180  20.820  0.00  0.00    +0.000 A 
ATOM     13  C   UNL     1       0.034   9.155  21.750  0.00  0.00    +0.000 A 
ATOM     14  C   UNL     1      -0.572   9.443  22.969  0.00  0.00    +0.000 A 
ATOM     15  C   UNL     1      -1.003  10.738  23.225  0.00  0.00    +0.000 A 
ATOM     16  C   UNL     1      -0.819  11.695  22.240  0.00  0.00    +0.000 A 
ATOM     17  N   UNL     1      -0.235  11.446  21.047  0.00  0.00    +0.000 NA
ENDBRANCH  11  12
ENDBRANCH   9  11
ENDBRANCH   1   8
BRANCH   3  18
ATOM     18  C   UNL     1       2.522   3.796  20.721  0.00  0.00    +0.000 C 
ATOM     19  F   UNL     1       3.392   2.768  20.918  0.00  0.00    +0.000 F 
ATOM     20  F   UNL     1       2.418   4.435  21.918  0.00  0.00    +0.000 F 
ATOM     21  F   UNL     1       1.311   3.224  20.489  0.00  0.00    +0.000 F 
ENDBRANCH   3  18
BRANCH   5  22
ATOM     22  C   UNL     1       5.271   4.733  16.651  0.00  0.00    +0.000 C 
ATOM     23  O   UNL     1       6.297   4.218  17.087  0.00  0.00    +0.000 OA
ATOM     24  N   UNL     1       4.974   4.968  15.319  0.00  0.00    +0.000 N 
ATOM     25  H   UNL     1       4.138   5.515  15.140  0.00  0.00    +0.000 HD
BRANCH  24  26
ATOM     26  C   UNL     1       5.785   4.614  14.213  0.00  0.00    +0.000 A 
ATOM     27  C   UNL     1       7.062   5.145  14.006  0.00  0.00    +0.000 A 
ATOM     28  C   UNL     1       7.819   4.786  12.886  0.00  0.00    +0.000 A 
ATOM     29  C   UNL     1       7.306   3.886  11.960  0.00  0.00    +0.000 A 
ATOM     30  C   UNL     1       6.043   3.333  12.167  0.00  0.00    +0.000 A 
ATOM     31  C   UNL     1       5.291   3.683  13.293  0.00  0.00    +0.000 A 
ENDBRANCH  24  26
ENDBRANCH   5  22
TORSDOF 6
ENDMDL
MODEL 9
REMARK VINA RESULT:      -8.7      1.525      2.070
REMARK  Name = 
REMARK  6 active torsions:
REMARK  status: ('A' for Active; 'I' for Inactive)
REMARK    1  A    between atoms: C_2  and  C_11
REMARK    2  A    between atoms: N_3  and  C_4
REMARK    3  A    between atoms: C_4  and  C_5
REMARK    4  A    between atoms: C_13  and  C_14
REMARK    5  A    between atoms: C_19  and  C_20
REMARK    6  A    between atoms: N_22  and  C_23
REMARK                            x       y       z     vdW  Elec       q    Type
REMARK                         _______ _______ _______ _____ _____    ______ ____
ROOT
ATOM      1  C   UNL     1       4.479   5.438  18.419  0.00  0.00    +0.000 A 
ATOM      2  C   UNL     1       3.900   4.511  19.283  0.00  0.00    +0.000 A 
ATOM      3  C   UNL     1       2.696   4.829  19.910  0.00  0.00    +0.000 A 
ATOM      4  C   UNL     1       2.123   6.071  19.633  0.00  0.00    +0.000 A 
ATOM      5  C   UNL     1       2.768   6.943  18.751  0.00  0.00    +0.000 A 
ATOM      6  N   UNL     1       3.947   6.662  18.132  0.00  0.00    +0.000 NA
ENDROOT
BRANCH   1   8
ATOM      7  O   UNL     1       6.571   4.323  18.308  0.00  0.00    +0.000 OA
ATOM      8  C   UNL     1       5.762   5.055  17.747  0.00  0.00    +0.000 C 
ATOM      9  N   UNL     1       5.958   5.575  16.489  0.00  0.00    +0.000 N 
ATOM     10  H   UNL     1       5.327   6.296  16.163  0.00  0.00    +0.000 HD
BRANCH   9  11
ATOM     11  C   UNL     1       7.177   5.323  15.750  0.00  0.00    +0.000 C 
BRANCH  11  12
ATOM     12  C   UNL     1       6.916   4.761  14.372  0.00  0.00    +0.000 A 
ATOM     13  C   UNL     1       7.728   5.121  13.297  0.00  0.00    +0.000 A 
ATOM     14  C   UNL     1       7.472   4.569  12.045  0.00  0.00    +0.000 A 
ATOM     15  C   UNL     1       6.413   3.683  11.896  0.00  0.00    +0.000 A 
ATOM     16  C   UNL     1       5.643   3.392  13.009  0.00  0.00    +0.000 A 
ATOM     17  N   UNL     1       5.865   3.912  14.237  0.00  0.00    +0.000 NA
ENDBRANCH  11  12
ENDBRANCH   9  11
ENDBRANCH   1   8
BRANCH   3  18
ATOM     18  C   UNL     1       2.021   3.870  20.855  0.00  0.00    +0.000 C 
ATOM     19  F   UNL     1       2.333   4.090  22.161  0.00  0.00    +0.000 F 
ATOM     20  F   UNL     1       0.664   3.938  20.776  0.00  0.00    +0.000 F 
ATOM     21  F   UNL     1       2.351   2.576  20.602  0.00  0.00    +0.000 F 
ENDBRANCH   3  18
BRANCH   5  22
ATOM     22  C   UNL     1       2.108   8.260  18.463  0.00  0.00    +0.000 C 
ATOM     23  O   UNL     1       2.345   8.797  17.385  0.00  0.00    +0.000 OA
ATOM     24  N   UNL     1       1.314   8.771  19.476  0.00  0.00    +0.000 N 
ATOM     25  H   UNL     1       1.324   8.256  20.350  0.00  0.00    +0.000 HD
BRANCH  24  26
ATOM     26  C   UNL     1       0.592   9.988  19.430  0.00  0.00    +0.000 A 
ATOM     27  C   UNL     1      -0.473  10.208  18.549  0.00  0.00    +0.000 A 
ATOM     28  C   UNL     1      -1.142  11.435  18.520  0.00  0.00    +0.000 A 
ATOM     29  C   UNL     1      -0.755  12.459  19.377  0.00  0.00    +0.000 A 
ATOM     30  C   UNL     1       0.290  12.245  20.274  0.00  0.00    +0.000 A 
ATOM     31  C   UNL     1       0.952  11.013  20.311  0.00  0.00    +0.000 A 
ENDBRANCH  24  26
ENDBRANCH   5  22
TORSDOF 6
ENDMDL
