MODEL 1
REMARK VINA RESULT:      -7.8      0.000      0.000
REMARK  Name = 
REMARK  5 active torsions:
REMARK  status: ('A' for Active; 'I' for Inactive)
REMARK    1  A    between atoms: C_2  and  O_3
REMARK    2  A    between atoms: C_2  and  C_4
REMARK    3  A    between atoms: C_4  and  C_5
REMARK    4  A    between atoms: C_5  and  C_6
REMARK    5  A    between atoms: N_22  and  C_23
REMARK                            x       y       z     vdW  Elec       q    Type
REMARK                         _______ _______ _______ _____ _____    ______ ____
ROOT
ATOM      1  C   UNL     1       2.197   6.562  19.627  0.00  0.00    +0.000 C 
ATOM      2  O   UNL     1       2.756   6.072  18.646  0.00  0.00    +0.000 OA
ATOM      3  N   UNL     1       1.858   7.899  19.701  0.00  0.00    +0.000 N 
ATOM      4  C   UNL     1       2.058   8.791  18.543  0.00  0.00    +0.000 C 
ATOM      5  C   UNL     1       0.795   9.625  18.219  0.00  0.00    +0.000 C 
ATOM      6  N   UNL     1       0.191  10.194  19.437  0.00  0.00    +0.000 N 
ATOM      7  C   UNL     1      -0.355  11.461  19.385  0.00  0.00    +0.000 C 
ATOM      8  O   UNL     1      -0.476  12.034  18.299  0.00  0.00    +0.000 OA
ATOM      9  N   UNL     1      -0.765  12.070  20.553  0.00  0.00    +0.000 N 
ATOM     10  C   UNL     1      -1.613  13.254  20.456  0.00  0.00    +0.000 C 
ATOM     11  C   UNL     1      -2.830  13.095  21.371  0.00  0.00    +0.000 C 
ATOM     12  C   UNL     1      -2.456  12.712  22.830  0.00  0.00    +0.000 C 
ATOM     13  C   UNL     1      -1.443  11.550  22.833  0.00  0.00    +0.000 C 
ATOM     14  C   UNL     1      -0.261  11.844  21.905  0.00  0.00    +0.000 C 
ATOM     15  C   UNL     1      -3.741  12.332  23.621  0.00  0.00    +0.000 C 
ATOM     16  C   UNL     1      -3.795  13.278  24.819  0.00  0.00    +0.000 C 
ATOM     17  N   UNL     1      -3.028  14.413  24.342  0.00  0.00    +0.000 N 
ATOM     18  C   UNL     1      -1.887  13.939  23.577  0.00  0.00    +0.000 C 
ATOM     19  C   UNL     1      -0.083   9.167  20.442  0.00  0.00    +0.000 C 
ATOM     20  C   UNL     1       1.244   8.544  20.867  0.00  0.00    +0.000 C 
ENDROOT
BRANCH  17  21
ATOM     21  C   UNL     1      -3.136  15.691  24.822  0.00  0.00    +0.000 A 
ATOM     22  C   UNL     1      -4.348  16.378  24.867  0.00  0.00    +0.000 A 
ATOM     23  C   UNL     1      -4.375  17.693  25.313  0.00  0.00    +0.000 A 
ATOM     24  N   UNL     1      -3.281  18.381  25.699  0.00  0.00    +0.000 NA
ATOM     25  C   UNL     1      -2.114  17.717  25.640  0.00  0.00    +0.000 A 
ATOM     26  C   UNL     1      -2.000  16.397  25.230  0.00  0.00    +0.000 A 
ENDBRANCH  17  21
BRANCH   1  27
ATOM     27  C   UNL     1       1.824   5.706  20.823  0.00  0.00    +0.000 C 
BRANCH  27  28
ATOM     28  C   UNL     1       2.459   4.325  20.764  0.00  0.00    +0.000 C 
BRANCH  28  30
ATOM     29  O   UNL     1       1.580   2.510  22.108  0.00  0.00    +0.000 OA
ATOM     30  C   UNL     1       1.462   3.267  21.157  0.00  0.00    +0.000 C 
BRANCH  30  31
ATOM     31  O   UNL     1       0.392   3.234  20.329  0.00  0.00    +0.000 OA
ATOM     32  H   UNL     1      -0.381   3.722  20.673  0.00  0.00    +0.000 HD
ENDBRANCH  30  31
ENDBRANCH  28  30
ENDBRANCH  27  28
ENDBRANCH   1  27
TORSDOF 5
ENDMDL
MODEL 2
REMARK VINA RESULT:      -7.6      3.794      5.651
REMARK  Name = 
REMARK  5 active torsions:
REMARK  status: ('A' for Active; 'I' for Inactive)
REMARK    1  A    between atoms: C_2  and  O_3
REMARK    2  A    between atoms: C_2  and  C_4
REMARK    3  A    between atoms: C_4  and  C_5
REMARK    4  A    between atoms: C_5  and  C_6
REMARK    5  A    between atoms: N_22  and  C_23
REMARK                            x       y       z     vdW  Elec       q    Type
REMARK                         _______ _______ _______ _____ _____    ______ ____
ROOT
ATOM      1  C   UNL     1       3.666   4.652  17.622  0.00  0.00    +0.000 C 
ATOM      2  O   UNL     1       3.675   3.471  17.968  0.00  0.00    +0.000 OA
ATOM      3  N   UNL     1       2.784   5.576  18.149  0.00  0.00    +0.000 N 
ATOM      4  C   UNL     1       1.871   5.204  19.247  0.00  0.00    +0.000 C 
ATOM      5  C   UNL     1       1.911   6.221  20.413  0.00  0.00    +0.000 C 
ATOM      6  N   UNL     1       1.878   7.612  19.925  0.00  0.00    +0.000 N 
ATOM      7  C   UNL     1       1.166   8.555  20.637  0.00  0.00    +0.000 C 
ATOM      8  O   UNL     1       0.703   8.269  21.744  0.00  0.00    +0.000 OA
ATOM      9  N   UNL     1       0.986   9.814  20.101  0.00  0.00    +0.000 N 
ATOM     10  C   UNL     1       0.513  10.879  20.980  0.00  0.00    +0.000 C 
ATOM     11  C   UNL     1       1.409  12.111  20.826  0.00  0.00    +0.000 C 
ATOM     12  C   UNL     1       1.595  12.556  19.348  0.00  0.00    +0.000 C 
ATOM     13  C   UNL     1       1.946  11.341  18.466  0.00  0.00    +0.000 C 
ATOM     14  C   UNL     1       0.960  10.191  18.691  0.00  0.00    +0.000 C 
ATOM     15  C   UNL     1       2.701  13.646  19.260  0.00  0.00    +0.000 C 
ATOM     16  C   UNL     1       2.042  14.867  18.621  0.00  0.00    +0.000 C 
ATOM     17  N   UNL     1       0.645  14.666  18.956  0.00  0.00    +0.000 N 
ATOM     18  C   UNL     1       0.316  13.255  18.834  0.00  0.00    +0.000 C 
ATOM     19  C   UNL     1       2.934   7.871  18.945  0.00  0.00    +0.000 C 
ATOM     20  C   UNL     1       2.693   6.979  17.731  0.00  0.00    +0.000 C 
ENDROOT
BRANCH  17  21
ATOM     21  C   UNL     1      -0.298  15.657  19.021  0.00  0.00    +0.000 A 
ATOM     22  C   UNL     1      -0.334  16.720  18.120  0.00  0.00    +0.000 A 
ATOM     23  C   UNL     1      -1.285  17.721  18.278  0.00  0.00    +0.000 A 
ATOM     24  N   UNL     1      -2.189  17.751  19.278  0.00  0.00    +0.000 NA
ATOM     25  C   UNL     1      -2.139  16.729  20.151  0.00  0.00    +0.000 A 
ATOM     26  C   UNL     1      -1.239  15.678  20.054  0.00  0.00    +0.000 A 
ENDBRANCH  17  21
BRANCH   1  27
ATOM     27  C   UNL     1       4.653   5.173  16.594  0.00  0.00    +0.000 C 
BRANCH  27  28
ATOM     28  C   UNL     1       5.713   4.143  16.238  0.00  0.00    +0.000 C 
BRANCH  28  30
ATOM     29  O   UNL     1       7.380   5.769  15.570  0.00  0.00    +0.000 OA
ATOM     30  C   UNL     1       7.079   4.776  16.212  0.00  0.00    +0.000 C 
BRANCH  30  31
ATOM     31  O   UNL     1       7.967   4.117  16.992  0.00  0.00    +0.000 OA
ATOM     32  H   UNL     1       8.050   3.169  16.773  0.00  0.00    +0.000 HD
ENDBRANCH  30  31
ENDBRANCH  28  30
ENDBRANCH  27  28
ENDBRANCH   1  27
TORSDOF 5
ENDMDL
MODEL 3
REMARK VINA RESULT:      -7.3      3.838      5.498
REMARK  Name = 
REMARK  5 active torsions:
REMARK  status: ('A' for Active; 'I' for Inactive)
REMARK    1  A    between atoms: C_2  and  O_3
REMARK    2  A    between atoms: C_2  and  C_4
REMARK    3  A    between atoms: C_4  and  C_5
REMARK    4  A    between atoms: C_5  and  C_6
REMARK    5  A    between atoms: N_22  and  C_23
REMARK                            x       y       z     vdW  Elec       q    Type
REMARK                         _______ _______ _______ _____ _____    ______ ____
ROOT
ATOM      1  C   UNL     1       3.941   5.041  17.286  0.00  0.00    +0.000 C 
ATOM      2  O   UNL     1       3.974   3.843  17.567  0.00  0.00    +0.000 OA
ATOM      3  N   UNL     1       3.019   5.911  17.835  0.00  0.00    +0.000 N 
ATOM      4  C   UNL     1       2.085   5.455  18.883  0.00  0.00    +0.000 C 
ATOM      5  C   UNL     1       2.063   6.406  20.104  0.00  0.00    +0.000 C 
ATOM      6  N   UNL     1       2.005   7.820  19.692  0.00  0.00    +0.000 N 
ATOM      7  C   UNL     1       1.246   8.703  20.433  0.00  0.00    +0.000 C 
ATOM      8  O   UNL     1       0.760   8.344  21.508  0.00  0.00    +0.000 OA
ATOM      9  N   UNL     1       1.046   9.984  19.961  0.00  0.00    +0.000 N 
ATOM     10  C   UNL     1       0.518  10.986  20.882  0.00  0.00    +0.000 C 
ATOM     11  C   UNL     1       1.383  12.248  20.823  0.00  0.00    +0.000 C 
ATOM     12  C   UNL     1       1.598  12.779  19.379  0.00  0.00    +0.000 C 
ATOM     13  C   UNL     1       2.009  11.625  18.442  0.00  0.00    +0.000 C 
ATOM     14  C   UNL     1       1.051  10.438  18.573  0.00  0.00    +0.000 C 
ATOM     15  C   UNL     1       2.676  13.901  19.384  0.00  0.00    +0.000 C 
ATOM     16  C   UNL     1       2.001  15.138  18.793  0.00  0.00    +0.000 C 
ATOM     17  N   UNL     1       0.602  14.882  19.074  0.00  0.00    +0.000 N 
ATOM     18  C   UNL     1       0.316  13.472  18.865  0.00  0.00    +0.000 C 
ATOM     19  C   UNL     1       3.081   8.161  18.761  0.00  0.00    +0.000 C 
ATOM     20  C   UNL     1       2.900   7.332  17.492  0.00  0.00    +0.000 C 
ENDROOT
BRANCH  17  21
ATOM     21  C   UNL     1      -0.371  15.842  19.164  0.00  0.00    +0.000 A 
ATOM     22  C   UNL     1      -1.375  15.806  20.131  0.00  0.00    +0.000 A 
ATOM     23  C   UNL     1      -2.363  16.783  20.130  0.00  0.00    +0.000 A 
ATOM     24  N   UNL     1      -2.436  17.780  19.226  0.00  0.00    +0.000 NA
ATOM     25  C   UNL     1      -1.473  17.801  18.289  0.00  0.00    +0.000 A 
ATOM     26  C   UNL     1      -0.437  16.879  18.230  0.00  0.00    +0.000 A 
ENDBRANCH  17  21
BRANCH   1  27
ATOM     27  C   UNL     1       4.942   5.645  16.319  0.00  0.00    +0.000 C 
BRANCH  27  28
ATOM     28  C   UNL     1       6.249   6.020  17.001  0.00  0.00    +0.000 C 
BRANCH  28  30
ATOM     29  O   UNL     1       7.917   4.455  16.202  0.00  0.00    +0.000 OA
ATOM     30  C   UNL     1       7.163   4.826  17.087  0.00  0.00    +0.000 C 
BRANCH  30  31
ATOM     31  O   UNL     1       7.062   4.185  18.274  0.00  0.00    +0.000 OA
ATOM     32  H   UNL     1       6.145   4.114  18.602  0.00  0.00    +0.000 HD
ENDBRANCH  30  31
ENDBRANCH  28  30
ENDBRANCH  27  28
ENDBRANCH   1  27
TORSDOF 5
ENDMDL
MODEL 4
REMARK VINA RESULT:      -7.0      3.871      5.660
REMARK  Name = 
REMARK  5 active torsions:
REMARK  status: ('A' for Active; 'I' for Inactive)
REMARK    1  A    between atoms: C_2  and  O_3
REMARK    2  A    between atoms: C_2  and  C_4
REMARK    3  A    between atoms: C_4  and  C_5
REMARK    4  A    between atoms: C_5  and  C_6
REMARK    5  A    between atoms: N_22  and  C_23
REMARK                            x       y       z     vdW  Elec       q    Type
REMARK                         _______ _______ _______ _____ _____    ______ ____
ROOT
ATOM      1  C   UNL     1       4.213   4.953  17.061  0.00  0.00    +0.000 C 
ATOM      2  O   UNL     1       4.262   3.751  17.318  0.00  0.00    +0.000 OA
ATOM      3  N   UNL     1       3.267   5.796  17.612  0.00  0.00    +0.000 N 
ATOM      4  C   UNL     1       2.325   5.302  18.635  0.00  0.00    +0.000 C 
ATOM      5  C   UNL     1       2.265   6.227  19.874  0.00  0.00    +0.000 C 
ATOM      6  N   UNL     1       2.190   7.648  19.490  0.00  0.00    +0.000 N 
ATOM      7  C   UNL     1       1.404   8.503  20.236  0.00  0.00    +0.000 C 
ATOM      8  O   UNL     1       0.906   8.113  21.295  0.00  0.00    +0.000 OA
ATOM      9  N   UNL     1       1.189   9.790  19.787  0.00  0.00    +0.000 N 
ATOM     10  C   UNL     1       0.629  10.763  20.719  0.00  0.00    +0.000 C 
ATOM     11  C   UNL     1       1.472  12.041  20.701  0.00  0.00    +0.000 C 
ATOM     12  C   UNL     1       1.702  12.605  19.271  0.00  0.00    +0.000 C 
ATOM     13  C   UNL     1       2.149  11.478  18.319  0.00  0.00    +0.000 C 
ATOM     14  C   UNL     1       1.209  10.273  18.409  0.00  0.00    +0.000 C 
ATOM     15  C   UNL     1       2.760  13.745  19.317  0.00  0.00    +0.000 C 
ATOM     16  C   UNL     1       2.073  14.982  18.741  0.00  0.00    +0.000 C 
ATOM     17  N   UNL     1       0.674  14.696  18.993  0.00  0.00    +0.000 N 
ATOM     18  C   UNL     1       0.417  13.286  18.750  0.00  0.00    +0.000 C 
ATOM     19  C   UNL     1       3.275   8.027  18.584  0.00  0.00    +0.000 C 
ATOM     20  C   UNL     1       3.130   7.221  17.296  0.00  0.00    +0.000 C 
ENDROOT
BRANCH  17  21
ATOM     21  C   UNL     1      -0.316  15.638  19.086  0.00  0.00    +0.000 A 
ATOM     22  C   UNL     1      -0.399  16.730  18.223  0.00  0.00    +0.000 A 
ATOM     23  C   UNL     1      -1.397  17.678  18.410  0.00  0.00    +0.000 A 
ATOM     24  N   UNL     1      -2.307  17.628  19.405  0.00  0.00    +0.000 NA
ATOM     25  C   UNL     1      -2.213  16.580  20.240  0.00  0.00    +0.000 A 
ATOM     26  C   UNL     1      -1.263  15.576  20.113  0.00  0.00    +0.000 A 
ENDBRANCH  17  21
BRANCH   1  27
ATOM     27  C   UNL     1       5.220   5.594  16.123  0.00  0.00    +0.000 C 
BRANCH  27  28
ATOM     28  C   UNL     1       6.656   5.291  16.524  0.00  0.00    +0.000 C 
BRANCH  28  30
ATOM     29  O   UNL     1       7.587   6.094  18.612  0.00  0.00    +0.000 OA
ATOM     30  C   UNL     1       7.165   6.328  17.490  0.00  0.00    +0.000 C 
BRANCH  30  31
ATOM     31  O   UNL     1       7.109   7.579  16.979  0.00  0.00    +0.000 OA
ATOM     32  H   UNL     1       7.322   7.621  16.027  0.00  0.00    +0.000 HD
ENDBRANCH  30  31
ENDBRANCH  28  30
ENDBRANCH  27  28
ENDBRANCH   1  27
TORSDOF 5
ENDMDL
MODEL 5
REMARK VINA RESULT:      -6.9      0.920      1.148
REMARK  Name = 
REMARK  5 active torsions:
REMARK  status: ('A' for Active; 'I' for Inactive)
REMARK    1  A    between atoms: C_2  and  O_3
REMARK    2  A    between atoms: C_2  and  C_4
REMARK    3  A    between atoms: C_4  and  C_5
REMARK    4  A    between atoms: C_5  and  C_6
REMARK    5  A    between atoms: N_22  and  C_23
REMARK                            x       y       z     vdW  Elec       q    Type
REMARK                         _______ _______ _______ _____ _____    ______ ____
ROOT
ATOM      1  C   UNL     1       2.232   6.171  19.785  0.00  0.00    +0.000 C 
ATOM      2  O   UNL     1       2.807   5.602  18.858  0.00  0.00    +0.000 OA
ATOM      3  N   UNL     1       2.048   7.540  19.821  0.00  0.00    +0.000 N 
ATOM      4  C   UNL     1       2.445   8.382  18.676  0.00  0.00    +0.000 C 
ATOM      5  C   UNL     1       1.320   9.352  18.242  0.00  0.00    +0.000 C 
ATOM      6  N   UNL     1       0.690  10.009  19.401  0.00  0.00    +0.000 N 
ATOM      7  C   UNL     1       0.303  11.330  19.295  0.00  0.00    +0.000 C 
ATOM      8  O   UNL     1       0.339  11.894  18.198  0.00  0.00    +0.000 OA
ATOM      9  N   UNL     1      -0.126  12.003  20.420  0.00  0.00    +0.000 N 
ATOM     10  C   UNL     1      -0.817  13.276  20.243  0.00  0.00    +0.000 C 
ATOM     11  C   UNL     1      -2.115  13.277  21.056  0.00  0.00    +0.000 C 
ATOM     12  C   UNL     1      -1.909  12.878  22.544  0.00  0.00    +0.000 C 
ATOM     13  C   UNL     1      -1.043  11.606  22.640  0.00  0.00    +0.000 C 
ATOM     14  C   UNL     1       0.237  11.744  21.810  0.00  0.00    +0.000 C 
ATOM     15  C   UNL     1      -3.289  12.665  23.229  0.00  0.00    +0.000 C 
ATOM     16  C   UNL     1      -3.329  13.632  24.410  0.00  0.00    +0.000 C 
ATOM     17  N   UNL     1      -2.397  14.660  23.990  0.00  0.00    +0.000 N 
ATOM     18  C   UNL     1      -1.261  14.043  23.326  0.00  0.00    +0.000 C 
ATOM     19  C   UNL     1       0.217   9.039  20.389  0.00  0.00    +0.000 C 
ATOM     20  C   UNL     1       1.422   8.273  20.926  0.00  0.00    +0.000 C 
ENDROOT
BRANCH  17  21
ATOM     21  C   UNL     1      -2.391  15.951  24.449  0.00  0.00    +0.000 A 
ATOM     22  C   UNL     1      -1.762  16.324  25.636  0.00  0.00    +0.000 A 
ATOM     23  C   UNL     1      -1.844  17.641  26.071  0.00  0.00    +0.000 A 
ATOM     24  N   UNL     1      -2.522  18.609  25.422  0.00  0.00    +0.000 NA
ATOM     25  C   UNL     1      -3.137  18.239  24.285  0.00  0.00    +0.000 A 
ATOM     26  C   UNL     1      -3.088  16.953  23.766  0.00  0.00    +0.000 A 
ENDBRANCH  17  21
BRANCH   1  27
ATOM     27  C   UNL     1       1.664   5.386  20.953  0.00  0.00    +0.000 C 
BRANCH  27  28
ATOM     28  C   UNL     1       1.222   3.988  20.547  0.00  0.00    +0.000 C 
BRANCH  28  30
ATOM     29  O   UNL     1       2.640   2.693  22.025  0.00  0.00    +0.000 OA
ATOM     30  C   UNL     1       2.283   2.976  20.892  0.00  0.00    +0.000 C 
BRANCH  30  31
ATOM     31  O   UNL     1       2.819   2.397  19.793  0.00  0.00    +0.000 OA
ATOM     32  H   UNL     1       2.226   1.747  19.368  0.00  0.00    +0.000 HD
ENDBRANCH  30  31
ENDBRANCH  28  30
ENDBRANCH  27  28
ENDBRANCH   1  27
TORSDOF 5
ENDMDL
MODEL 6
REMARK VINA RESULT:      -6.7      3.514      5.544
REMARK  Name = 
REMARK  5 active torsions:
REMARK  status: ('A' for Active; 'I' for Inactive)
REMARK    1  A    between atoms: C_2  and  O_3
REMARK    2  A    between atoms: C_2  and  C_4
REMARK    3  A    between atoms: C_4  and  C_5
REMARK    4  A    between atoms: C_5  and  C_6
REMARK    5  A    between atoms: N_22  and  C_23
REMARK                            x       y       z     vdW  Elec       q    Type
REMARK                         _______ _______ _______ _____ _____    ______ ____
ROOT
ATOM      1  C   UNL     1       4.210   5.104  16.894  0.00  0.00    +0.000 C 
ATOM      2  O   UNL     1       4.363   3.897  17.082  0.00  0.00    +0.000 OA
ATOM      3  N   UNL     1       3.249   5.845  17.556  0.00  0.00    +0.000 N 
ATOM      4  C   UNL     1       2.423   5.232  18.614  0.00  0.00    +0.000 C 
ATOM      5  C   UNL     1       2.390   6.088  19.903  0.00  0.00    +0.000 C 
ATOM      6  N   UNL     1       2.186   7.517  19.603  0.00  0.00    +0.000 N 
ATOM      7  C   UNL     1       1.398   8.273  20.448  0.00  0.00    +0.000 C 
ATOM      8  O   UNL     1       1.010   7.796  21.517  0.00  0.00    +0.000 OA
ATOM      9  N   UNL     1       1.060   9.561  20.086  0.00  0.00    +0.000 N 
ATOM     10  C   UNL     1       0.503  10.442  21.107  0.00  0.00    +0.000 C 
ATOM     11  C   UNL     1       1.249  11.779  21.098  0.00  0.00    +0.000 C 
ATOM     12  C   UNL     1       1.332  12.428  19.689  0.00  0.00    +0.000 C 
ATOM     13  C   UNL     1       1.785  11.386  18.647  0.00  0.00    +0.000 C 
ATOM     14  C   UNL     1       0.942  10.110  18.739  0.00  0.00    +0.000 C 
ATOM     15  C   UNL     1       2.305  13.641  19.722  0.00  0.00    +0.000 C 
ATOM     16  C   UNL     1       1.492  14.850  19.263  0.00  0.00    +0.000 C 
ATOM     17  N   UNL     1       0.139  14.448  19.597  0.00  0.00    +0.000 N 
ATOM     18  C   UNL     1      -0.035  13.036  19.298  0.00  0.00    +0.000 C 
ATOM     19  C   UNL     1       3.170   8.020  18.645  0.00  0.00    +0.000 C 
ATOM     20  C   UNL     1       2.987   7.270  17.329  0.00  0.00    +0.000 C 
ENDROOT
BRANCH  17  21
ATOM     21  C   UNL     1      -0.906  15.307  19.812  0.00  0.00    +0.000 A 
ATOM     22  C   UNL     1      -2.064  14.927  20.489  0.00  0.00    +0.000 A 
ATOM     23  C   UNL     1      -3.109  15.833  20.621  0.00  0.00    +0.000 A 
ATOM     24  N   UNL     1      -3.094  17.081  20.113  0.00  0.00    +0.000 NA
ATOM     25  C   UNL     1      -1.980  17.436  19.449  0.00  0.00    +0.000 A 
ATOM     26  C   UNL     1      -0.881  16.603  19.290  0.00  0.00    +0.000 A 
ENDBRANCH  17  21
BRANCH   1  27
ATOM     27  C   UNL     1       5.095   5.863  15.924  0.00  0.00    +0.000 C 
BRANCH  27  28
ATOM     28  C   UNL     1       5.758   4.945  14.908  0.00  0.00    +0.000 C 
BRANCH  28  30
ATOM     29  O   UNL     1       7.768   4.432  16.159  0.00  0.00    +0.000 OA
ATOM     30  C   UNL     1       7.242   4.873  15.150  0.00  0.00    +0.000 C 
BRANCH  30  31
ATOM     31  O   UNL     1       7.958   5.360  14.109  0.00  0.00    +0.000 OA
ATOM     32  H   UNL     1       8.052   4.727  13.372  0.00  0.00    +0.000 HD
ENDBRANCH  30  31
ENDBRANCH  28  30
ENDBRANCH  27  28
ENDBRANCH   1  27
TORSDOF 5
ENDMDL
MODEL 7
REMARK VINA RESULT:      -6.5      3.368      5.645
REMARK  Name = 
REMARK  5 active torsions:
REMARK  status: ('A' for Active; 'I' for Inactive)
REMARK    1  A    between atoms: C_2  and  O_3
REMARK    2  A    between atoms: C_2  and  C_4
REMARK    3  A    between atoms: C_4  and  C_5
REMARK    4  A    between atoms: C_5  and  C_6
REMARK    5  A    between atoms: N_22  and  C_23
REMARK                            x       y       z     vdW  Elec       q    Type
REMARK                         _______ _______ _______ _____ _____    ______ ____
ROOT
ATOM      1  C   UNL     1       4.660   4.931  16.714  0.00  0.00    +0.000 C 
ATOM      2  O   UNL     1       4.955   3.740  16.814  0.00  0.00    +0.000 OA
ATOM      3  N   UNL     1       3.626   5.505  17.429  0.00  0.00    +0.000 N 
ATOM      4  C   UNL     1       2.887   4.726  18.441  0.00  0.00    +0.000 C 
ATOM      5  C   UNL     1       2.767   5.477  19.789  0.00  0.00    +0.000 C 
ATOM      6  N   UNL     1       2.394   6.890  19.593  0.00  0.00    +0.000 N 
ATOM      7  C   UNL     1       1.532   7.486  20.491  0.00  0.00    +0.000 C 
ATOM      8  O   UNL     1       1.212   6.891  21.524  0.00  0.00    +0.000 OA
ATOM      9  N   UNL     1       1.042   8.748  20.224  0.00  0.00    +0.000 N 
ATOM     10  C   UNL     1       0.395   9.483  21.307  0.00  0.00    +0.000 C 
ATOM     11  C   UNL     1       0.980  10.895  21.394  0.00  0.00    +0.000 C 
ATOM     12  C   UNL     1       0.973  11.649  20.035  0.00  0.00    +0.000 C 
ATOM     13  C   UNL     1       1.535  10.744  18.920  0.00  0.00    +0.000 C 
ATOM     14  C   UNL     1       0.848   9.375  18.920  0.00  0.00    +0.000 C 
ATOM     15  C   UNL     1       1.799  12.962  20.154  0.00  0.00    +0.000 C 
ATOM     16  C   UNL     1       0.845  14.096  19.785  0.00  0.00    +0.000 C 
ATOM     17  N   UNL     1      -0.448  13.516  20.091  0.00  0.00    +0.000 N 
ATOM     18  C   UNL     1      -0.459  12.119  19.690  0.00  0.00    +0.000 C 
ATOM     19  C   UNL     1       3.304   7.572  18.673  0.00  0.00    +0.000 C 
ATOM     20  C   UNL     1       3.197   6.903  17.306  0.00  0.00    +0.000 C 
ENDROOT
BRANCH  17  21
ATOM     21  C   UNL     1      -1.584  14.228  20.368  0.00  0.00    +0.000 A 
ATOM     22  C   UNL     1      -1.599  15.621  20.442  0.00  0.00    +0.000 A 
ATOM     23  C   UNL     1      -2.775  16.277  20.783  0.00  0.00    +0.000 A 
ATOM     24  N   UNL     1      -3.932  15.649  21.075  0.00  0.00    +0.000 NA
ATOM     25  C   UNL     1      -3.907  14.306  21.014  0.00  0.00    +0.000 A 
ATOM     26  C   UNL     1      -2.784  13.572  20.660  0.00  0.00    +0.000 A 
ENDBRANCH  17  21
BRANCH   1  27
ATOM     27  C   UNL     1       5.441   5.857  15.801  0.00  0.00    +0.000 C 
BRANCH  27  28
ATOM     28  C   UNL     1       6.864   5.371  15.567  0.00  0.00    +0.000 C 
BRANCH  28  30
ATOM     29  O   UNL     1       7.593   5.370  13.257  0.00  0.00    +0.000 OA
ATOM     30  C   UNL     1       7.011   4.815  14.176  0.00  0.00    +0.000 C 
BRANCH  30  31
ATOM     31  O   UNL     1       6.418   3.607  14.038  0.00  0.00    +0.000 OA
ATOM     32  H   UNL     1       6.471   3.054  14.841  0.00  0.00    +0.000 HD
ENDBRANCH  30  31
ENDBRANCH  28  30
ENDBRANCH  27  28
ENDBRANCH   1  27
TORSDOF 5
ENDMDL
MODEL 8
REMARK VINA RESULT:      -6.4      1.317      1.514
REMARK  Name = 
REMARK  5 active torsions:
REMARK  status: ('A' for Active; 'I' for Inactive)
REMARK    1  A    between atoms: C_2  and  O_3
REMARK    2  A    between atoms: C_2  and  C_4
REMARK    3  A    between atoms: C_4  and  C_5
REMARK    4  A    between atoms: C_5  and  C_6
REMARK    5  A    between atoms: N_22  and  C_23
REMARK                            x       y       z     vdW  Elec       q    Type
REMARK                         _______ _______ _______ _____ _____    ______ ____
ROOT
ATOM      1  C   UNL     1       2.264   5.514  19.451  0.00  0.00    +0.000 C 
ATOM      2  O   UNL     1       2.916   4.956  18.569  0.00  0.00    +0.000 OA
ATOM      3  N   UNL     1       2.214   6.888  19.585  0.00  0.00    +0.000 N 
ATOM      4  C   UNL     1       2.864   7.765  18.592  0.00  0.00    +0.000 C 
ATOM      5  C   UNL     1       1.921   8.885  18.090  0.00  0.00    +0.000 C 
ATOM      6  N   UNL     1       1.189   9.519  19.201  0.00  0.00    +0.000 N 
ATOM      7  C   UNL     1       0.957  10.879  19.162  0.00  0.00    +0.000 C 
ATOM      8  O   UNL     1       1.217  11.517  18.138  0.00  0.00    +0.000 OA
ATOM      9  N   UNL     1       0.428  11.508  20.270  0.00  0.00    +0.000 N 
ATOM     10  C   UNL     1      -0.097  12.861  20.112  0.00  0.00    +0.000 C 
ATOM     11  C   UNL     1      -1.498  12.945  20.724  0.00  0.00    +0.000 C 
ATOM     12  C   UNL     1      -1.565  12.414  22.183  0.00  0.00    +0.000 C 
ATOM     13  C   UNL     1      -0.855  11.050  22.287  0.00  0.00    +0.000 C 
ATOM     14  C   UNL     1       0.544  11.106  21.668  0.00  0.00    +0.000 C 
ATOM     15  C   UNL     1      -3.049  12.305  22.638  0.00  0.00    +0.000 C 
ATOM     16  C   UNL     1      -3.174  13.179  23.885  0.00  0.00    +0.000 C 
ATOM     17  N   UNL     1      -2.091  14.125  23.701  0.00  0.00    +0.000 N 
ATOM     18  C   UNL     1      -0.933  13.437  23.155  0.00  0.00    +0.000 C 
ATOM     19  C   UNL     1       0.475   8.535  20.016  0.00  0.00    +0.000 C 
ATOM     20  C   UNL     1       1.500   7.600  20.651  0.00  0.00    +0.000 C 
ENDROOT
BRANCH  17  21
ATOM     21  C   UNL     1      -2.028  15.368  24.272  0.00  0.00    +0.000 A 
ATOM     22  C   UNL     1      -3.144  16.005  24.811  0.00  0.00    +0.000 A 
ATOM     23  C   UNL     1      -3.020  17.290  25.325  0.00  0.00    +0.000 A 
ATOM     24  N   UNL     1      -1.870  17.995  25.323  0.00  0.00    +0.000 NA
ATOM     25  C   UNL     1      -0.800  17.379  24.790  0.00  0.00    +0.000 A 
ATOM     26  C   UNL     1      -0.830  16.090  24.277  0.00  0.00    +0.000 A 
ENDBRANCH  17  21
BRANCH   1  27
ATOM     27  C   UNL     1       1.448   4.711  20.447  0.00  0.00    +0.000 C 
BRANCH  27  28
ATOM     28  C   UNL     1       1.876   3.252  20.501  0.00  0.00    +0.000 C 
BRANCH  28  30
ATOM     29  O   UNL     1       0.214   2.363  18.978  0.00  0.00    +0.000 OA
ATOM     30  C   UNL     1       1.386   2.512  19.284  0.00  0.00    +0.000 C 
BRANCH  30  31
ATOM     31  O   UNL     1       2.402   2.011  18.543  0.00  0.00    +0.000 OA
ATOM     32  H   UNL     1       3.201   2.572  18.549  0.00  0.00    +0.000 HD
ENDBRANCH  30  31
ENDBRANCH  28  30
ENDBRANCH  27  28
ENDBRANCH   1  27
TORSDOF 5
ENDMDL
MODEL 9
REMARK VINA RESULT:      -6.3      6.295      8.120
REMARK  Name = 
REMARK  5 active torsions:
REMARK  status: ('A' for Active; 'I' for Inactive)
REMARK    1  A    between atoms: C_2  and  O_3
REMARK    2  A    between atoms: C_2  and  C_4
REMARK    3  A    between atoms: C_4  and  C_5
REMARK    4  A    between atoms: C_5  and  C_6
REMARK    5  A    between atoms: N_22  and  C_23
REMARK                            x       y       z     vdW  Elec       q    Type
REMARK                         _______ _______ _______ _____ _____    ______ ____
ROOT
ATOM      1  C   UNL     1       8.885  14.954  18.322  0.00  0.00    +0.000 C 
ATOM      2  O   UNL     1       9.815  15.754  18.229  0.00  0.00    +0.000 OA
ATOM      3  N   UNL     1       7.697  15.261  18.959  0.00  0.00    +0.000 N 
ATOM      4  C   UNL     1       7.448  16.622  19.471  0.00  0.00    +0.000 C 
ATOM      5  C   UNL     1       6.073  17.175  19.026  0.00  0.00    +0.000 C 
ATOM      6  N   UNL     1       5.006  16.169  19.182  0.00  0.00    +0.000 N 
ATOM      7  C   UNL     1       3.755  16.578  19.597  0.00  0.00    +0.000 C 
ATOM      8  O   UNL     1       3.498  17.782  19.679  0.00  0.00    +0.000 OA
ATOM      9  N   UNL     1       2.803  15.631  19.912  0.00  0.00    +0.000 N 
ATOM     10  C   UNL     1       1.415  16.062  20.044  0.00  0.00    +0.000 C 
ATOM     11  C   UNL     1       0.508  15.145  19.218  0.00  0.00    +0.000 C 
ATOM     12  C   UNL     1       0.725  13.636  19.516  0.00  0.00    +0.000 C 
ATOM     13  C   UNL     1       2.230  13.300  19.503  0.00  0.00    +0.000 C 
ATOM     14  C   UNL     1       3.019  14.268  20.389  0.00  0.00    +0.000 C 
ATOM     15  C   UNL     1      -0.045  12.776  18.473  0.00  0.00    +0.000 C 
ATOM     16  C   UNL     1      -1.000  11.894  19.275  0.00  0.00    +0.000 C 
ATOM     17  N   UNL     1      -1.178  12.666  20.489  0.00  0.00    +0.000 N 
ATOM     18  C   UNL     1       0.091  13.261  20.875  0.00  0.00    +0.000 C 
ATOM     19  C   UNL     1       5.333  14.917  18.499  0.00  0.00    +0.000 C 
ATOM     20  C   UNL     1       6.582  14.327  19.147  0.00  0.00    +0.000 C 
ENDROOT
BRANCH  17  21
ATOM     21  C   UNL     1      -2.251  12.567  21.334  0.00  0.00    +0.000 A 
ATOM     22  C   UNL     1      -3.564  12.767  20.908  0.00  0.00    +0.000 A 
ATOM     23  C   UNL     1      -4.601  12.706  21.831  0.00  0.00    +0.000 A 
ATOM     24  N   UNL     1      -4.425  12.480  23.149  0.00  0.00    +0.000 NA
ATOM     25  C   UNL     1      -3.156  12.302  23.554  0.00  0.00    +0.000 A 
ATOM     26  C   UNL     1      -2.064  12.323  22.697  0.00  0.00    +0.000 A 
ENDBRANCH  17  21
BRANCH   1  27
ATOM     27  C   UNL     1       8.982  13.567  17.714  0.00  0.00    +0.000 C 
BRANCH  27  28
ATOM     28  C   UNL     1      10.417  13.180  17.387  0.00  0.00    +0.000 C 
BRANCH  28  30
ATOM     29  O   UNL     1      11.824  11.575  18.534  0.00  0.00    +0.000 OA
ATOM     30  C   UNL     1      10.759  11.849  18.003  0.00  0.00    +0.000 C 
BRANCH  30  31
ATOM     31  O   UNL     1       9.743  10.961  17.908  0.00  0.00    +0.000 OA
ATOM     32  H   UNL     1       9.368  10.894  17.008  0.00  0.00    +0.000 HD
ENDBRANCH  30  31
ENDBRANCH  28  30
ENDBRANCH  27  28
ENDBRANCH   1  27
TORSDOF 5
ENDMDL
