MODEL 1
REMARK VINA RESULT:      -8.7      0.000      0.000
REMARK  Name = 
REMARK  11 active torsions:
REMARK  status: ('A' for Active; 'I' for Inactive)
REMARK    1  A    between atoms: C_1  and  C_2
REMARK    2  A    between atoms: C_5  and  O_6
REMARK    3  A    between atoms: O_6  and  C_7
REMARK    4  A    between atoms: C_7  and  C_8
REMARK    5  A    between atoms: C_10  and  C_11
REMARK    6  A    between atoms: C_13  and  O_14
REMARK    7  A    between atoms: O_14  and  C_15
REMARK    8  A    between atoms: C_18  and  C_19
REMARK    9  A    between atoms: C_22  and  O_23
REMARK   10  A    between atoms: O_23  and  C_24
REMARK   11  A    between atoms: C_27  and  C_28
REMARK                            x       y       z     vdW  Elec       q    Type
REMARK                         _______ _______ _______ _____ _____    ______ ____
ROOT
ATOM      1  C   UNL     1       6.967   6.445  16.942  0.00  0.00    +0.000 C 
ATOM      2  O   UNL     1       7.795   5.297  16.645  0.00  0.00    +0.000 OA
ATOM      3  C   UNL     1       6.896   4.194  16.412  0.00  0.00    +0.000 C 
ATOM      4  C   UNL     1       5.793   4.386  17.451  0.00  0.00    +0.000 C 
ATOM      5  C   UNL     1       5.677   5.916  17.608  0.00  0.00    +0.000 C 
ENDROOT
BRANCH   3   6
ATOM      6  C   UNL     1       6.292   4.200  15.017  0.00  0.00    +0.000 C 
ATOM      7  N   UNL     1       5.793   4.205  13.859  0.00  0.00    +0.000 NA
ENDBRANCH   3   6
BRANCH   1   8
ATOM      8  C   UNL     1       7.685   7.457  17.847  0.00  0.00    +0.000 C 
BRANCH   8   9
ATOM      9  O   UNL     1       7.451   8.792  17.387  0.00  0.00    +0.000 OA
BRANCH   9  14
ATOM     10  C   UNL     1      10.464  13.040  19.673  0.00  0.00    +0.000 C 
ATOM     11  C   UNL     1       9.692  11.905  19.068  0.00  0.00    +0.000 A 
ATOM     12  C   UNL     1       8.885  12.096  17.940  0.00  0.00    +0.000 A 
ATOM     13  C   UNL     1       8.156  11.029  17.403  0.00  0.00    +0.000 A 
ATOM     14  C   UNL     1       8.232   9.758  17.972  0.00  0.00    +0.000 A 
ATOM     15  C   UNL     1       9.026   9.566  19.102  0.00  0.00    +0.000 A 
ATOM     16  C   UNL     1       9.751  10.634  19.646  0.00  0.00    +0.000 A 
ENDBRANCH   9  14
ENDBRANCH   8   9
ENDBRANCH   1   8
BRANCH   4  17
ATOM     17  O   UNL     1       4.574   3.731  17.113  0.00  0.00    +0.000 OA
BRANCH  17  18
ATOM     18  C   UNL     1       3.666   3.445  18.095  0.00  0.00    +0.000 A 
ATOM     19  C   UNL     1       2.288   3.417  17.925  0.00  0.00    +0.000 A 
ATOM     20  C   UNL     1       1.447   3.081  18.990  0.00  0.00    +0.000 A 
ATOM     21  C   UNL     1       1.974   2.749  20.240  0.00  0.00    +0.000 A 
ATOM     22  C   UNL     1       1.057   2.385  21.369  0.00  0.00    +0.000 C 
ATOM     23  C   UNL     1       3.361   2.737  20.400  0.00  0.00    +0.000 A 
ATOM     24  C   UNL     1       4.204   3.078  19.336  0.00  0.00    +0.000 A 
ENDBRANCH  17  18
ENDBRANCH   4  17
BRANCH   5  25
ATOM     25  O   UNL     1       4.556   6.534  16.969  0.00  0.00    +0.000 OA
BRANCH  25  26
ATOM     26  C   UNL     1       3.603   7.047  17.815  0.00  0.00    +0.000 A 
ATOM     27  C   UNL     1       3.475   6.434  19.064  0.00  0.00    +0.000 A 
ATOM     28  C   UNL     1       2.588   6.951  20.020  0.00  0.00    +0.000 A 
ATOM     29  C   UNL     1       1.837   8.098  19.743  0.00  0.00    +0.000 A 
ATOM     30  C   UNL     1       0.943   8.722  20.771  0.00  0.00    +0.000 C 
ATOM     31  C   UNL     1       1.972   8.706  18.494  0.00  0.00    +0.000 A 
ATOM     32  C   UNL     1       2.839   8.176  17.535  0.00  0.00    +0.000 A 
ENDBRANCH  25  26
ENDBRANCH   5  25
TORSDOF 8
ENDMDL
MODEL 2
REMARK VINA RESULT:      -8.6      0.149      1.208
REMARK  Name = 
REMARK  11 active torsions:
REMARK  status: ('A' for Active; 'I' for Inactive)
REMARK    1  A    between atoms: C_1  and  C_2
REMARK    2  A    between atoms: C_5  and  O_6
REMARK    3  A    between atoms: O_6  and  C_7
REMARK    4  A    between atoms: C_7  and  C_8
REMARK    5  A    between atoms: C_10  and  C_11
REMARK    6  A    between atoms: C_13  and  O_14
REMARK    7  A    between atoms: O_14  and  C_15
REMARK    8  A    between atoms: C_18  and  C_19
REMARK    9  A    between atoms: C_22  and  O_23
REMARK   10  A    between atoms: O_23  and  C_24
REMARK   11  A    between atoms: C_27  and  C_28
REMARK                            x       y       z     vdW  Elec       q    Type
REMARK                         _______ _______ _______ _____ _____    ______ ____
ROOT
ATOM      1  C   UNL     1       6.941   6.443  16.880  0.00  0.00    +0.000 C 
ATOM      2  O   UNL     1       7.772   5.329  16.483  0.00  0.00    +0.000 OA
ATOM      3  C   UNL     1       6.885   4.212  16.272  0.00  0.00    +0.000 C 
ATOM      4  C   UNL     1       5.854   4.337  17.391  0.00  0.00    +0.000 C 
ATOM      5  C   UNL     1       5.714   5.857  17.614  0.00  0.00    +0.000 C 
ENDROOT
BRANCH   3   6
ATOM      6  C   UNL     1       6.185   4.252  14.923  0.00  0.00    +0.000 C 
ATOM      7  N   UNL     1       5.605   4.285  13.804  0.00  0.00    +0.000 NA
ENDBRANCH   3   6
BRANCH   1   8
ATOM      8  C   UNL     1       7.697   7.440  17.771  0.00  0.00    +0.000 C 
BRANCH   8   9
ATOM      9  O   UNL     1       7.377   8.784  17.398  0.00  0.00    +0.000 OA
BRANCH   9  14
ATOM     10  C   UNL     1      10.472  13.037  19.563  0.00  0.00    +0.000 C 
ATOM     11  C   UNL     1       9.678  11.901  18.989  0.00  0.00    +0.000 A 
ATOM     12  C   UNL     1       8.824  12.092  17.897  0.00  0.00    +0.000 A 
ATOM     13  C   UNL     1       8.075  11.024  17.389  0.00  0.00    +0.000 A 
ATOM     14  C   UNL     1       8.180   9.751  17.952  0.00  0.00    +0.000 A 
ATOM     15  C   UNL     1       9.021   9.560  19.047  0.00  0.00    +0.000 A 
ATOM     16  C   UNL     1       9.766  10.629  19.562  0.00  0.00    +0.000 A 
ENDBRANCH   9  14
ENDBRANCH   8   9
ENDBRANCH   1   8
BRANCH   4  17
ATOM     17  O   UNL     1       4.630   3.663  17.113  0.00  0.00    +0.000 OA
BRANCH  17  18
ATOM     18  C   UNL     1       3.786   3.346  18.142  0.00  0.00    +0.000 A 
ATOM     19  C   UNL     1       4.186   2.952  19.412  0.00  0.00    +0.000 A 
ATOM     20  C   UNL     1       3.239   2.681  20.404  0.00  0.00    +0.000 A 
ATOM     21  C   UNL     1       1.873   2.819  20.145  0.00  0.00    +0.000 A 
ATOM     22  C   UNL     1       0.872   2.530  21.224  0.00  0.00    +0.000 C 
ATOM     23  C   UNL     1       1.472   3.254  18.881  0.00  0.00    +0.000 A 
ATOM     24  C   UNL     1       2.419   3.522  17.886  0.00  0.00    +0.000 A 
ENDBRANCH  17  18
ENDBRANCH   4  17
BRANCH   5  25
ATOM     25  O   UNL     1       4.536   6.469  17.078  0.00  0.00    +0.000 OA
BRANCH  25  26
ATOM     26  C   UNL     1       3.683   7.019  18.003  0.00  0.00    +0.000 A 
ATOM     27  C   UNL     1       2.988   8.167  17.613  0.00  0.00    +0.000 A 
ATOM     28  C   UNL     1       2.033   8.741  18.464  0.00  0.00    +0.000 A 
ATOM     29  C   UNL     1       1.747   8.159  19.703  0.00  0.00    +0.000 A 
ATOM     30  C   UNL     1       0.674   8.700  20.600  0.00  0.00    +0.000 C 
ATOM     31  C   UNL     1       2.443   7.011  20.085  0.00  0.00    +0.000 A 
ATOM     32  C   UNL     1       3.412   6.455  19.245  0.00  0.00    +0.000 A 
ENDBRANCH  25  26
ENDBRANCH   5  25
TORSDOF 8
ENDMDL
MODEL 3
REMARK VINA RESULT:      -8.5      0.537      1.004
REMARK  Name = 
REMARK  11 active torsions:
REMARK  status: ('A' for Active; 'I' for Inactive)
REMARK    1  A    between atoms: C_1  and  C_2
REMARK    2  A    between atoms: C_5  and  O_6
REMARK    3  A    between atoms: O_6  and  C_7
REMARK    4  A    between atoms: C_7  and  C_8
REMARK    5  A    between atoms: C_10  and  C_11
REMARK    6  A    between atoms: C_13  and  O_14
REMARK    7  A    between atoms: O_14  and  C_15
REMARK    8  A    between atoms: C_18  and  C_19
REMARK    9  A    between atoms: C_22  and  O_23
REMARK   10  A    between atoms: O_23  and  C_24
REMARK   11  A    between atoms: C_27  and  C_28
REMARK                            x       y       z     vdW  Elec       q    Type
REMARK                         _______ _______ _______ _____ _____    ______ ____
ROOT
ATOM      1  C   UNL     1       6.317   7.025  16.931  0.00  0.00    +0.000 C 
ATOM      2  O   UNL     1       7.462   6.209  16.594  0.00  0.00    +0.000 OA
ATOM      3  C   UNL     1       6.975   4.859  16.453  0.00  0.00    +0.000 C 
ATOM      4  C   UNL     1       5.943   4.717  17.569  0.00  0.00    +0.000 C 
ATOM      5  C   UNL     1       5.328   6.125  17.705  0.00  0.00    +0.000 C 
ENDROOT
BRANCH   3   6
ATOM      6  C   UNL     1       6.315   4.601  15.109  0.00  0.00    +0.000 C 
ATOM      7  N   UNL     1       5.767   4.387  13.993  0.00  0.00    +0.000 NA
ENDBRANCH   3   6
BRANCH   1   8
ATOM      8  C   UNL     1       6.709   8.258  17.759  0.00  0.00    +0.000 C 
BRANCH   8   9
ATOM      9  O   UNL     1       8.120   8.485  17.677  0.00  0.00    +0.000 OA
BRANCH   9  14
ATOM     10  C   UNL     1      10.128  13.395  19.731  0.00  0.00    +0.000 C 
ATOM     11  C   UNL     1       9.574  12.110  19.189  0.00  0.00    +0.000 A 
ATOM     12  C   UNL     1       9.788  10.893  19.845  0.00  0.00    +0.000 A 
ATOM     13  C   UNL     1       9.281   9.703  19.312  0.00  0.00    +0.000 A 
ATOM     14  C   UNL     1       8.542   9.712  18.129  0.00  0.00    +0.000 A 
ATOM     15  C   UNL     1       8.335  10.921  17.466  0.00  0.00    +0.000 A 
ATOM     16  C   UNL     1       8.848  12.113  17.994  0.00  0.00    +0.000 A 
ENDBRANCH   9  14
ENDBRANCH   8   9
ENDBRANCH   1   8
BRANCH   4  17
ATOM     17  O   UNL     1       4.997   3.676  17.338  0.00  0.00    +0.000 OA
BRANCH  17  18
ATOM     18  C   UNL     1       4.039   3.414  18.278  0.00  0.00    +0.000 A 
ATOM     19  C   UNL     1       2.683   3.266  18.018  0.00  0.00    +0.000 A 
ATOM     20  C   UNL     1       1.789   2.966  19.050  0.00  0.00    +0.000 A 
ATOM     21  C   UNL     1       2.242   2.790  20.360  0.00  0.00    +0.000 A 
ATOM     22  C   UNL     1       1.270   2.462  21.453  0.00  0.00    +0.000 C 
ATOM     23  C   UNL     1       3.610   2.898  20.615  0.00  0.00    +0.000 A 
ATOM     24  C   UNL     1       4.506   3.202  19.583  0.00  0.00    +0.000 A 
ENDBRANCH  17  18
ENDBRANCH   4  17
BRANCH   5  25
ATOM     25  O   UNL     1       4.024   6.302  17.142  0.00  0.00    +0.000 OA
BRANCH  25  26
ATOM     26  C   UNL     1       3.150   7.043  17.898  0.00  0.00    +0.000 A 
ATOM     27  C   UNL     1       2.883   6.577  19.188  0.00  0.00    +0.000 A 
ATOM     28  C   UNL     1       2.071   7.320  20.057  0.00  0.00    +0.000 A 
ATOM     29  C   UNL     1       1.536   8.547  19.651  0.00  0.00    +0.000 A 
ATOM     30  C   UNL     1       0.733   9.404  20.582  0.00  0.00    +0.000 C 
ATOM     31  C   UNL     1       1.809   9.008  18.362  0.00  0.00    +0.000 A 
ATOM     32  C   UNL     1       2.600   8.254  17.490  0.00  0.00    +0.000 A 
ENDBRANCH  25  26
ENDBRANCH   5  25
TORSDOF 8
ENDMDL
MODEL 4
REMARK VINA RESULT:      -8.5      0.556      1.009
REMARK  Name = 
REMARK  11 active torsions:
REMARK  status: ('A' for Active; 'I' for Inactive)
REMARK    1  A    between atoms: C_1  and  C_2
REMARK    2  A    between atoms: C_5  and  O_6
REMARK    3  A    between atoms: O_6  and  C_7
REMARK    4  A    between atoms: C_7  and  C_8
REMARK    5  A    between atoms: C_10  and  C_11
REMARK    6  A    between atoms: C_13  and  O_14
REMARK    7  A    between atoms: O_14  and  C_15
REMARK    8  A    between atoms: C_18  and  C_19
REMARK    9  A    between atoms: C_22  and  O_23
REMARK   10  A    between atoms: O_23  and  C_24
REMARK   11  A    between atoms: C_27  and  C_28
REMARK                            x       y       z     vdW  Elec       q    Type
REMARK                         _______ _______ _______ _____ _____    ______ ____
ROOT
ATOM      1  C   UNL     1       6.395   7.048  16.927  0.00  0.00    +0.000 C 
ATOM      2  O   UNL     1       7.533   6.216  16.607  0.00  0.00    +0.000 OA
ATOM      3  C   UNL     1       7.032   4.870  16.477  0.00  0.00    +0.000 C 
ATOM      4  C   UNL     1       5.991   4.751  17.586  0.00  0.00    +0.000 C 
ATOM      5  C   UNL     1       5.390   6.167  17.703  0.00  0.00    +0.000 C 
ENDROOT
BRANCH   3   6
ATOM      6  C   UNL     1       6.379   4.604  15.130  0.00  0.00    +0.000 C 
ATOM      7  N   UNL     1       5.837   4.385  14.013  0.00  0.00    +0.000 NA
ENDBRANCH   3   6
BRANCH   1   8
ATOM      8  C   UNL     1       6.795   8.285  17.744  0.00  0.00    +0.000 C 
BRANCH   8   9
ATOM      9  O   UNL     1       8.212   8.481  17.691  0.00  0.00    +0.000 OA
BRANCH   9  14
ATOM     10  C   UNL     1       9.802  13.573  19.666  0.00  0.00    +0.000 C 
ATOM     11  C   UNL     1       9.407  12.222  19.146  0.00  0.00    +0.000 A 
ATOM     12  C   UNL     1       8.726  12.081  17.932  0.00  0.00    +0.000 A 
ATOM     13  C   UNL     1       8.348  10.813  17.476  0.00  0.00    +0.000 A 
ATOM     14  C   UNL     1       8.658   9.671  18.214  0.00  0.00    +0.000 A 
ATOM     15  C   UNL     1       9.327   9.808  19.429  0.00  0.00    +0.000 A 
ATOM     16  C   UNL     1       9.699  11.076  19.892  0.00  0.00    +0.000 A 
ENDBRANCH   9  14
ENDBRANCH   8   9
ENDBRANCH   1   8
BRANCH   4  17
ATOM     17  O   UNL     1       5.035   3.719  17.360  0.00  0.00    +0.000 OA
BRANCH  17  18
ATOM     18  C   UNL     1       4.152   3.386  18.350  0.00  0.00    +0.000 A 
ATOM     19  C   UNL     1       4.484   3.200  19.686  0.00  0.00    +0.000 A 
ATOM     20  C   UNL     1       3.497   2.892  20.628  0.00  0.00    +0.000 A 
ATOM     21  C   UNL     1       2.156   2.785  20.249  0.00  0.00    +0.000 A 
ATOM     22  C   UNL     1       1.110   2.461  21.273  0.00  0.00    +0.000 C 
ATOM     23  C   UNL     1       1.817   3.013  18.914  0.00  0.00    +0.000 A 
ATOM     24  C   UNL     1       2.805   3.316  17.970  0.00  0.00    +0.000 A 
ENDBRANCH  17  18
ENDBRANCH   4  17
BRANCH   5  25
ATOM     25  O   UNL     1       4.093   6.353  17.128  0.00  0.00    +0.000 OA
BRANCH  25  26
ATOM     26  C   UNL     1       3.198   7.050  17.903  0.00  0.00    +0.000 A 
ATOM     27  C   UNL     1       2.949   6.548  19.183  0.00  0.00    +0.000 A 
ATOM     28  C   UNL     1       2.118   7.247  20.069  0.00  0.00    +0.000 A 
ATOM     29  C   UNL     1       1.545   8.466  19.691  0.00  0.00    +0.000 A 
ATOM     30  C   UNL     1       0.718   9.278  20.643  0.00  0.00    +0.000 C 
ATOM     31  C   UNL     1       1.799   8.962  18.412  0.00  0.00    +0.000 A 
ATOM     32  C   UNL     1       2.610   8.252  17.522  0.00  0.00    +0.000 A 
ENDBRANCH  25  26
ENDBRANCH   5  25
TORSDOF 8
ENDMDL
MODEL 5
REMARK VINA RESULT:      -8.4      0.587      1.573
REMARK  Name = 
REMARK  11 active torsions:
REMARK  status: ('A' for Active; 'I' for Inactive)
REMARK    1  A    between atoms: C_1  and  C_2
REMARK    2  A    between atoms: C_5  and  O_6
REMARK    3  A    between atoms: O_6  and  C_7
REMARK    4  A    between atoms: C_7  and  C_8
REMARK    5  A    between atoms: C_10  and  C_11
REMARK    6  A    between atoms: C_13  and  O_14
REMARK    7  A    between atoms: O_14  and  C_15
REMARK    8  A    between atoms: C_18  and  C_19
REMARK    9  A    between atoms: C_22  and  O_23
REMARK   10  A    between atoms: O_23  and  C_24
REMARK   11  A    between atoms: C_27  and  C_28
REMARK                            x       y       z     vdW  Elec       q    Type
REMARK                         _______ _______ _______ _____ _____    ______ ____
ROOT
ATOM      1  C   UNL     1       6.287   7.039  16.952  0.00  0.00    +0.000 C 
ATOM      2  O   UNL     1       7.424   6.266  16.503  0.00  0.00    +0.000 OA
ATOM      3  C   UNL     1       6.961   4.908  16.353  0.00  0.00    +0.000 C 
ATOM      4  C   UNL     1       6.020   4.702  17.537  0.00  0.00    +0.000 C 
ATOM      5  C   UNL     1       5.382   6.088  17.766  0.00  0.00    +0.000 C 
ENDROOT
BRANCH   3   6
ATOM      6  C   UNL     1       6.208   4.675  15.054  0.00  0.00    +0.000 C 
ATOM      7  N   UNL     1       5.584   4.481  13.975  0.00  0.00    +0.000 NA
ENDBRANCH   3   6
BRANCH   1   8
ATOM      8  C   UNL     1       6.711   8.255  17.789  0.00  0.00    +0.000 C 
BRANCH   8   9
ATOM      9  O   UNL     1       8.113   8.499  17.642  0.00  0.00    +0.000 OA
BRANCH   9  14
ATOM     10  C   UNL     1      10.177  13.367  19.739  0.00  0.00    +0.000 C 
ATOM     11  C   UNL     1       9.608  12.093  19.187  0.00  0.00    +0.000 A 
ATOM     12  C   UNL     1       9.839  10.863  19.813  0.00  0.00    +0.000 A 
ATOM     13  C   UNL     1       9.317   9.684  19.269  0.00  0.00    +0.000 A 
ATOM     14  C   UNL     1       8.548   9.716  18.106  0.00  0.00    +0.000 A 
ATOM     15  C   UNL     1       8.325  10.938  17.474  0.00  0.00    +0.000 A 
ATOM     16  C   UNL     1       8.852  12.119  18.011  0.00  0.00    +0.000 A 
ENDBRANCH   9  14
ENDBRANCH   8   9
ENDBRANCH   1   8
BRANCH   4  17
ATOM     17  O   UNL     1       5.085   3.644  17.343  0.00  0.00    +0.000 OA
BRANCH  17  18
ATOM     18  C   UNL     1       4.174   3.360  18.322  0.00  0.00    +0.000 A 
ATOM     19  C   UNL     1       4.473   3.196  19.668  0.00  0.00    +0.000 A 
ATOM     20  C   UNL     1       3.459   2.938  20.596  0.00  0.00    +0.000 A 
ATOM     21  C   UNL     1       2.123   2.859  20.192  0.00  0.00    +0.000 A 
ATOM     22  C   UNL     1       1.048   2.588  21.201  0.00  0.00    +0.000 C 
ATOM     23  C   UNL     1       1.818   3.064  18.845  0.00  0.00    +0.000 A 
ATOM     24  C   UNL     1       2.833   3.318  17.915  0.00  0.00    +0.000 A 
ENDBRANCH  17  18
ENDBRANCH   4  17
BRANCH   5  25
ATOM     25  O   UNL     1       4.036   6.248  17.309  0.00  0.00    +0.000 OA
BRANCH  25  26
ATOM     26  C   UNL     1       3.234   7.038  18.095  0.00  0.00    +0.000 A 
ATOM     27  C   UNL     1       2.742   8.210  17.514  0.00  0.00    +0.000 A 
ATOM     28  C   UNL     1       1.846   9.027  18.217  0.00  0.00    +0.000 A 
ATOM     29  C   UNL     1       1.417   8.670  19.500  0.00  0.00    +0.000 A 
ATOM     30  C   UNL     1       0.398   9.478  20.245  0.00  0.00    +0.000 C 
ATOM     31  C   UNL     1       1.911   7.497  20.073  0.00  0.00    +0.000 A 
ATOM     32  C   UNL     1       2.822   6.696  19.379  0.00  0.00    +0.000 A 
ENDBRANCH  25  26
ENDBRANCH   5  25
TORSDOF 8
ENDMDL
MODEL 6
REMARK VINA RESULT:      -7.6      2.505      6.414
REMARK  Name = 
REMARK  11 active torsions:
REMARK  status: ('A' for Active; 'I' for Inactive)
REMARK    1  A    between atoms: C_1  and  C_2
REMARK    2  A    between atoms: C_5  and  O_6
REMARK    3  A    between atoms: O_6  and  C_7
REMARK    4  A    between atoms: C_7  and  C_8
REMARK    5  A    between atoms: C_10  and  C_11
REMARK    6  A    between atoms: C_13  and  O_14
REMARK    7  A    between atoms: O_14  and  C_15
REMARK    8  A    between atoms: C_18  and  C_19
REMARK    9  A    between atoms: C_22  and  O_23
REMARK   10  A    between atoms: O_23  and  C_24
REMARK   11  A    between atoms: C_27  and  C_28
REMARK                            x       y       z     vdW  Elec       q    Type
REMARK                         _______ _______ _______ _____ _____    ______ ____
ROOT
ATOM      1  C   UNL     1       2.576   4.205  19.093  0.00  0.00    +0.000 C 
ATOM      2  O   UNL     1       1.873   3.143  18.409  0.00  0.00    +0.000 OA
ATOM      3  C   UNL     1       2.859   2.436  17.628  0.00  0.00    +0.000 C 
ATOM      4  C   UNL     1       3.767   3.539  17.089  0.00  0.00    +0.000 C 
ATOM      5  C   UNL     1       3.770   4.611  18.199  0.00  0.00    +0.000 C 
ENDROOT
BRANCH   3   6
ATOM      6  C   UNL     1       3.678   1.454  18.449  0.00  0.00    +0.000 C 
ATOM      7  N   UNL     1       4.358   0.639  19.129  0.00  0.00    +0.000 NA
ENDBRANCH   3   6
BRANCH   1   8
ATOM      8  C   UNL     1       1.665   5.408  19.382  0.00  0.00    +0.000 C 
BRANCH   8   9
ATOM      9  O   UNL     1       2.432   6.501  19.898  0.00  0.00    +0.000 OA
BRANCH   9  14
ATOM     10  C   UNL     1       0.586  11.763  18.777  0.00  0.00    +0.000 C 
ATOM     11  C   UNL     1       1.058  10.366  19.053  0.00  0.00    +0.000 A 
ATOM     12  C   UNL     1       0.897   9.780  20.313  0.00  0.00    +0.000 A 
ATOM     13  C   UNL     1       1.365   8.484  20.556  0.00  0.00    +0.000 A 
ATOM     14  C   UNL     1       1.982   7.749  19.543  0.00  0.00    +0.000 A 
ATOM     15  C   UNL     1       2.154   8.333  18.289  0.00  0.00    +0.000 A 
ATOM     16  C   UNL     1       1.694   9.634  18.046  0.00  0.00    +0.000 A 
ENDBRANCH   9  14
ENDBRANCH   8   9
ENDBRANCH   1   8
BRANCH   4  17
ATOM     17  O   UNL     1       5.060   3.075  16.710  0.00  0.00    +0.000 OA
BRANCH  17  18
ATOM     18  C   UNL     1       5.662   3.591  15.595  0.00  0.00    +0.000 A 
ATOM     19  C   UNL     1       5.137   3.545  14.310  0.00  0.00    +0.000 A 
ATOM     20  C   UNL     1       5.820   4.133  13.241  0.00  0.00    +0.000 A 
ATOM     21  C   UNL     1       7.034   4.794  13.446  0.00  0.00    +0.000 A 
ATOM     22  C   UNL     1       7.750   5.424  12.289  0.00  0.00    +0.000 C 
ATOM     23  C   UNL     1       7.542   4.875  14.744  0.00  0.00    +0.000 A 
ATOM     24  C   UNL     1       6.861   4.283  15.814  0.00  0.00    +0.000 A 
ENDBRANCH  17  18
ENDBRANCH   4  17
BRANCH   5  25
ATOM     25  O   UNL     1       4.942   4.672  19.016  0.00  0.00    +0.000 OA
BRANCH  25  26
ATOM     26  C   UNL     1       5.872   5.612  18.646  0.00  0.00    +0.000 A 
ATOM     27  C   UNL     1       5.442   6.610  17.767  0.00  0.00    +0.000 A 
ATOM     28  C   UNL     1       6.303   7.657  17.409  0.00  0.00    +0.000 A 
ATOM     29  C   UNL     1       7.594   7.729  17.943  0.00  0.00    +0.000 A 
ATOM     30  C   UNL     1       8.508   8.878  17.644  0.00  0.00    +0.000 C 
ATOM     31  C   UNL     1       8.015   6.729  18.821  0.00  0.00    +0.000 A 
ATOM     32  C   UNL     1       7.164   5.674  19.159  0.00  0.00    +0.000 A 
ENDBRANCH  25  26
ENDBRANCH   5  25
TORSDOF 8
ENDMDL
MODEL 7
REMARK VINA RESULT:      -7.6      2.934      6.832
REMARK  Name = 
REMARK  11 active torsions:
REMARK  status: ('A' for Active; 'I' for Inactive)
REMARK    1  A    between atoms: C_1  and  C_2
REMARK    2  A    between atoms: C_5  and  O_6
REMARK    3  A    between atoms: O_6  and  C_7
REMARK    4  A    between atoms: C_7  and  C_8
REMARK    5  A    between atoms: C_10  and  C_11
REMARK    6  A    between atoms: C_13  and  O_14
REMARK    7  A    between atoms: O_14  and  C_15
REMARK    8  A    between atoms: C_18  and  C_19
REMARK    9  A    between atoms: C_22  and  O_23
REMARK   10  A    between atoms: O_23  and  C_24
REMARK   11  A    between atoms: C_27  and  C_28
REMARK                            x       y       z     vdW  Elec       q    Type
REMARK                         _______ _______ _______ _____ _____    ______ ____
ROOT
ATOM      1  C   UNL     1       6.990   5.122  15.772  0.00  0.00    +0.000 C 
ATOM      2  O   UNL     1       7.463   6.418  16.204  0.00  0.00    +0.000 OA
ATOM      3  C   UNL     1       6.744   6.732  17.415  0.00  0.00    +0.000 C 
ATOM      4  C   UNL     1       5.329   6.225  17.151  0.00  0.00    +0.000 C 
ATOM      5  C   UNL     1       5.527   4.988  16.251  0.00  0.00    +0.000 C 
ENDROOT
BRANCH   3   6
ATOM      6  C   UNL     1       7.316   6.044  18.643  0.00  0.00    +0.000 C 
ATOM      7  N   UNL     1       7.790   5.471  19.662  0.00  0.00    +0.000 NA
ENDBRANCH   3   6
BRANCH   1   8
ATOM      8  C   UNL     1       7.094   4.947  14.250  0.00  0.00    +0.000 C 
BRANCH   8   9
ATOM      9  O   UNL     1       6.949   3.568  13.895  0.00  0.00    +0.000 OA
BRANCH   9  14
ATOM     10  C   UNL     1       3.030   2.846   9.837  0.00  0.00    +0.000 C 
ATOM     11  C   UNL     1       4.060   3.011  10.914  0.00  0.00    +0.000 A 
ATOM     12  C   UNL     1       3.942   4.012  11.885  0.00  0.00    +0.000 A 
ATOM     13  C   UNL     1       4.926   4.164  12.869  0.00  0.00    +0.000 A 
ATOM     14  C   UNL     1       6.029   3.311  12.908  0.00  0.00    +0.000 A 
ATOM     15  C   UNL     1       6.156   2.319  11.937  0.00  0.00    +0.000 A 
ATOM     16  C   UNL     1       5.177   2.171  10.946  0.00  0.00    +0.000 A 
ENDBRANCH   9  14
ENDBRANCH   8   9
ENDBRANCH   1   8
BRANCH   4  17
ATOM     17  O   UNL     1       4.583   5.979  18.340  0.00  0.00    +0.000 OA
BRANCH  17  18
ATOM     18  C   UNL     1       3.544   6.806  18.667  0.00  0.00    +0.000 A 
ATOM     19  C   UNL     1       2.825   6.754  19.855  0.00  0.00    +0.000 A 
ATOM     20  C   UNL     1       1.798   7.669  20.105  0.00  0.00    +0.000 A 
ATOM     21  C   UNL     1       1.486   8.665  19.177  0.00  0.00    +0.000 A 
ATOM     22  C   UNL     1       0.385   9.642  19.465  0.00  0.00    +0.000 C 
ATOM     23  C   UNL     1       2.235   8.743  18.001  0.00  0.00    +0.000 A 
ATOM     24  C   UNL     1       3.260   7.825  17.747  0.00  0.00    +0.000 A 
ENDBRANCH  17  18
ENDBRANCH   4  17
BRANCH   5  25
ATOM     25  O   UNL     1       5.377   3.714  16.885  0.00  0.00    +0.000 OA
BRANCH  25  26
ATOM     26  C   UNL     1       4.183   3.513  17.533  0.00  0.00    +0.000 A 
ATOM     27  C   UNL     1       4.253   3.117  18.872  0.00  0.00    +0.000 A 
ATOM     28  C   UNL     1       3.083   2.977  19.631  0.00  0.00    +0.000 A 
ATOM     29  C   UNL     1       1.833   3.251  19.066  0.00  0.00    +0.000 A 
ATOM     30  C   UNL     1       0.572   3.190  19.873  0.00  0.00    +0.000 C 
ATOM     31  C   UNL     1       1.771   3.648  17.729  0.00  0.00    +0.000 A 
ATOM     32  C   UNL     1       2.938   3.765  16.968  0.00  0.00    +0.000 A 
ENDBRANCH  25  26
ENDBRANCH   5  25
TORSDOF 8
ENDMDL
MODEL 8
REMARK VINA RESULT:      -7.4      5.342      9.796
REMARK  Name = 
REMARK  11 active torsions:
REMARK  status: ('A' for Active; 'I' for Inactive)
REMARK    1  A    between atoms: C_1  and  C_2
REMARK    2  A    between atoms: C_5  and  O_6
REMARK    3  A    between atoms: O_6  and  C_7
REMARK    4  A    between atoms: C_7  and  C_8
REMARK    5  A    between atoms: C_10  and  C_11
REMARK    6  A    between atoms: C_13  and  O_14
REMARK    7  A    between atoms: O_14  and  C_15
REMARK    8  A    between atoms: C_18  and  C_19
REMARK    9  A    between atoms: C_22  and  O_23
REMARK   10  A    between atoms: O_23  and  C_24
REMARK   11  A    between atoms: C_27  and  C_28
REMARK                            x       y       z     vdW  Elec       q    Type
REMARK                         _______ _______ _______ _____ _____    ______ ____
ROOT
ATOM      1  C   UNL     1       1.189   9.520  20.307  0.00  0.00    +0.000 C 
ATOM      2  O   UNL     1       1.018   9.427  18.874  0.00  0.00    +0.000 OA
ATOM      3  C   UNL     1       0.184  10.538  18.489  0.00  0.00    +0.000 C 
ATOM      4  C   UNL     1      -0.847  10.637  19.611  0.00  0.00    +0.000 C 
ATOM      5  C   UNL     1      -0.082  10.191  20.874  0.00  0.00    +0.000 C 
ENDROOT
BRANCH   3   6
ATOM      6  C   UNL     1       0.947  11.848  18.378  0.00  0.00    +0.000 C 
ATOM      7  N   UNL     1       1.580  12.935  18.285  0.00  0.00    +0.000 NA
ENDBRANCH   3   6
BRANCH   1   8
ATOM      8  C   UNL     1       1.425   8.146  20.951  0.00  0.00    +0.000 C 
BRANCH   8   9
ATOM      9  O   UNL     1       2.454   7.438  20.252  0.00  0.00    +0.000 OA
BRANCH   9  14
ATOM     10  C   UNL     1       0.796   2.209  18.749  0.00  0.00    +0.000 C 
ATOM     11  C   UNL     1       1.258   3.583  19.136  0.00  0.00    +0.000 A 
ATOM     12  C   UNL     1       1.110   4.056  20.445  0.00  0.00    +0.000 A 
ATOM     13  C   UNL     1       1.527   5.349  20.781  0.00  0.00    +0.000 A 
ATOM     14  C   UNL     1       2.111   6.179  19.823  0.00  0.00    +0.000 A 
ATOM     15  C   UNL     1       2.250   5.715  18.516  0.00  0.00    +0.000 A 
ATOM     16  C   UNL     1       1.826   4.424  18.176  0.00  0.00    +0.000 A 
ENDBRANCH   9  14
ENDBRANCH   8   9
ENDBRANCH   1   8
BRANCH   4  17
ATOM     17  O   UNL     1      -1.458  11.921  19.710  0.00  0.00    +0.000 OA
BRANCH  17  18
ATOM     18  C   UNL     1      -2.765  12.076  19.340  0.00  0.00    +0.000 A 
ATOM     19  C   UNL     1      -3.341  11.541  18.196  0.00  0.00    +0.000 A 
ATOM     20  C   UNL     1      -4.700  11.734  17.926  0.00  0.00    +0.000 A 
ATOM     21  C   UNL     1      -5.510  12.450  18.811  0.00  0.00    +0.000 A 
ATOM     22  C   UNL     1      -6.966  12.641  18.510  0.00  0.00    +0.000 C 
ATOM     23  C   UNL     1      -4.940  12.953  19.983  0.00  0.00    +0.000 A 
ATOM     24  C   UNL     1      -3.579  12.765  20.251  0.00  0.00    +0.000 A 
ENDBRANCH  17  18
ENDBRANCH   4  17
BRANCH   5  25
ATOM     25  O   UNL     1       0.321  11.232  21.769  0.00  0.00    +0.000 OA
BRANCH  25  26
ATOM     26  C   UNL     1      -0.694  11.832  22.473  0.00  0.00    +0.000 A 
ATOM     27  C   UNL     1      -0.668  13.228  22.547  0.00  0.00    +0.000 A 
ATOM     28  C   UNL     1      -1.713  13.924  23.170  0.00  0.00    +0.000 A 
ATOM     29  C   UNL     1      -2.805  13.233  23.706  0.00  0.00    +0.000 A 
ATOM     30  C   UNL     1      -3.976  13.951  24.305  0.00  0.00    +0.000 C 
ATOM     31  C   UNL     1      -2.825  11.839  23.627  0.00  0.00    +0.000 A 
ATOM     32  C   UNL     1      -1.771  11.146  23.025  0.00  0.00    +0.000 A 
ENDBRANCH  25  26
ENDBRANCH   5  25
TORSDOF 8
ENDMDL
MODEL 9
REMARK VINA RESULT:      -7.3      5.411      9.827
REMARK  Name = 
REMARK  11 active torsions:
REMARK  status: ('A' for Active; 'I' for Inactive)
REMARK    1  A    between atoms: C_1  and  C_2
REMARK    2  A    between atoms: C_5  and  O_6
REMARK    3  A    between atoms: O_6  and  C_7
REMARK    4  A    between atoms: C_7  and  C_8
REMARK    5  A    between atoms: C_10  and  C_11
REMARK    6  A    between atoms: C_13  and  O_14
REMARK    7  A    between atoms: O_14  and  C_15
REMARK    8  A    between atoms: C_18  and  C_19
REMARK    9  A    between atoms: C_22  and  O_23
REMARK   10  A    between atoms: O_23  and  C_24
REMARK   11  A    between atoms: C_27  and  C_28
REMARK                            x       y       z     vdW  Elec       q    Type
REMARK                         _______ _______ _______ _____ _____    ______ ____
ROOT
ATOM      1  C   UNL     1       1.107   9.603  20.352  0.00  0.00    +0.000 C 
ATOM      2  O   UNL     1       0.940   9.490  18.920  0.00  0.00    +0.000 OA
ATOM      3  C   UNL     1       0.135  10.616  18.513  0.00  0.00    +0.000 C 
ATOM      4  C   UNL     1      -0.896  10.759  19.629  0.00  0.00    +0.000 C 
ATOM      5  C   UNL     1      -0.148  10.315  20.903  0.00  0.00    +0.000 C 
ENDROOT
BRANCH   3   6
ATOM      6  C   UNL     1       0.932  11.903  18.383  0.00  0.00    +0.000 C 
ATOM      7  N   UNL     1       1.593  12.973  18.277  0.00  0.00    +0.000 NA
ENDBRANCH   3   6
BRANCH   1   8
ATOM      8  C   UNL     1       1.306   8.234  21.019  0.00  0.00    +0.000 C 
BRANCH   8   9
ATOM      9  O   UNL     1       2.347   7.504  20.360  0.00  0.00    +0.000 OA
BRANCH   9  14
ATOM     10  C   UNL     1       1.217   2.226  18.566  0.00  0.00    +0.000 C 
ATOM     11  C   UNL     1       1.490   3.620  19.049  0.00  0.00    +0.000 A 
ATOM     12  C   UNL     1       1.947   4.614  18.176  0.00  0.00    +0.000 A 
ATOM     13  C   UNL     1       2.216   5.903  18.651  0.00  0.00    +0.000 A 
ATOM     14  C   UNL     1       2.020   6.221  19.995  0.00  0.00    +0.000 A 
ATOM     15  C   UNL     1       1.576   5.230  20.870  0.00  0.00    +0.000 A 
ATOM     16  C   UNL     1       1.312   3.938  20.398  0.00  0.00    +0.000 A 
ENDBRANCH   9  14
ENDBRANCH   8   9
ENDBRANCH   1   8
BRANCH   4  17
ATOM     17  O   UNL     1      -1.475  12.059  19.704  0.00  0.00    +0.000 OA
BRANCH  17  18
ATOM     18  C   UNL     1      -2.816  12.215  19.484  0.00  0.00    +0.000 A 
ATOM     19  C   UNL     1      -3.656  13.038  20.223  0.00  0.00    +0.000 A 
ATOM     20  C   UNL     1      -5.010  13.151  19.895  0.00  0.00    +0.000 A 
ATOM     21  C   UNL     1      -5.543  12.454  18.807  0.00  0.00    +0.000 A 
ATOM     22  C   UNL     1      -6.996  12.592  18.465  0.00  0.00    +0.000 C 
ATOM     23  C   UNL     1      -4.690  11.659  18.039  0.00  0.00    +0.000 A 
ATOM     24  C   UNL     1      -3.335  11.542  18.370  0.00  0.00    +0.000 A 
ENDBRANCH  17  18
ENDBRANCH   4  17
BRANCH   5  25
ATOM     25  O   UNL     1       0.278  11.360  21.782  0.00  0.00    +0.000 OA
BRANCH  25  26
ATOM     26  C   UNL     1      -0.720  11.968  22.504  0.00  0.00    +0.000 A 
ATOM     27  C   UNL     1      -0.661  13.361  22.609  0.00  0.00    +0.000 A 
ATOM     28  C   UNL     1      -1.687  14.066  23.253  0.00  0.00    +0.000 A 
ATOM     29  C   UNL     1      -2.792  13.389  23.779  0.00  0.00    +0.000 A 
ATOM     30  C   UNL     1      -3.943  14.120  24.400  0.00  0.00    +0.000 C 
ATOM     31  C   UNL     1      -2.845  11.998  23.670  0.00  0.00    +0.000 A 
ATOM     32  C   UNL     1      -1.809  11.295  23.047  0.00  0.00    +0.000 A 
ENDBRANCH  25  26
ENDBRANCH   5  25
TORSDOF 8
ENDMDL
