MODEL 1
REMARK VINA RESULT:      -7.1      0.000      0.000
REMARK  Name = 
REMARK  6 active torsions:
REMARK  status: ('A' for Active; 'I' for Inactive)
REMARK    1  A    between atoms: C_1  and  S_2
REMARK    2  A    between atoms: S_2  and  N_5
REMARK    3  A    between atoms: C_9  and  S_10
REMARK    4  A    between atoms: S_10  and  C_11
REMARK    5  A    between atoms: C_11  and  C_12
REMARK    6  A    between atoms: C_15  and  N_16
REMARK                            x       y       z     vdW  Elec       q    Type
REMARK                         _______ _______ _______ _____ _____    ______ ____
ROOT
ATOM      1  S   UNL     1       4.695   2.417  19.724  0.00  0.00    +0.000 S 
ENDROOT
BRANCH   1   6
ATOM      2  N   UNL     1       1.964   2.778  19.870  0.00  0.00    +0.000 N 
ATOM      3  C   UNL     1       0.951   3.180  20.846  0.00  0.00    +0.000 C 
ATOM      4  C   UNL     1       1.638   2.725  22.133  0.00  0.00    +0.000 C 
ATOM      5  N   UNL     1       3.090   2.607  21.830  0.00  0.00    +0.000 NA
ATOM      6  C   UNL     1       3.182   2.582  20.537  0.00  0.00    +0.000 C 
BRANCH   2   8
ATOM      7  C   UNL     1       1.489   4.319  17.716  0.00  0.00    +0.000 C 
ATOM      8  S   UNL     1       1.517   2.632  18.280  0.00  0.00    +0.000 S 
ATOM      9  O   UNL     1       0.151   2.149  18.249  0.00  0.00    +0.000 OA
ATOM     10  O   UNL     1       2.548   1.943  17.536  0.00  0.00    +0.000 OA
ENDBRANCH   2   8
ENDBRANCH   1   6
BRANCH   1  11
ATOM     11  C   UNL     1       4.974   4.140  19.204  0.00  0.00    +0.000 C 
BRANCH  11  12
ATOM     12  C   UNL     1       5.561   4.280  17.810  0.00  0.00    +0.000 A 
ATOM     13  C   UNL     1       4.758   4.135  16.666  0.00  0.00    +0.000 A 
ATOM     14  C   UNL     1       5.290   4.314  15.385  0.00  0.00    +0.000 A 
ATOM     15  C   UNL     1       6.638   4.658  15.237  0.00  0.00    +0.000 A 
ATOM     16  C   UNL     1       7.452   4.831  16.363  0.00  0.00    +0.000 A 
ATOM     17  C   UNL     1       6.910   4.644  17.641  0.00  0.00    +0.000 A 
BRANCH  15  18
ATOM     18  N   UNL     1       7.200   4.848  13.892  0.00  0.00    +0.000 N 
ATOM     19  O   UNL     1       8.105   5.684  13.759  0.00  0.00    +0.000 OA
ATOM     20  O   UNL     1       6.739   4.159  12.972  0.00  0.00    +0.000 OA
ENDBRANCH  15  18
ENDBRANCH  11  12
ENDBRANCH   1  11
TORSDOF 5
ENDMDL
MODEL 2
REMARK VINA RESULT:      -6.9      1.454      2.026
REMARK  Name = 
REMARK  6 active torsions:
REMARK  status: ('A' for Active; 'I' for Inactive)
REMARK    1  A    between atoms: C_1  and  S_2
REMARK    2  A    between atoms: S_2  and  N_5
REMARK    3  A    between atoms: C_9  and  S_10
REMARK    4  A    between atoms: S_10  and  C_11
REMARK    5  A    between atoms: C_11  and  C_12
REMARK    6  A    between atoms: C_15  and  N_16
REMARK                            x       y       z     vdW  Elec       q    Type
REMARK                         _______ _______ _______ _____ _____    ______ ____
ROOT
ATOM      1  S   UNL     1       2.945   5.855  19.147  0.00  0.00    +0.000 S 
ENDROOT
BRANCH   1   6
ATOM      2  N   UNL     1       1.659   3.484  19.725  0.00  0.00    +0.000 N 
ATOM      3  C   UNL     1       1.148   2.756  20.887  0.00  0.00    +0.000 C 
ATOM      4  C   UNL     1       2.100   3.283  21.960  0.00  0.00    +0.000 C 
ATOM      5  N   UNL     1       2.666   4.560  21.448  0.00  0.00    +0.000 NA
ATOM      6  C   UNL     1       2.430   4.567  20.173  0.00  0.00    +0.000 C 
BRANCH   2   8
ATOM      7  C   UNL     1       2.777   2.165  17.662  0.00  0.00    +0.000 C 
ATOM      8  S   UNL     1       1.269   2.932  18.211  0.00  0.00    +0.000 S 
ATOM      9  O   UNL     1       1.046   4.088  17.365  0.00  0.00    +0.000 OA
ATOM     10  O   UNL     1       0.263   1.896  18.304  0.00  0.00    +0.000 OA
ENDBRANCH   2   8
ENDBRANCH   1   6
BRANCH   1  11
ATOM     11  C   UNL     1       4.745   5.579  19.160  0.00  0.00    +0.000 C 
BRANCH  11  12
ATOM     12  C   UNL     1       5.361   5.437  17.778  0.00  0.00    +0.000 A 
ATOM     13  C   UNL     1       6.712   5.748  17.550  0.00  0.00    +0.000 A 
ATOM     14  C   UNL     1       7.289   5.569  16.289  0.00  0.00    +0.000 A 
ATOM     15  C   UNL     1       6.517   5.057  15.241  0.00  0.00    +0.000 A 
ATOM     16  C   UNL     1       5.176   4.718  15.450  0.00  0.00    +0.000 A 
ATOM     17  C   UNL     1       4.605   4.907  16.715  0.00  0.00    +0.000 A 
BRANCH  15  18
ATOM     18  N   UNL     1       7.122   4.867  13.914  0.00  0.00    +0.000 N 
ATOM     19  O   UNL     1       6.633   3.998  13.178  0.00  0.00    +0.000 OA
ATOM     20  O   UNL     1       8.081   5.588  13.608  0.00  0.00    +0.000 OA
ENDBRANCH  15  18
ENDBRANCH  11  12
ENDBRANCH   1  11
TORSDOF 5
ENDMDL
MODEL 3
REMARK VINA RESULT:      -6.9      4.748      6.916
REMARK  Name = 
REMARK  6 active torsions:
REMARK  status: ('A' for Active; 'I' for Inactive)
REMARK    1  A    between atoms: C_1  and  S_2
REMARK    2  A    between atoms: S_2  and  N_5
REMARK    3  A    between atoms: C_9  and  S_10
REMARK    4  A    between atoms: S_10  and  C_11
REMARK    5  A    between atoms: C_11  and  C_12
REMARK    6  A    between atoms: C_15  and  N_16
REMARK                            x       y       z     vdW  Elec       q    Type
REMARK                         _______ _______ _______ _____ _____    ______ ____
ROOT
ATOM      1  S   UNL     1       3.783   4.818  18.114  0.00  0.00    +0.000 S 
ENDROOT
BRANCH   1   6
ATOM      2  N   UNL     1       6.420   5.252  17.426  0.00  0.00    +0.000 N 
ATOM      3  C   UNL     1       7.747   5.201  18.039  0.00  0.00    +0.000 C 
ATOM      4  C   UNL     1       7.372   5.507  19.489  0.00  0.00    +0.000 C 
ATOM      5  N   UNL     1       5.925   5.195  19.637  0.00  0.00    +0.000 NA
ATOM      6  C   UNL     1       5.451   5.128  18.432  0.00  0.00    +0.000 C 
BRANCH   2   8
ATOM      7  C   UNL     1       5.780   3.833  15.230  0.00  0.00    +0.000 C 
ATOM      8  S   UNL     1       6.314   5.437  15.781  0.00  0.00    +0.000 S 
ATOM      9  O   UNL     1       7.656   5.638  15.274  0.00  0.00    +0.000 OA
ATOM     10  O   UNL     1       5.266   6.380  15.455  0.00  0.00    +0.000 OA
ENDBRANCH   2   8
ENDBRANCH   1   6
BRANCH   1  11
ATOM     11  C   UNL     1       3.027   5.568  19.592  0.00  0.00    +0.000 C 
BRANCH  11  12
ATOM     12  C   UNL     1       2.456   6.957  19.359  0.00  0.00    +0.000 A 
ATOM     13  C   UNL     1       2.520   7.566  18.095  0.00  0.00    +0.000 A 
ATOM     14  C   UNL     1       1.950   8.823  17.871  0.00  0.00    +0.000 A 
ATOM     15  C   UNL     1       1.291   9.480  18.916  0.00  0.00    +0.000 A 
ATOM     16  C   UNL     1       1.194   8.883  20.178  0.00  0.00    +0.000 A 
ATOM     17  C   UNL     1       1.774   7.626  20.393  0.00  0.00    +0.000 A 
BRANCH  15  18
ATOM     18  N   UNL     1       0.689  10.801  18.683  0.00  0.00    +0.000 N 
ATOM     19  O   UNL     1      -0.543  10.862  18.574  0.00  0.00    +0.000 OA
ATOM     20  O   UNL     1       1.449  11.777  18.614  0.00  0.00    +0.000 OA
ENDBRANCH  15  18
ENDBRANCH  11  12
ENDBRANCH   1  11
TORSDOF 5
ENDMDL
MODEL 4
REMARK VINA RESULT:      -6.9      4.818      5.466
REMARK  Name = 
REMARK  6 active torsions:
REMARK  status: ('A' for Active; 'I' for Inactive)
REMARK    1  A    between atoms: C_1  and  S_2
REMARK    2  A    between atoms: S_2  and  N_5
REMARK    3  A    between atoms: C_9  and  S_10
REMARK    4  A    between atoms: S_10  and  C_11
REMARK    5  A    between atoms: C_11  and  C_12
REMARK    6  A    between atoms: C_15  and  N_16
REMARK                            x       y       z     vdW  Elec       q    Type
REMARK                         _______ _______ _______ _____ _____    ______ ____
ROOT
ATOM      1  S   UNL     1       2.142   6.533  20.401  0.00  0.00    +0.000 S 
ENDROOT
BRANCH   1   6
ATOM      2  N   UNL     1       1.093   9.059  20.035  0.00  0.00    +0.000 N 
ATOM      3  C   UNL     1       0.802   9.990  18.944  0.00  0.00    +0.000 C 
ATOM      4  C   UNL     1       1.871   9.555  17.943  0.00  0.00    +0.000 C 
ATOM      5  N   UNL     1       2.281   8.175  18.318  0.00  0.00    +0.000 NA
ATOM      6  C   UNL     1       1.858   7.996  19.532  0.00  0.00    +0.000 C 
BRANCH   2   8
ATOM      7  C   UNL     1      -0.201  11.024  21.342  0.00  0.00    +0.000 C 
ATOM      8  S   UNL     1       0.514   9.408  21.549  0.00  0.00    +0.000 S 
ATOM      9  O   UNL     1       1.653   9.555  22.433  0.00  0.00    +0.000 OA
ATOM     10  O   UNL     1      -0.558   8.499  21.892  0.00  0.00    +0.000 OA
ENDBRANCH   2   8
ENDBRANCH   1   6
BRANCH   1  11
ATOM     11  C   UNL     1       2.192   5.343  19.024  0.00  0.00    +0.000 C 
BRANCH  11  12
ATOM     12  C   UNL     1       3.589   5.064  18.496  0.00  0.00    +0.000 A 
ATOM     13  C   UNL     1       3.833   4.943  17.118  0.00  0.00    +0.000 A 
ATOM     14  C   UNL     1       5.128   4.736  16.631  0.00  0.00    +0.000 A 
ATOM     15  C   UNL     1       6.201   4.664  17.526  0.00  0.00    +0.000 A 
ATOM     16  C   UNL     1       5.985   4.805  18.902  0.00  0.00    +0.000 A 
ATOM     17  C   UNL     1       4.684   5.005  19.379  0.00  0.00    +0.000 A 
BRANCH  15  18
ATOM     18  N   UNL     1       7.563   4.447  17.017  0.00  0.00    +0.000 N 
ATOM     19  O   UNL     1       8.437   4.121  17.833  0.00  0.00    +0.000 OA
ATOM     20  O   UNL     1       7.757   4.599  15.804  0.00  0.00    +0.000 OA
ENDBRANCH  15  18
ENDBRANCH  11  12
ENDBRANCH   1  11
TORSDOF 5
ENDMDL
MODEL 5
REMARK VINA RESULT:      -6.8      4.561      6.773
REMARK  Name = 
REMARK  6 active torsions:
REMARK  status: ('A' for Active; 'I' for Inactive)
REMARK    1  A    between atoms: C_1  and  S_2
REMARK    2  A    between atoms: S_2  and  N_5
REMARK    3  A    between atoms: C_9  and  S_10
REMARK    4  A    between atoms: S_10  and  C_11
REMARK    5  A    between atoms: C_11  and  C_12
REMARK    6  A    between atoms: C_15  and  N_16
REMARK                            x       y       z     vdW  Elec       q    Type
REMARK                         _______ _______ _______ _____ _____    ______ ____
ROOT
ATOM      1  S   UNL     1       4.012   4.489  18.261  0.00  0.00    +0.000 S 
ENDROOT
BRANCH   1   6
ATOM      2  N   UNL     1       6.553   5.267  17.520  0.00  0.00    +0.000 N 
ATOM      3  C   UNL     1       7.887   5.394  18.106  0.00  0.00    +0.000 C 
ATOM      4  C   UNL     1       7.505   5.649  19.563  0.00  0.00    +0.000 C 
ATOM      5  N   UNL     1       6.115   5.148  19.741  0.00  0.00    +0.000 NA
ATOM      6  C   UNL     1       5.629   5.017  18.546  0.00  0.00    +0.000 C 
BRANCH   2   8
ATOM      7  C   UNL     1       5.870   3.815  15.359  0.00  0.00    +0.000 C 
ATOM      8  S   UNL     1       6.390   5.435  15.878  0.00  0.00    +0.000 S 
ATOM      9  O   UNL     1       7.711   5.657  15.325  0.00  0.00    +0.000 OA
ATOM     10  O   UNL     1       5.314   6.354  15.578  0.00  0.00    +0.000 OA
ENDBRANCH   2   8
ENDBRANCH   1   6
BRANCH   1  11
ATOM     11  C   UNL     1       3.171   5.231  19.696  0.00  0.00    +0.000 C 
BRANCH  11  12
ATOM     12  C   UNL     1       2.531   6.579  19.412  0.00  0.00    +0.000 A 
ATOM     13  C   UNL     1       1.957   7.342  20.442  0.00  0.00    +0.000 A 
ATOM     14  C   UNL     1       1.414   8.605  20.186  0.00  0.00    +0.000 A 
ATOM     15  C   UNL     1       1.454   9.126  18.889  0.00  0.00    +0.000 A 
ATOM     16  C   UNL     1       2.042   8.394  17.850  0.00  0.00    +0.000 A 
ATOM     17  C   UNL     1       2.578   7.128  18.116  0.00  0.00    +0.000 A 
BRANCH  15  18
ATOM     18  N   UNL     1       0.884  10.454  18.616  0.00  0.00    +0.000 N 
ATOM     19  O   UNL     1      -0.331  10.521  18.382  0.00  0.00    +0.000 OA
ATOM     20  O   UNL     1       1.650  11.426  18.641  0.00  0.00    +0.000 OA
ENDBRANCH  15  18
ENDBRANCH  11  12
ENDBRANCH   1  11
TORSDOF 5
ENDMDL
MODEL 6
REMARK VINA RESULT:      -6.7      5.234      5.875
REMARK  Name = 
REMARK  6 active torsions:
REMARK  status: ('A' for Active; 'I' for Inactive)
REMARK    1  A    between atoms: C_1  and  S_2
REMARK    2  A    between atoms: S_2  and  N_5
REMARK    3  A    between atoms: C_9  and  S_10
REMARK    4  A    between atoms: S_10  and  C_11
REMARK    5  A    between atoms: C_11  and  C_12
REMARK    6  A    between atoms: C_15  and  N_16
REMARK                            x       y       z     vdW  Elec       q    Type
REMARK                         _______ _______ _______ _____ _____    ______ ____
ROOT
ATOM      1  S   UNL     1       2.101   7.290  20.019  0.00  0.00    +0.000 S 
ENDROOT
BRANCH   1   6
ATOM      2  N   UNL     1       0.597   9.558  20.475  0.00  0.00    +0.000 N 
ATOM      3  C   UNL     1      -0.002  10.660  19.722  0.00  0.00    +0.000 C 
ATOM      4  C   UNL     1       0.971  10.724  18.545  0.00  0.00    +0.000 C 
ATOM      5  N   UNL     1       1.659   9.407  18.478  0.00  0.00    +0.000 NA
ATOM      6  C   UNL     1       1.451   8.839  19.625  0.00  0.00    +0.000 C 
BRANCH   2   8
ATOM      7  C   UNL     1      -0.705  10.874  22.429  0.00  0.00    +0.000 C 
ATOM      8  S   UNL     1       0.191   9.379  22.073  0.00  0.00    +0.000 S 
ATOM      9  O   UNL     1       1.416   9.421  22.846  0.00  0.00    +0.000 OA
ATOM     10  O   UNL     1      -0.729   8.273  22.231  0.00  0.00    +0.000 OA
ENDBRANCH   2   8
ENDBRANCH   1   6
BRANCH   1  11
ATOM     11  C   UNL     1       2.237   6.564  18.354  0.00  0.00    +0.000 C 
BRANCH  11  12
ATOM     12  C   UNL     1       3.629   6.066  18.006  0.00  0.00    +0.000 A 
ATOM     13  C   UNL     1       4.134   4.877  18.557  0.00  0.00    +0.000 A 
ATOM     14  C   UNL     1       5.396   4.395  18.197  0.00  0.00    +0.000 A 
ATOM     15  C   UNL     1       6.164   5.097  17.262  0.00  0.00    +0.000 A 
ATOM     16  C   UNL     1       5.673   6.272  16.681  0.00  0.00    +0.000 A 
ATOM     17  C   UNL     1       4.410   6.749  17.054  0.00  0.00    +0.000 A 
BRANCH  15  18
ATOM     18  N   UNL     1       7.492   4.592  16.880  0.00  0.00    +0.000 N 
ATOM     19  O   UNL     1       7.807   4.650  15.683  0.00  0.00    +0.000 OA
ATOM     20  O   UNL     1       8.218   4.143  17.777  0.00  0.00    +0.000 OA
ENDBRANCH  15  18
ENDBRANCH  11  12
ENDBRANCH   1  11
TORSDOF 5
ENDMDL
MODEL 7
REMARK VINA RESULT:      -6.6      2.176      2.658
REMARK  Name = 
REMARK  6 active torsions:
REMARK  status: ('A' for Active; 'I' for Inactive)
REMARK    1  A    between atoms: C_1  and  S_2
REMARK    2  A    between atoms: S_2  and  N_5
REMARK    3  A    between atoms: C_9  and  S_10
REMARK    4  A    between atoms: S_10  and  C_11
REMARK    5  A    between atoms: C_11  and  C_12
REMARK    6  A    between atoms: C_15  and  N_16
REMARK                            x       y       z     vdW  Elec       q    Type
REMARK                         _______ _______ _______ _____ _____    ______ ____
ROOT
ATOM      1  S   UNL     1       2.948   4.011  17.444  0.00  0.00    +0.000 S 
ENDROOT
BRANCH   1   6
ATOM      2  N   UNL     1       2.242   4.599  20.046  0.00  0.00    +0.000 N 
ATOM      3  C   UNL     1       1.684   5.709  20.818  0.00  0.00    +0.000 C 
ATOM      4  C   UNL     1       2.178   6.883  19.975  0.00  0.00    +0.000 C 
ATOM      5  N   UNL     1       2.487   6.346  18.622  0.00  0.00    +0.000 NA
ATOM      6  C   UNL     1       2.567   5.059  18.761  0.00  0.00    +0.000 C 
BRANCH   2   8
ATOM      7  C   UNL     1       1.202   2.121  19.897  0.00  0.00    +0.000 C 
ATOM      8  S   UNL     1       2.384   3.117  20.778  0.00  0.00    +0.000 S 
ATOM      9  O   UNL     1       1.900   3.250  22.137  0.00  0.00    +0.000 OA
ATOM     10  O   UNL     1       3.695   2.562  20.525  0.00  0.00    +0.000 OA
ENDBRANCH   2   8
ENDBRANCH   1   6
BRANCH   1  11
ATOM     11  C   UNL     1       4.743   3.825  17.688  0.00  0.00    +0.000 C 
BRANCH  11  12
ATOM     12  C   UNL     1       5.573   4.141  16.455  0.00  0.00    +0.000 A 
ATOM     13  C   UNL     1       5.080   3.886  15.164  0.00  0.00    +0.000 A 
ATOM     14  C   UNL     1       5.825   4.224  14.029  0.00  0.00    +0.000 A 
ATOM     15  C   UNL     1       7.072   4.839  14.178  0.00  0.00    +0.000 A 
ATOM     16  C   UNL     1       7.574   5.124  15.454  0.00  0.00    +0.000 A 
ATOM     17  C   UNL     1       6.822   4.775  16.583  0.00  0.00    +0.000 A 
BRANCH  15  18
ATOM     18  N   UNL     1       7.857   5.196  12.987  0.00  0.00    +0.000 N 
ATOM     19  O   UNL     1       8.818   5.964  13.140  0.00  0.00    +0.000 OA
ATOM     20  O   UNL     1       7.515   4.706  11.902  0.00  0.00    +0.000 OA
ENDBRANCH  15  18
ENDBRANCH  11  12
ENDBRANCH   1  11
TORSDOF 5
ENDMDL
MODEL 8
REMARK VINA RESULT:      -6.6      2.180      2.939
REMARK  Name = 
REMARK  6 active torsions:
REMARK  status: ('A' for Active; 'I' for Inactive)
REMARK    1  A    between atoms: C_1  and  S_2
REMARK    2  A    between atoms: S_2  and  N_5
REMARK    3  A    between atoms: C_9  and  S_10
REMARK    4  A    between atoms: S_10  and  C_11
REMARK    5  A    between atoms: C_11  and  C_12
REMARK    6  A    between atoms: C_15  and  N_16
REMARK                            x       y       z     vdW  Elec       q    Type
REMARK                         _______ _______ _______ _____ _____    ______ ____
ROOT
ATOM      1  S   UNL     1       2.964   3.960  17.441  0.00  0.00    +0.000 S 
ENDROOT
BRANCH   1   6
ATOM      2  N   UNL     1       2.294   4.561  20.049  0.00  0.00    +0.000 N 
ATOM      3  C   UNL     1       1.754   5.678  20.824  0.00  0.00    +0.000 C 
ATOM      4  C   UNL     1       2.248   6.846  19.971  0.00  0.00    +0.000 C 
ATOM      5  N   UNL     1       2.536   6.302  18.616  0.00  0.00    +0.000 NA
ATOM      6  C   UNL     1       2.607   5.015  18.759  0.00  0.00    +0.000 C 
BRANCH   2   8
ATOM      7  C   UNL     1       1.221   2.096  19.932  0.00  0.00    +0.000 C 
ATOM      8  S   UNL     1       2.433   3.081  20.784  0.00  0.00    +0.000 S 
ATOM      9  O   UNL     1       1.980   3.225  22.152  0.00  0.00    +0.000 OA
ATOM     10  O   UNL     1       3.732   2.508  20.505  0.00  0.00    +0.000 OA
ENDBRANCH   2   8
ENDBRANCH   1   6
BRANCH   1  11
ATOM     11  C   UNL     1       4.766   3.786  17.643  0.00  0.00    +0.000 C 
BRANCH  11  12
ATOM     12  C   UNL     1       5.571   4.212  16.428  0.00  0.00    +0.000 A 
ATOM     13  C   UNL     1       6.749   4.966  16.564  0.00  0.00    +0.000 A 
ATOM     14  C   UNL     1       7.515   5.313  15.447  0.00  0.00    +0.000 A 
ATOM     15  C   UNL     1       7.114   4.893  14.175  0.00  0.00    +0.000 A 
ATOM     16  C   UNL     1       5.957   4.121  14.016  0.00  0.00    +0.000 A 
ATOM     17  C   UNL     1       5.194   3.784  15.141  0.00  0.00    +0.000 A 
BRANCH  15  18
ATOM     18  N   UNL     1       7.918   5.256  12.998  0.00  0.00    +0.000 N 
ATOM     19  O   UNL     1       7.550   4.829  11.895  0.00  0.00    +0.000 OA
ATOM     20  O   UNL     1       8.914   5.971  13.178  0.00  0.00    +0.000 OA
ENDBRANCH  15  18
ENDBRANCH  11  12
ENDBRANCH   1  11
TORSDOF 5
ENDMDL
MODEL 9
REMARK VINA RESULT:      -6.6      4.767      7.194
REMARK  Name = 
REMARK  6 active torsions:
REMARK  status: ('A' for Active; 'I' for Inactive)
REMARK    1  A    between atoms: C_1  and  S_2
REMARK    2  A    between atoms: S_2  and  N_5
REMARK    3  A    between atoms: C_9  and  S_10
REMARK    4  A    between atoms: S_10  and  C_11
REMARK    5  A    between atoms: C_11  and  C_12
REMARK    6  A    between atoms: C_15  and  N_16
REMARK                            x       y       z     vdW  Elec       q    Type
REMARK                         _______ _______ _______ _____ _____    ______ ____
ROOT
ATOM      1  S   UNL     1       3.763   4.913  18.843  0.00  0.00    +0.000 S 
ENDROOT
BRANCH   1   6
ATOM      2  N   UNL     1       6.139   5.059  17.448  0.00  0.00    +0.000 N 
ATOM      3  C   UNL     1       7.579   4.999  17.704  0.00  0.00    +0.000 C 
ATOM      4  C   UNL     1       7.608   5.527  19.137  0.00  0.00    +0.000 C 
ATOM      5  N   UNL     1       6.241   5.342  19.695  0.00  0.00    +0.000 NA
ATOM      6  C   UNL     1       5.465   5.144  18.675  0.00  0.00    +0.000 C 
BRANCH   2   8
ATOM      7  C   UNL     1       7.050   4.478  14.983  0.00  0.00    +0.000 C 
ATOM      8  S   UNL     1       5.612   5.024  15.877  0.00  0.00    +0.000 S 
ATOM      9  O   UNL     1       5.350   6.390  15.470  0.00  0.00    +0.000 OA
ATOM     10  O   UNL     1       4.592   4.011  15.718  0.00  0.00    +0.000 OA
ENDBRANCH   2   8
ENDBRANCH   1   6
BRANCH   1  11
ATOM     11  C   UNL     1       3.147   6.306  17.843  0.00  0.00    +0.000 C 
BRANCH  11  12
ATOM     12  C   UNL     1       2.433   7.378  18.647  0.00  0.00    +0.000 A 
ATOM     13  C   UNL     1       1.963   8.552  18.035  0.00  0.00    +0.000 A 
ATOM     14  C   UNL     1       1.261   9.515  18.767  0.00  0.00    +0.000 A 
ATOM     15  C   UNL     1       1.007   9.302  20.126  0.00  0.00    +0.000 A 
ATOM     16  C   UNL     1       1.445   8.129  20.753  0.00  0.00    +0.000 A 
ATOM     17  C   UNL     1       2.152   7.174  20.012  0.00  0.00    +0.000 A 
BRANCH  15  18
ATOM     18  N   UNL     1       0.269  10.313  20.899  0.00  0.00    +0.000 N 
ATOM     19  O   UNL     1       0.800  10.750  21.929  0.00  0.00    +0.000 OA
ATOM     20  O   UNL     1      -0.838  10.669  20.472  0.00  0.00    +0.000 OA
ENDBRANCH  15  18
ENDBRANCH  11  12
ENDBRANCH   1  11
TORSDOF 5
ENDMDL
