MODEL 1
REMARK VINA RESULT:      -9.3      0.000      0.000
REMARK  Name = 
REMARK  7 active torsions:
REMARK  status: ('A' for Active; 'I' for Inactive)
REMARK    1  A    between atoms: C_1  and  C_2
REMARK    2  A    between atoms: C_8  and  C_9
REMARK    3  A    between atoms: N_11  and  C_12
REMARK    4  A    between atoms: C_12  and  C_13
REMARK    5  A    between atoms: C_25  and  C_26
REMARK    6  A    between atoms: N_29  and  C_30
REMARK    7  A    between atoms: C_30  and  C_31
REMARK                            x       y       z     vdW  Elec       q    Type
REMARK                         _______ _______ _______ _____ _____    ______ ____
ROOT
ATOM      1  C   UNL     1      -3.189  13.297  23.180  0.00  0.00    +0.000 C 
ATOM      2  C   UNL     1      -2.692  12.577  21.901  0.00  0.00    +0.000 C 
ATOM      3  C   UNL     1      -2.638  13.468  20.584  0.00  0.00    +0.000 C 
ATOM      4  C   UNL     1      -3.196  12.460  19.551  0.00  0.00    +0.000 C 
ATOM      5  C   UNL     1      -2.222  11.301  19.411  0.00  0.00    +0.000 A 
ATOM      6  C   UNL     1      -2.152  10.707  18.140  0.00  0.00    +0.000 A 
ATOM      7  C   UNL     1      -0.963  10.024  17.695  0.00  0.00    +0.000 A 
ATOM      8  C   UNL     1       0.125   9.878  18.572  0.00  0.00    +0.000 A 
ATOM      9  C   UNL     1      -0.092  10.312  19.948  0.00  0.00    +0.000 A 
ATOM     10  C   UNL     1      -1.248  11.036  20.433  0.00  0.00    +0.000 A 
ATOM     11  C   UNL     1      -1.296  11.900  21.896  0.00  0.00    +0.000 C 
ATOM     12  C   UNL     1      -1.072  10.939  23.054  0.00  0.00    +0.000 C 
ATOM     13  C   UNL     1      -0.360  13.177  22.254  0.00  0.00    +0.000 C 
ATOM     14  C   UNL     1      -0.716  14.523  21.562  0.00  0.00    +0.000 C 
ATOM     15  N   UNL     1      -1.299  14.236  20.264  0.00  0.00    +0.000 NA
ENDROOT
BRANCH   8  16
ATOM     16  C   UNL     1       1.573   9.405  18.146  0.00  0.00    +0.000 C 
ATOM     17  O   UNL     1       2.227  10.244  17.539  0.00  0.00    +0.000 OA
ATOM     18  N   UNL     1       2.193   8.156  18.313  0.00  0.00    +0.000 N 
ATOM     19  H   UNL     1       1.802   7.503  18.978  0.00  0.00    +0.000 HD
BRANCH  18  20
ATOM     20  C   UNL     1       3.621   7.734  17.720  0.00  0.00    +0.000 C 
BRANCH  20  21
ATOM     21  C   UNL     1       3.778   6.211  17.377  0.00  0.00    +0.000 A 
ATOM     22  C   UNL     1       4.962   6.050  16.655  0.00  0.00    +0.000 A 
ATOM     23  C   UNL     1       5.128   4.904  15.937  0.00  0.00    +0.000 A 
ATOM     24  C   UNL     1       4.991   3.831  16.762  0.00  0.00    +0.000 A 
ATOM     25  C   UNL     1       3.816   3.777  17.478  0.00  0.00    +0.000 A 
ATOM     26  C   UNL     1       3.537   2.463  17.943  0.00  0.00    +0.000 A 
ATOM     27  C   UNL     1       2.259   2.100  18.330  0.00  0.00    +0.000 A 
ATOM     28  C   UNL     1       1.298   3.092  18.306  0.00  0.00    +0.000 A 
ATOM     29  C   UNL     1       1.646   4.463  18.037  0.00  0.00    +0.000 A 
ATOM     30  C   UNL     1       2.993   4.918  17.661  0.00  0.00    +0.000 A 
ENDBRANCH  20  21
ENDBRANCH  18  20
ENDBRANCH   8  16
BRANCH  15  31
ATOM     31  C   UNL     1      -0.218  13.574  19.452  0.00  0.00    +0.000 C 
BRANCH  31  32
ATOM     32  C   UNL     1       1.177  14.063  19.091  0.00  0.00    +0.000 C 
ATOM     33  C   UNL     1       2.333  13.228  19.586  0.00  0.00    +0.000 C 
ATOM     34  C   UNL     1       2.220  13.573  18.127  0.00  0.00    +0.000 C 
ENDBRANCH  31  32
ENDBRANCH  15  31
TORSDOF 5
ENDMDL
MODEL 2
REMARK VINA RESULT:      -8.6      5.937      8.422
REMARK  Name = 
REMARK  7 active torsions:
REMARK  status: ('A' for Active; 'I' for Inactive)
REMARK    1  A    between atoms: C_1  and  C_2
REMARK    2  A    between atoms: C_8  and  C_9
REMARK    3  A    between atoms: N_11  and  C_12
REMARK    4  A    between atoms: C_12  and  C_13
REMARK    5  A    between atoms: C_25  and  C_26
REMARK    6  A    between atoms: N_29  and  C_30
REMARK    7  A    between atoms: C_30  and  C_31
REMARK                            x       y       z     vdW  Elec       q    Type
REMARK                         _______ _______ _______ _____ _____    ______ ____
ROOT
ATOM      1  C   UNL     1       7.750  17.384  18.360  0.00  0.00    +0.000 C 
ATOM      2  C   UNL     1       8.418  15.993  18.214  0.00  0.00    +0.000 C 
ATOM      3  C   UNL     1       9.661  15.721  19.171  0.00  0.00    +0.000 C 
ATOM      4  C   UNL     1      10.614  15.010  18.181  0.00  0.00    +0.000 C 
ATOM      5  C   UNL     1      10.002  13.682  17.767  0.00  0.00    +0.000 A 
ATOM      6  C   UNL     1      10.908  12.644  17.495  0.00  0.00    +0.000 A 
ATOM      7  C   UNL     1      10.530  11.261  17.635  0.00  0.00    +0.000 A 
ATOM      8  C   UNL     1       9.207  10.931  17.976  0.00  0.00    +0.000 A 
ATOM      9  C   UNL     1       8.258  12.038  18.022  0.00  0.00    +0.000 A 
ATOM     10  C   UNL     1       8.594  13.444  17.928  0.00  0.00    +0.000 A 
ATOM     11  C   UNL     1       7.568  14.710  18.409  0.00  0.00    +0.000 C 
ATOM     12  C   UNL     1       6.301  14.677  17.568  0.00  0.00    +0.000 C 
ATOM     13  C   UNL     1       7.033  14.951  19.923  0.00  0.00    +0.000 C 
ATOM     14  C   UNL     1       8.055  15.523  20.945  0.00  0.00    +0.000 C 
ATOM     15  N   UNL     1       9.383  15.065  20.577  0.00  0.00    +0.000 NA
ENDROOT
BRANCH   8  16
ATOM     16  C   UNL     1       8.720   9.496  18.427  0.00  0.00    +0.000 C 
ATOM     17  O   UNL     1       9.065   9.171  19.557  0.00  0.00    +0.000 OA
ATOM     18  N   UNL     1       8.003   8.526  17.709  0.00  0.00    +0.000 N 
ATOM     19  H   UNL     1       7.514   8.804  16.870  0.00  0.00    +0.000 HD
BRANCH  18  20
ATOM     20  C   UNL     1       7.675   7.041  18.213  0.00  0.00    +0.000 C 
BRANCH  20  21
ATOM     21  C   UNL     1       6.499   6.324  17.460  0.00  0.00    +0.000 A 
ATOM     22  C   UNL     1       7.016   5.753  16.296  0.00  0.00    +0.000 A 
ATOM     23  C   UNL     1       6.144   5.404  15.308  0.00  0.00    +0.000 A 
ATOM     24  C   UNL     1       5.208   4.554  15.812  0.00  0.00    +0.000 A 
ATOM     25  C   UNL     1       4.521   5.013  16.914  0.00  0.00    +0.000 A 
ATOM     26  C   UNL     1       3.295   4.317  17.102  0.00  0.00    +0.000 A 
ATOM     27  C   UNL     1       2.284   4.852  17.881  0.00  0.00    +0.000 A 
ATOM     28  C   UNL     1       2.555   6.050  18.513  0.00  0.00    +0.000 A 
ATOM     29  C   UNL     1       3.873   6.630  18.482  0.00  0.00    +0.000 A 
ATOM     30  C   UNL     1       4.999   6.087  17.707  0.00  0.00    +0.000 A 
ENDBRANCH  20  21
ENDBRANCH  18  20
ENDBRANCH   8  16
BRANCH  15  31
ATOM     31  C   UNL     1       9.370  13.567  20.728  0.00  0.00    +0.000 C 
BRANCH  31  32
ATOM     32  C   UNL     1       9.318  12.708  21.984  0.00  0.00    +0.000 C 
ATOM     33  C   UNL     1       7.965  12.546  22.633  0.00  0.00    +0.000 C 
ATOM     34  C   UNL     1       8.779  11.335  22.267  0.00  0.00    +0.000 C 
ENDBRANCH  31  32
ENDBRANCH  15  31
TORSDOF 5
ENDMDL
MODEL 3
REMARK VINA RESULT:      -8.6      1.660      3.037
REMARK  Name = 
REMARK  7 active torsions:
REMARK  status: ('A' for Active; 'I' for Inactive)
REMARK    1  A    between atoms: C_1  and  C_2
REMARK    2  A    between atoms: C_8  and  C_9
REMARK    3  A    between atoms: N_11  and  C_12
REMARK    4  A    between atoms: C_12  and  C_13
REMARK    5  A    between atoms: C_25  and  C_26
REMARK    6  A    between atoms: N_29  and  C_30
REMARK    7  A    between atoms: C_30  and  C_31
REMARK                            x       y       z     vdW  Elec       q    Type
REMARK                         _______ _______ _______ _____ _____    ______ ____
ROOT
ATOM      1  C   UNL     1      -1.613  15.970  23.159  0.00  0.00    +0.000 C 
ATOM      2  C   UNL     1      -1.330  14.469  22.900  0.00  0.00    +0.000 C 
ATOM      3  C   UNL     1      -2.607  13.569  22.593  0.00  0.00    +0.000 C 
ATOM      4  C   UNL     1      -2.259  12.312  23.426  0.00  0.00    +0.000 C 
ATOM      5  C   UNL     1      -1.026  11.649  22.834  0.00  0.00    +0.000 A 
ATOM      6  C   UNL     1      -0.967  10.250  22.945  0.00  0.00    +0.000 A 
ATOM      7  C   UNL     1      -0.212   9.454  22.010  0.00  0.00    +0.000 A 
ATOM      8  C   UNL     1       0.544  10.086  21.009  0.00  0.00    +0.000 A 
ATOM      9  C   UNL     1       0.627  11.540  21.084  0.00  0.00    +0.000 A 
ATOM     10  C   UNL     1      -0.140  12.385  21.976  0.00  0.00    +0.000 A 
ATOM     11  C   UNL     1      -0.358  14.057  21.763  0.00  0.00    +0.000 C 
ATOM     12  C   UNL     1       0.993  14.752  21.825  0.00  0.00    +0.000 C 
ATOM     13  C   UNL     1      -1.099  14.744  20.493  0.00  0.00    +0.000 C 
ATOM     14  C   UNL     1      -2.649  14.636  20.442  0.00  0.00    +0.000 C 
ATOM     15  N   UNL     1      -3.047  13.398  21.089  0.00  0.00    +0.000 NA
ENDROOT
BRANCH   8  16
ATOM     16  C   UNL     1       1.190   9.353  19.765  0.00  0.00    +0.000 C 
ATOM     17  O   UNL     1       1.013   9.917  18.692  0.00  0.00    +0.000 OA
ATOM     18  N   UNL     1       1.883   8.133  19.703  0.00  0.00    +0.000 N 
ATOM     19  H   UNL     1       2.241   7.734  20.559  0.00  0.00    +0.000 HD
BRANCH  18  20
ATOM     20  C   UNL     1       2.381   7.407  18.365  0.00  0.00    +0.000 C 
BRANCH  20  21
ATOM     21  C   UNL     1       2.741   5.888  18.524  0.00  0.00    +0.000 A 
ATOM     22  C   UNL     1       3.679   5.561  17.543  0.00  0.00    +0.000 A 
ATOM     23  C   UNL     1       3.865   4.245  17.242  0.00  0.00    +0.000 A 
ATOM     24  C   UNL     1       4.189   3.565  18.375  0.00  0.00    +0.000 A 
ATOM     25  C   UNL     1       3.301   3.694  19.420  0.00  0.00    +0.000 A 
ATOM     26  C   UNL     1       3.439   2.641  20.367  0.00  0.00    +0.000 A 
ATOM     27  C   UNL     1       2.425   2.350  21.262  0.00  0.00    +0.000 A 
ATOM     28  C   UNL     1       1.316   3.172  21.231  0.00  0.00    +0.000 A 
ATOM     29  C   UNL     1       1.287   4.358  20.415  0.00  0.00    +0.000 A 
ATOM     30  C   UNL     1       2.350   4.743  19.475  0.00  0.00    +0.000 A 
ENDBRANCH  20  21
ENDBRANCH  18  20
ENDBRANCH   8  16
BRANCH  15  31
ATOM     31  C   UNL     1      -2.481  12.283  20.253  0.00  0.00    +0.000 C 
BRANCH  31  32
ATOM     32  C   UNL     1      -2.655  11.980  18.771  0.00  0.00    +0.000 C 
ATOM     33  C   UNL     1      -2.223  10.611  18.307  0.00  0.00    +0.000 C 
ATOM     34  C   UNL     1      -3.610  11.108  18.006  0.00  0.00    +0.000 C 
ENDBRANCH  31  32
ENDBRANCH  15  31
TORSDOF 5
ENDMDL
MODEL 4
REMARK VINA RESULT:      -8.5      1.435      2.710
REMARK  Name = 
REMARK  7 active torsions:
REMARK  status: ('A' for Active; 'I' for Inactive)
REMARK    1  A    between atoms: C_1  and  C_2
REMARK    2  A    between atoms: C_8  and  C_9
REMARK    3  A    between atoms: N_11  and  C_12
REMARK    4  A    between atoms: C_12  and  C_13
REMARK    5  A    between atoms: C_25  and  C_26
REMARK    6  A    between atoms: N_29  and  C_30
REMARK    7  A    between atoms: C_30  and  C_31
REMARK                            x       y       z     vdW  Elec       q    Type
REMARK                         _______ _______ _______ _____ _____    ______ ____
ROOT
ATOM      1  C   UNL     1      -1.882  15.581  23.417  0.00  0.00    +0.000 C 
ATOM      2  C   UNL     1      -1.480  14.137  23.022  0.00  0.00    +0.000 C 
ATOM      3  C   UNL     1      -2.681  13.171  22.624  0.00  0.00    +0.000 C 
ATOM      4  C   UNL     1      -2.235  11.874  23.339  0.00  0.00    +0.000 C 
ATOM      5  C   UNL     1      -0.953  11.369  22.698  0.00  0.00    +0.000 A 
ATOM      6  C   UNL     1      -0.782   9.975  22.680  0.00  0.00    +0.000 A 
ATOM      7  C   UNL     1       0.033   9.331  21.681  0.00  0.00    +0.000 A 
ATOM      8  C   UNL     1       0.737  10.111  20.748  0.00  0.00    +0.000 A 
ATOM      9  C   UNL     1       0.704  11.554  20.958  0.00  0.00    +0.000 A 
ATOM     10  C   UNL     1      -0.128  12.249  21.919  0.00  0.00    +0.000 A 
ATOM     11  C   UNL     1      -0.479  13.911  21.859  0.00  0.00    +0.000 C 
ATOM     12  C   UNL     1       0.813  14.703  21.996  0.00  0.00    +0.000 C 
ATOM     13  C   UNL     1      -1.272  14.652  20.653  0.00  0.00    +0.000 C 
ATOM     14  C   UNL     1      -2.809  14.426  20.581  0.00  0.00    +0.000 C 
ATOM     15  N   UNL     1      -3.107  13.107  21.107  0.00  0.00    +0.000 NA
ENDROOT
BRANCH   8  16
ATOM     16  C   UNL     1       1.439   9.551  19.446  0.00  0.00    +0.000 C 
ATOM     17  O   UNL     1       1.565  10.368  18.542  0.00  0.00    +0.000 OA
ATOM     18  N   UNL     1       1.886   8.251  19.158  0.00  0.00    +0.000 N 
ATOM     19  H   UNL     1       2.005   7.597  19.919  0.00  0.00    +0.000 HD
BRANCH  18  20
ATOM     20  C   UNL     1       2.463   7.752  17.749  0.00  0.00    +0.000 C 
BRANCH  20  21
ATOM     21  C   UNL     1       3.119   6.326  17.764  0.00  0.00    +0.000 A 
ATOM     22  C   UNL     1       4.478   6.472  17.476  0.00  0.00    +0.000 A 
ATOM     23  C   UNL     1       5.172   5.371  17.072  0.00  0.00    +0.000 A 
ATOM     24  C   UNL     1       5.044   4.389  18.005  0.00  0.00    +0.000 A 
ATOM     25  C   UNL     1       3.751   4.043  18.330  0.00  0.00    +0.000 A 
ATOM     26  C   UNL     1       3.681   2.755  18.929  0.00  0.00    +0.000 A 
ATOM     27  C   UNL     1       2.490   2.054  18.975  0.00  0.00    +0.000 A 
ATOM     28  C   UNL     1       1.373   2.695  18.475  0.00  0.00    +0.000 A 
ATOM     29  C   UNL     1       1.423   4.076  18.069  0.00  0.00    +0.000 A 
ATOM     30  C   UNL     1       2.650   4.886  18.037  0.00  0.00    +0.000 A 
ENDBRANCH  20  21
ENDBRANCH  18  20
ENDBRANCH   8  16
BRANCH  15  31
ATOM     31  C   UNL     1      -2.453  12.122  20.176  0.00  0.00    +0.000 C 
BRANCH  31  32
ATOM     32  C   UNL     1      -2.721  11.835  18.705  0.00  0.00    +0.000 C 
ATOM     33  C   UNL     1      -1.765  10.892  18.017  0.00  0.00    +0.000 C 
ATOM     34  C   UNL     1      -3.246  10.633  17.971  0.00  0.00    +0.000 C 
ENDBRANCH  31  32
ENDBRANCH  15  31
TORSDOF 5
ENDMDL
MODEL 5
REMARK VINA RESULT:      -8.3      4.794      9.613
REMARK  Name = 
REMARK  7 active torsions:
REMARK  status: ('A' for Active; 'I' for Inactive)
REMARK    1  A    between atoms: C_1  and  C_2
REMARK    2  A    between atoms: C_8  and  C_9
REMARK    3  A    between atoms: N_11  and  C_12
REMARK    4  A    between atoms: C_12  and  C_13
REMARK    5  A    between atoms: C_25  and  C_26
REMARK    6  A    between atoms: N_29  and  C_30
REMARK    7  A    between atoms: C_30  and  C_31
REMARK                            x       y       z     vdW  Elec       q    Type
REMARK                         _______ _______ _______ _____ _____    ______ ____
ROOT
ATOM      1  C   UNL     1       1.418   1.702  19.318  0.00  0.00    +0.000 C 
ATOM      2  C   UNL     1       2.437   2.659  18.649  0.00  0.00    +0.000 C 
ATOM      3  C   UNL     1       1.830   4.001  18.046  0.00  0.00    +0.000 C 
ATOM      4  C   UNL     1       2.618   4.082  16.717  0.00  0.00    +0.000 C 
ATOM      5  C   UNL     1       4.092   4.293  17.025  0.00  0.00    +0.000 A 
ATOM      6  C   UNL     1       4.813   5.054  16.090  0.00  0.00    +0.000 A 
ATOM      7  C   UNL     1       5.993   5.789  16.471  0.00  0.00    +0.000 A 
ATOM      8  C   UNL     1       6.484   5.687  17.783  0.00  0.00    +0.000 A 
ATOM      9  C   UNL     1       5.830   4.706  18.642  0.00  0.00    +0.000 A 
ATOM     10  C   UNL     1       4.622   3.975  18.322  0.00  0.00    +0.000 A 
ATOM     11  C   UNL     1       3.646   3.184  19.467  0.00  0.00    +0.000 C 
ATOM     12  C   UNL     1       4.454   2.088  20.145  0.00  0.00    +0.000 C 
ATOM     13  C   UNL     1       2.866   3.915  20.688  0.00  0.00    +0.000 C 
ATOM     14  C   UNL     1       1.597   4.735  20.320  0.00  0.00    +0.000 C 
ATOM     15  N   UNL     1       1.765   5.269  18.980  0.00  0.00    +0.000 NA
ENDROOT
BRANCH   8  16
ATOM     16  C   UNL     1       7.587   6.630  18.412  0.00  0.00    +0.000 C 
ATOM     17  O   UNL     1       8.226   6.127  19.330  0.00  0.00    +0.000 OA
ATOM     18  N   UNL     1       7.902   7.965  18.113  0.00  0.00    +0.000 N 
ATOM     19  H   UNL     1       7.569   8.360  17.244  0.00  0.00    +0.000 HD
BRANCH  18  20
ATOM     20  C   UNL     1       8.951   8.879  18.906  0.00  0.00    +0.000 C 
BRANCH  20  21
ATOM     21  C   UNL     1       9.066  10.360  18.398  0.00  0.00    +0.000 A 
ATOM     22  C   UNL     1       7.842  10.717  17.828  0.00  0.00    +0.000 A 
ATOM     23  C   UNL     1       7.809  11.799  17.000  0.00  0.00    +0.000 A 
ATOM     24  C   UNL     1       8.299  12.885  17.657  0.00  0.00    +0.000 A 
ATOM     25  C   UNL     1       9.558  12.736  18.195  0.00  0.00    +0.000 A 
ATOM     26  C   UNL     1      10.178  13.990  18.449  0.00  0.00    +0.000 A 
ATOM     27  C   UNL     1      11.549  14.088  18.611  0.00  0.00    +0.000 A 
ATOM     28  C   UNL     1      12.263  12.906  18.582  0.00  0.00    +0.000 A 
ATOM     29  C   UNL     1      11.595  11.630  18.538  0.00  0.00    +0.000 A 
ATOM     30  C   UNL     1      10.140  11.461  18.407  0.00  0.00    +0.000 A 
ENDBRANCH  20  21
ENDBRANCH  18  20
ENDBRANCH   8  16
BRANCH  15  31
ATOM     31  C   UNL     1       2.926   6.224  19.048  0.00  0.00    +0.000 C 
BRANCH  31  32
ATOM     32  C   UNL     1       2.986   7.717  18.757  0.00  0.00    +0.000 C 
ATOM     33  C   UNL     1       2.796   8.132  17.319  0.00  0.00    +0.000 C 
ATOM     34  C   UNL     1       1.943   8.737  18.400  0.00  0.00    +0.000 C 
ENDBRANCH  31  32
ENDBRANCH  15  31
TORSDOF 5
ENDMDL
MODEL 6
REMARK VINA RESULT:      -8.1      1.778      3.627
REMARK  Name = 
REMARK  7 active torsions:
REMARK  status: ('A' for Active; 'I' for Inactive)
REMARK    1  A    between atoms: C_1  and  C_2
REMARK    2  A    between atoms: C_8  and  C_9
REMARK    3  A    between atoms: N_11  and  C_12
REMARK    4  A    between atoms: C_12  and  C_13
REMARK    5  A    between atoms: C_25  and  C_26
REMARK    6  A    between atoms: N_29  and  C_30
REMARK    7  A    between atoms: C_30  and  C_31
REMARK                            x       y       z     vdW  Elec       q    Type
REMARK                         _______ _______ _______ _____ _____    ______ ____
ROOT
ATOM      1  C   UNL     1       1.382  16.493  20.303  0.00  0.00    +0.000 C 
ATOM      2  C   UNL     1       0.791  15.183  20.883  0.00  0.00    +0.000 C 
ATOM      3  C   UNL     1      -0.748  14.923  20.572  0.00  0.00    +0.000 C 
ATOM      4  C   UNL     1      -1.217  14.393  21.948  0.00  0.00    +0.000 C 
ATOM      5  C   UNL     1      -0.533  13.065  22.228  0.00  0.00    +0.000 A 
ATOM      6  C   UNL     1      -1.274  12.137  22.978  0.00  0.00    +0.000 A 
ATOM      7  C   UNL     1      -1.038  10.720  22.864  0.00  0.00    +0.000 A 
ATOM      8  C   UNL     1       0.004  10.251  22.046  0.00  0.00    +0.000 A 
ATOM      9  C   UNL     1       0.881  11.265  21.475  0.00  0.00    +0.000 A 
ATOM     10  C   UNL     1       0.665  12.696  21.527  0.00  0.00    +0.000 A 
ATOM     11  C   UNL     1       1.434  13.821  20.510  0.00  0.00    +0.000 C 
ATOM     12  C   UNL     1       2.936  13.765  20.745  0.00  0.00    +0.000 C 
ATOM     13  C   UNL     1       1.286  13.869  18.895  0.00  0.00    +0.000 C 
ATOM     14  C   UNL     1      -0.052  14.423  18.330  0.00  0.00    +0.000 C 
ATOM     15  N   UNL     1      -1.114  14.114  19.269  0.00  0.00    +0.000 NA
ENDROOT
BRANCH   8  16
ATOM     16  C   UNL     1       0.204   8.743  21.613  0.00  0.00    +0.000 C 
ATOM     17  O   UNL     1      -0.813   8.061  21.648  0.00  0.00    +0.000 OA
ATOM     18  N   UNL     1       1.378   8.063  21.249  0.00  0.00    +0.000 N 
ATOM     19  H   UNL     1       2.195   8.603  20.998  0.00  0.00    +0.000 HD
BRANCH  18  20
ATOM     20  C   UNL     1       1.498   6.493  20.957  0.00  0.00    +0.000 C 
BRANCH  20  21
ATOM     21  C   UNL     1       2.213   6.116  19.612  0.00  0.00    +0.000 A 
ATOM     22  C   UNL     1       2.758   7.282  19.070  0.00  0.00    +0.000 A 
ATOM     23  C   UNL     1       3.098   7.280  17.751  0.00  0.00    +0.000 A 
ATOM     24  C   UNL     1       3.966   6.261  17.510  0.00  0.00    +0.000 A 
ATOM     25  C   UNL     1       3.534   5.010  17.891  0.00  0.00    +0.000 A 
ATOM     26  C   UNL     1       4.245   3.976  17.222  0.00  0.00    +0.000 A 
ATOM     27  C   UNL     1       3.735   2.692  17.147  0.00  0.00    +0.000 A 
ATOM     28  C   UNL     1       2.545   2.458  17.810  0.00  0.00    +0.000 A 
ATOM     29  C   UNL     1       1.952   3.460  18.657  0.00  0.00    +0.000 A 
ATOM     30  C   UNL     1       2.470   4.828  18.809  0.00  0.00    +0.000 A 
ENDBRANCH  20  21
ENDBRANCH  18  20
ENDBRANCH   8  16
BRANCH  15  31
ATOM     31  C   UNL     1      -1.218  12.613  19.312  0.00  0.00    +0.000 C 
BRANCH  31  32
ATOM     32  C   UNL     1      -1.488  11.616  18.193  0.00  0.00    +0.000 C 
ATOM     33  C   UNL     1      -1.117  10.179  18.467  0.00  0.00    +0.000 C 
ATOM     34  C   UNL     1      -2.507  10.527  18.011  0.00  0.00    +0.000 C 
ENDBRANCH  31  32
ENDBRANCH  15  31
TORSDOF 5
ENDMDL
MODEL 7
REMARK VINA RESULT:      -8.0      0.852      2.061
REMARK  Name = 
REMARK  7 active torsions:
REMARK  status: ('A' for Active; 'I' for Inactive)
REMARK    1  A    between atoms: C_1  and  C_2
REMARK    2  A    between atoms: C_8  and  C_9
REMARK    3  A    between atoms: N_11  and  C_12
REMARK    4  A    between atoms: C_12  and  C_13
REMARK    5  A    between atoms: C_25  and  C_26
REMARK    6  A    between atoms: N_29  and  C_30
REMARK    7  A    between atoms: C_30  and  C_31
REMARK                            x       y       z     vdW  Elec       q    Type
REMARK                         _______ _______ _______ _____ _____    ______ ____
ROOT
ATOM      1  C   UNL     1      -3.488  13.316  23.374  0.00  0.00    +0.000 C 
ATOM      2  C   UNL     1      -2.957  12.658  22.076  0.00  0.00    +0.000 C 
ATOM      3  C   UNL     1      -2.926  13.595  20.790  0.00  0.00    +0.000 C 
ATOM      4  C   UNL     1      -3.441  12.604  19.719  0.00  0.00    +0.000 C 
ATOM      5  C   UNL     1      -2.425  11.485  19.548  0.00  0.00    +0.000 A 
ATOM      6  C   UNL     1      -2.325  10.938  18.259  0.00  0.00    +0.000 A 
ATOM      7  C   UNL     1      -1.109  10.313  17.801  0.00  0.00    +0.000 A 
ATOM      8  C   UNL     1      -0.023  10.175  18.681  0.00  0.00    +0.000 A 
ATOM      9  C   UNL     1      -0.265  10.554  20.069  0.00  0.00    +0.000 A 
ATOM     10  C   UNL     1      -1.449  11.220  20.568  0.00  0.00    +0.000 A 
ATOM     11  C   UNL     1      -1.538  12.032  22.060  0.00  0.00    +0.000 C 
ATOM     12  C   UNL     1      -1.289  11.040  23.186  0.00  0.00    +0.000 C 
ATOM     13  C   UNL     1      -0.651  13.328  22.468  0.00  0.00    +0.000 C 
ATOM     14  C   UNL     1      -1.050  14.683  21.819  0.00  0.00    +0.000 C 
ATOM     15  N   UNL     1      -1.613  14.420  20.507  0.00  0.00    +0.000 NA
ENDROOT
BRANCH   8  16
ATOM     16  C   UNL     1       1.444   9.768  18.252  0.00  0.00    +0.000 C 
ATOM     17  O   UNL     1       2.153  10.705  17.903  0.00  0.00    +0.000 OA
ATOM     18  N   UNL     1       2.031   8.495  18.160  0.00  0.00    +0.000 N 
ATOM     19  H   UNL     1       1.583   7.718  18.625  0.00  0.00    +0.000 HD
BRANCH  18  20
ATOM     20  C   UNL     1       3.490   8.178  17.579  0.00  0.00    +0.000 C 
BRANCH  20  21
ATOM     21  C   UNL     1       3.834   6.653  17.437  0.00  0.00    +0.000 A 
ATOM     22  C   UNL     1       2.834   5.922  18.080  0.00  0.00    +0.000 A 
ATOM     23  C   UNL     1       3.096   4.626  18.411  0.00  0.00    +0.000 A 
ATOM     24  C   UNL     1       3.463   3.941  17.294  0.00  0.00    +0.000 A 
ATOM     25  C   UNL     1       4.519   4.475  16.589  0.00  0.00    +0.000 A 
ATOM     26  C   UNL     1       5.131   3.513  15.739  0.00  0.00    +0.000 A 
ATOM     27  C   UNL     1       6.412   3.704  15.252  0.00  0.00    +0.000 A 
ATOM     28  C   UNL     1       7.027   4.898  15.576  0.00  0.00    +0.000 A 
ATOM     29  C   UNL     1       6.312   5.947  16.257  0.00  0.00    +0.000 A 
ATOM     30  C   UNL     1       4.938   5.818  16.763  0.00  0.00    +0.000 A 
ENDBRANCH  20  21
ENDBRANCH  18  20
ENDBRANCH   8  16
BRANCH  15  31
ATOM     31  C   UNL     1      -0.504  13.824  19.682  0.00  0.00    +0.000 C 
BRANCH  31  32
ATOM     32  C   UNL     1       0.740  14.475  19.093  0.00  0.00    +0.000 C 
ATOM     33  C   UNL     1       2.031  14.268  19.847  0.00  0.00    +0.000 C 
ATOM     34  C   UNL     1       1.947  13.930  18.384  0.00  0.00    +0.000 C 
ENDBRANCH  31  32
ENDBRANCH  15  31
TORSDOF 5
ENDMDL
MODEL 8
REMARK VINA RESULT:      -7.9      1.568      3.422
REMARK  Name = 
REMARK  7 active torsions:
REMARK  status: ('A' for Active; 'I' for Inactive)
REMARK    1  A    between atoms: C_1  and  C_2
REMARK    2  A    between atoms: C_8  and  C_9
REMARK    3  A    between atoms: N_11  and  C_12
REMARK    4  A    between atoms: C_12  and  C_13
REMARK    5  A    between atoms: C_25  and  C_26
REMARK    6  A    between atoms: N_29  and  C_30
REMARK    7  A    between atoms: C_30  and  C_31
REMARK                            x       y       z     vdW  Elec       q    Type
REMARK                         _______ _______ _______ _____ _____    ______ ____
ROOT
ATOM      1  C   UNL     1      -1.364  15.738  23.556  0.00  0.00    +0.000 C 
ATOM      2  C   UNL     1      -1.129  14.275  23.103  0.00  0.00    +0.000 C 
ATOM      3  C   UNL     1      -2.441  13.432  22.786  0.00  0.00    +0.000 C 
ATOM      4  C   UNL     1      -2.060  12.082  23.439  0.00  0.00    +0.000 C 
ATOM      5  C   UNL     1      -0.885  11.479  22.686  0.00  0.00    +0.000 A 
ATOM      6  C   UNL     1      -0.844  10.077  22.629  0.00  0.00    +0.000 A 
ATOM      7  C   UNL     1      -0.173   9.388  21.555  0.00  0.00    +0.000 A 
ATOM      8  C   UNL     1       0.523  10.126  20.583  0.00  0.00    +0.000 A 
ATOM      9  C   UNL     1       0.639  11.560  20.821  0.00  0.00    +0.000 A 
ATOM     10  C   UNL     1      -0.047  12.302  21.858  0.00  0.00    +0.000 A 
ATOM     11  C   UNL     1      -0.248  13.990  21.859  0.00  0.00    +0.000 C 
ATOM     12  C   UNL     1       1.118  14.658  21.905  0.00  0.00    +0.000 C 
ATOM     13  C   UNL     1      -1.063  14.830  20.735  0.00  0.00    +0.000 C 
ATOM     14  C   UNL     1      -2.614  14.745  20.784  0.00  0.00    +0.000 C 
ATOM     15  N   UNL     1      -2.990  13.445  21.308  0.00  0.00    +0.000 NA
ENDROOT
BRANCH   8  16
ATOM     16  C   UNL     1       1.066   9.538  19.218  0.00  0.00    +0.000 C 
ATOM     17  O   UNL     1       0.483   9.945  18.219  0.00  0.00    +0.000 OA
ATOM     18  N   UNL     1       2.072   8.586  18.989  0.00  0.00    +0.000 N 
ATOM     19  H   UNL     1       2.722   8.376  19.734  0.00  0.00    +0.000 HD
BRANCH  18  20
ATOM     20  C   UNL     1       2.455   7.953  17.568  0.00  0.00    +0.000 C 
BRANCH  20  21
ATOM     21  C   UNL     1       3.252   6.603  17.631  0.00  0.00    +0.000 A 
ATOM     22  C   UNL     1       2.388   5.611  18.099  0.00  0.00    +0.000 A 
ATOM     23  C   UNL     1       2.931   4.460  18.585  0.00  0.00    +0.000 A 
ATOM     24  C   UNL     1       3.732   3.904  17.636  0.00  0.00    +0.000 A 
ATOM     25  C   UNL     1       4.720   4.723  17.138  0.00  0.00    +0.000 A 
ATOM     26  C   UNL     1       5.767   3.981  16.525  0.00  0.00    +0.000 A 
ATOM     27  C   UNL     1       7.013   4.544  16.315  0.00  0.00    +0.000 A 
ATOM     28  C   UNL     1       7.160   5.872  16.665  0.00  0.00    +0.000 A 
ATOM     29  C   UNL     1       6.032   6.664  17.084  0.00  0.00    +0.000 A 
ATOM     30  C   UNL     1       4.676   6.132  17.286  0.00  0.00    +0.000 A 
ENDBRANCH  20  21
ENDBRANCH  18  20
ENDBRANCH   8  16
BRANCH  15  31
ATOM     31  C   UNL     1      -2.505  12.429  20.308  0.00  0.00    +0.000 C 
BRANCH  31  32
ATOM     32  C   UNL     1      -2.969  12.154  18.885  0.00  0.00    +0.000 C 
ATOM     33  C   UNL     1      -2.211  11.096  18.121  0.00  0.00    +0.000 C 
ATOM     34  C   UNL     1      -3.707  11.011  18.247  0.00  0.00    +0.000 C 
ENDBRANCH  31  32
ENDBRANCH  15  31
TORSDOF 5
ENDMDL
MODEL 9
REMARK VINA RESULT:      -7.6      2.203      4.122
REMARK  Name = 
REMARK  7 active torsions:
REMARK  status: ('A' for Active; 'I' for Inactive)
REMARK    1  A    between atoms: C_1  and  C_2
REMARK    2  A    between atoms: C_8  and  C_9
REMARK    3  A    between atoms: N_11  and  C_12
REMARK    4  A    between atoms: C_12  and  C_13
REMARK    5  A    between atoms: C_25  and  C_26
REMARK    6  A    between atoms: N_29  and  C_30
REMARK    7  A    between atoms: C_30  and  C_31
REMARK                            x       y       z     vdW  Elec       q    Type
REMARK                         _______ _______ _______ _____ _____    ______ ____
ROOT
ATOM      1  C   UNL     1       0.582  18.244  20.432  0.00  0.00    +0.000 C 
ATOM      2  C   UNL     1      -0.055  16.885  20.817  0.00  0.00    +0.000 C 
ATOM      3  C   UNL     1      -1.064  16.269  19.753  0.00  0.00    +0.000 C 
ATOM      4  C   UNL     1      -2.177  15.756  20.698  0.00  0.00    +0.000 C 
ATOM      5  C   UNL     1      -1.618  14.638  21.563  0.00  0.00    +0.000 A 
ATOM      6  C   UNL     1      -2.526  13.631  21.929  0.00  0.00    +0.000 A 
ATOM      7  C   UNL     1      -2.080  12.296  22.241  0.00  0.00    +0.000 A 
ATOM      8  C   UNL     1      -0.705  12.007  22.258  0.00  0.00    +0.000 A 
ATOM      9  C   UNL     1       0.195  13.143  22.096  0.00  0.00    +0.000 A 
ATOM     10  C   UNL     1      -0.200  14.490  21.742  0.00  0.00    +0.000 A 
ATOM     11  C   UNL     1       0.860  15.675  21.141  0.00  0.00    +0.000 C 
ATOM     12  C   UNL     1       1.927  15.970  22.184  0.00  0.00    +0.000 C 
ATOM     13  C   UNL     1       1.686  15.563  19.748  0.00  0.00    +0.000 C 
ATOM     14  C   UNL     1       0.878  15.762  18.435  0.00  0.00    +0.000 C 
ATOM     15  N   UNL     1      -0.480  15.300  18.654  0.00  0.00    +0.000 NA
ENDROOT
BRANCH   8  16
ATOM     16  C   UNL     1      -0.088  10.552  22.312  0.00  0.00    +0.000 C 
ATOM     17  O   UNL     1       0.005  10.077  23.437  0.00  0.00    +0.000 OA
ATOM     18  N   UNL     1       0.415   9.752  21.272  0.00  0.00    +0.000 N 
ATOM     19  H   UNL     1       0.178   9.988  20.319  0.00  0.00    +0.000 HD
BRANCH  18  20
ATOM     20  C   UNL     1       1.148   8.340  21.450  0.00  0.00    +0.000 C 
BRANCH  20  21
ATOM     21  C   UNL     1       1.775   7.743  20.141  0.00  0.00    +0.000 A 
ATOM     22  C   UNL     1       1.944   8.786  19.228  0.00  0.00    +0.000 A 
ATOM     23  C   UNL     1       2.119   8.470  17.914  0.00  0.00    +0.000 A 
ATOM     24  C   UNL     1       3.181   7.629  17.790  0.00  0.00    +0.000 A 
ATOM     25  C   UNL     1       3.125   6.483  18.552  0.00  0.00    +0.000 A 
ATOM     26  C   UNL     1       3.990   5.470  18.054  0.00  0.00    +0.000 A 
ATOM     27  C   UNL     1       3.813   4.144  18.406  0.00  0.00    +0.000 A 
ATOM     28  C   UNL     1       2.806   3.871  19.310  0.00  0.00    +0.000 A 
ATOM     29  C   UNL     1       2.081   4.931  19.964  0.00  0.00    +0.000 A 
ATOM     30  C   UNL     1       2.253   6.360  19.663  0.00  0.00    +0.000 A 
ENDBRANCH  20  21
ENDBRANCH  18  20
ENDBRANCH   8  16
BRANCH  15  31
ATOM     31  C   UNL     1      -0.387  13.821  18.918  0.00  0.00    +0.000 C 
BRANCH  31  32
ATOM     32  C   UNL     1      -1.112  12.658  18.254  0.00  0.00    +0.000 C 
ATOM     33  C   UNL     1      -0.673  11.272  18.658  0.00  0.00    +0.000 C 
ATOM     34  C   UNL     1      -2.123  11.662  18.747  0.00  0.00    +0.000 C 
ENDBRANCH  31  32
ENDBRANCH  15  31
TORSDOF 5
ENDMDL
