MODEL 1
REMARK VINA RESULT:      -7.9      0.000      0.000
REMARK  Name = 
REMARK  7 active torsions:
REMARK  status: ('A' for Active; 'I' for Inactive)
REMARK    1  A    between atoms: C_2  and  O_3
REMARK    2  A    between atoms: C_2  and  C_4
REMARK    3  A    between atoms: C_7  and  C_8
REMARK    4  A    between atoms: C_7  and  C_14
REMARK    5  A    between atoms: C_16  and  C_17
REMARK    6  A    between atoms: C_17  and  O_19
REMARK    7  A    between atoms: C_20  and  O_21
REMARK                            x       y       z     vdW  Elec       q    Type
REMARK                         _______ _______ _______ _____ _____    ______ ____
ROOT
ATOM      1  C   UNL     1      -0.677  11.081  19.974  0.00  0.00    +0.000 C 
ATOM      2  C   UNL     1      -1.743  11.707  20.519  0.00  0.00    +0.000 C 
ATOM      3  C   UNL     1      -3.060  12.082  19.885  0.00  0.00    +0.000 C 
ATOM      4  C   UNL     1      -4.096  12.831  20.591  0.00  0.00    +0.000 C 
ATOM      5  C   UNL     1      -3.074  11.435  18.394  0.00  0.00    +0.000 A 
ATOM      6  C   UNL     1      -4.053  11.556  17.408  0.00  0.00    +0.000 A 
ATOM      7  C   UNL     1      -4.046  10.903  16.147  0.00  0.00    +0.000 A 
ATOM      8  C   UNL     1      -3.003  10.086  15.773  0.00  0.00    +0.000 A 
ATOM      9  C   UNL     1      -1.947   9.994  16.647  0.00  0.00    +0.000 A 
ATOM     10  C   UNL     1      -1.974  10.678  17.895  0.00  0.00    +0.000 A 
ATOM     11  C   UNL     1      -0.695  10.605  18.604  0.00  0.00    +0.000 C 
ATOM     12  O   UNL     1       0.322  10.128  18.099  0.00  0.00    +0.000 OA
ENDROOT
BRANCH   4  13
ATOM     13  C   UNL     1      -4.025  13.614  22.069  0.00  0.00    +0.000 A 
ATOM     14  C   UNL     1      -5.251  13.448  22.712  0.00  0.00    +0.000 A 
ATOM     15  C   UNL     1      -5.236  13.609  24.069  0.00  0.00    +0.000 A 
ATOM     16  C   UNL     1      -4.961  14.935  24.244  0.00  0.00    +0.000 A 
ATOM     17  C   UNL     1      -3.697  15.315  23.885  0.00  0.00    +0.000 A 
ATOM     18  C   UNL     1      -3.208  16.387  24.667  0.00  0.00    +0.000 A 
ATOM     19  C   UNL     1      -1.900  16.369  25.074  0.00  0.00    +0.000 A 
ATOM     20  C   UNL     1      -1.121  15.331  24.584  0.00  0.00    +0.000 A 
ATOM     21  C   UNL     1      -1.604  14.445  23.528  0.00  0.00    +0.000 A 
ATOM     22  C   UNL     1      -3.000  14.406  23.027  0.00  0.00    +0.000 A 
BRANCH  15  23
ATOM     23  C   UNL     1      -4.368  12.538  24.747  0.00  0.00    +0.000 C 
ATOM     24  O   UNL     1      -3.926  11.567  24.148  0.00  0.00    +0.000 OA
BRANCH  23  25
ATOM     25  O   UNL     1      -4.079  12.745  26.051  0.00  0.00    +0.000 OA
ATOM     26  H   UNL     1      -3.922  11.947  26.586  0.00  0.00    +0.000 HD
ENDBRANCH  23  25
ENDBRANCH  15  23
BRANCH  16  27
ATOM     27  O   UNL     1      -5.968  15.868  24.184  0.00  0.00    +0.000 OA
ATOM     28  H   UNL     1      -5.983  16.212  23.267  0.00  0.00    +0.000 HD
ENDBRANCH  16  27
ENDBRANCH   4  13
BRANCH   4  29
ATOM     29  C   UNL     1      -5.401  12.881  19.860  0.00  0.00    +0.000 A 
ATOM     30  C   UNL     1      -6.183  11.713  19.770  0.00  0.00    +0.000 A 
ATOM     31  C   UNL     1      -7.189  11.603  18.802  0.00  0.00    +0.000 A 
ATOM     32  C   UNL     1      -7.438  12.664  17.928  0.00  0.00    +0.000 A 
ATOM     33  C   UNL     1      -6.718  13.857  18.056  0.00  0.00    +0.000 A 
ATOM     34  C   UNL     1      -5.712  13.976  19.031  0.00  0.00    +0.000 A 
ENDBRANCH   4  29
BRANCH   1  36
ATOM     35  O   UNL     1       1.142  11.700  21.399  0.00  0.00    +0.000 OA
ATOM     36  C   UNL     1       0.532  10.808  20.799  0.00  0.00    +0.000 C 
BRANCH  36  37
ATOM     37  O   UNL     1       0.967   9.515  20.833  0.00  0.00    +0.000 OA
ATOM     38  H   UNL     1       0.451   8.954  21.466  0.00  0.00    +0.000 HD
ENDBRANCH  36  37
ENDBRANCH   1  36
TORSDOF 7
ENDMDL
MODEL 2
REMARK VINA RESULT:      -7.7      1.247      2.082
REMARK  Name = 
REMARK  7 active torsions:
REMARK  status: ('A' for Active; 'I' for Inactive)
REMARK    1  A    between atoms: C_2  and  O_3
REMARK    2  A    between atoms: C_2  and  C_4
REMARK    3  A    between atoms: C_7  and  C_8
REMARK    4  A    between atoms: C_7  and  C_14
REMARK    5  A    between atoms: C_16  and  C_17
REMARK    6  A    between atoms: C_17  and  O_19
REMARK    7  A    between atoms: C_20  and  O_21
REMARK                            x       y       z     vdW  Elec       q    Type
REMARK                         _______ _______ _______ _____ _____    ______ ____
ROOT
ATOM      1  C   UNL     1      -0.516  10.800  19.650  0.00  0.00    +0.000 C 
ATOM      2  C   UNL     1      -1.503  11.510  20.239  0.00  0.00    +0.000 C 
ATOM      3  C   UNL     1      -2.821  11.971  19.669  0.00  0.00    +0.000 C 
ATOM      4  C   UNL     1      -3.760  12.804  20.416  0.00  0.00    +0.000 C 
ATOM      5  C   UNL     1      -2.961  11.307  18.192  0.00  0.00    +0.000 A 
ATOM      6  C   UNL     1      -3.980  11.487  17.257  0.00  0.00    +0.000 A 
ATOM      7  C   UNL     1      -4.088  10.818  16.009  0.00  0.00    +0.000 A 
ATOM      8  C   UNL     1      -3.129   9.921  15.595  0.00  0.00    +0.000 A 
ATOM      9  C   UNL     1      -2.038   9.764  16.414  0.00  0.00    +0.000 A 
ATOM     10  C   UNL     1      -1.947  10.465  17.649  0.00  0.00    +0.000 A 
ATOM     11  C   UNL     1      -0.642  10.308  18.292  0.00  0.00    +0.000 C 
ATOM     12  O   UNL     1       0.309   9.750  17.742  0.00  0.00    +0.000 OA
ENDROOT
BRANCH   4  13
ATOM     13  C   UNL     1      -3.553  13.599  21.874  0.00  0.00    +0.000 A 
ATOM     14  C   UNL     1      -3.072  12.683  22.808  0.00  0.00    +0.000 A 
ATOM     15  C   UNL     1      -2.427  13.219  23.887  0.00  0.00    +0.000 A 
ATOM     16  C   UNL     1      -3.407  13.882  24.567  0.00  0.00    +0.000 A 
ATOM     17  C   UNL     1      -3.901  14.989  23.934  0.00  0.00    +0.000 A 
ATOM     18  C   UNL     1      -4.322  15.991  24.839  0.00  0.00    +0.000 A 
ATOM     19  C   UNL     1      -4.049  17.303  24.552  0.00  0.00    +0.000 A 
ATOM     20  C   UNL     1      -3.466  17.550  23.319  0.00  0.00    +0.000 A 
ATOM     21  C   UNL     1      -3.353  16.507  22.302  0.00  0.00    +0.000 A 
ATOM     22  C   UNL     1      -3.634  15.068  22.531  0.00  0.00    +0.000 A 
BRANCH  15  23
ATOM     23  C   UNL     1      -1.144  13.950  23.461  0.00  0.00    +0.000 C 
ATOM     24  O   UNL     1      -0.712  14.930  24.052  0.00  0.00    +0.000 OA
BRANCH  23  25
ATOM     25  O   UNL     1      -0.485  13.425  22.404  0.00  0.00    +0.000 OA
ATOM     26  H   UNL     1      -1.004  12.837  21.827  0.00  0.00    +0.000 HD
ENDBRANCH  23  25
ENDBRANCH  15  23
BRANCH  16  27
ATOM     27  O   UNL     1      -4.225  13.208  25.441  0.00  0.00    +0.000 OA
ATOM     28  H   UNL     1      -3.645  12.800  26.117  0.00  0.00    +0.000 HD
ENDBRANCH  16  27
ENDBRANCH   4  13
BRANCH   4  29
ATOM     29  C   UNL     1      -5.095  12.941  19.753  0.00  0.00    +0.000 A 
ATOM     30  C   UNL     1      -5.506  14.206  19.291  0.00  0.00    +0.000 A 
ATOM     31  C   UNL     1      -6.857  14.462  19.025  0.00  0.00    +0.000 A 
ATOM     32  C   UNL     1      -7.807  13.454  19.197  0.00  0.00    +0.000 A 
ATOM     33  C   UNL     1      -7.402  12.171  19.584  0.00  0.00    +0.000 A 
ATOM     34  C   UNL     1      -6.046  11.907  19.845  0.00  0.00    +0.000 A 
ENDBRANCH   4  29
BRANCH   1  36
ATOM     35  O   UNL     1       1.286  11.255  21.157  0.00  0.00    +0.000 OA
ATOM     36  C   UNL     1       0.713  10.449  20.416  0.00  0.00    +0.000 C 
BRANCH  36  37
ATOM     37  O   UNL     1       1.210   9.192  20.228  0.00  0.00    +0.000 OA
ATOM     38  H   UNL     1       2.085   9.193  19.763  0.00  0.00    +0.000 HD
ENDBRANCH  36  37
ENDBRANCH   1  36
TORSDOF 7
ENDMDL
MODEL 3
REMARK VINA RESULT:      -7.6      0.601      1.114
REMARK  Name = 
REMARK  7 active torsions:
REMARK  status: ('A' for Active; 'I' for Inactive)
REMARK    1  A    between atoms: C_2  and  O_3
REMARK    2  A    between atoms: C_2  and  C_4
REMARK    3  A    between atoms: C_7  and  C_8
REMARK    4  A    between atoms: C_7  and  C_14
REMARK    5  A    between atoms: C_16  and  C_17
REMARK    6  A    between atoms: C_17  and  O_19
REMARK    7  A    between atoms: C_20  and  O_21
REMARK                            x       y       z     vdW  Elec       q    Type
REMARK                         _______ _______ _______ _____ _____    ______ ____
ROOT
ATOM      1  C   UNL     1      -0.537  11.302  20.225  0.00  0.00    +0.000 C 
ATOM      2  C   UNL     1      -1.647  11.947  20.646  0.00  0.00    +0.000 C 
ATOM      3  C   UNL     1      -2.923  12.244  19.899  0.00  0.00    +0.000 C 
ATOM      4  C   UNL     1      -4.015  13.025  20.473  0.00  0.00    +0.000 C 
ATOM      5  C   UNL     1      -2.825  11.483  18.466  0.00  0.00    +0.000 A 
ATOM      6  C   UNL     1      -3.737  11.507  17.411  0.00  0.00    +0.000 A 
ATOM      7  C   UNL     1      -3.635  10.758  16.209  0.00  0.00    +0.000 A 
ATOM      8  C   UNL     1      -2.557   9.935  15.971  0.00  0.00    +0.000 A 
ATOM      9  C   UNL     1      -1.562   9.933  16.918  0.00  0.00    +0.000 A 
ATOM     10  C   UNL     1      -1.683  10.711  18.103  0.00  0.00    +0.000 A 
ATOM     11  C   UNL     1      -0.455  10.720  18.899  0.00  0.00    +0.000 C 
ATOM     12  O   UNL     1       0.601  10.226  18.502  0.00  0.00    +0.000 OA
ENDROOT
BRANCH   4  13
ATOM     13  C   UNL     1      -4.056  13.922  21.886  0.00  0.00    +0.000 A 
ATOM     14  C   UNL     1      -5.260  13.658  22.538  0.00  0.00    +0.000 A 
ATOM     15  C   UNL     1      -5.280  13.924  23.878  0.00  0.00    +0.000 A 
ATOM     16  C   UNL     1      -5.170  15.283  23.950  0.00  0.00    +0.000 A 
ATOM     17  C   UNL     1      -3.959  15.785  23.564  0.00  0.00    +0.000 A 
ATOM     18  C   UNL     1      -3.612  16.966  24.262  0.00  0.00    +0.000 A 
ATOM     19  C   UNL     1      -2.316  17.139  24.671  0.00  0.00    +0.000 A 
ATOM     20  C   UNL     1      -1.412  16.170  24.264  0.00  0.00    +0.000 A 
ATOM     21  C   UNL     1      -1.771  15.153  23.279  0.00  0.00    +0.000 A 
ATOM     22  C   UNL     1      -3.147  14.905  22.781  0.00  0.00    +0.000 A 
BRANCH  15  23
ATOM     23  C   UNL     1      -4.295  13.022  24.639  0.00  0.00    +0.000 C 
ATOM     24  O   UNL     1      -3.984  11.905  24.249  0.00  0.00    +0.000 OA
BRANCH  23  25
ATOM     25  O   UNL     1      -3.751  13.549  25.758  0.00  0.00    +0.000 OA
ATOM     26  H   UNL     1      -3.763  12.979  26.547  0.00  0.00    +0.000 HD
ENDBRANCH  23  25
ENDBRANCH  15  23
BRANCH  16  27
ATOM     27  O   UNL     1      -6.283  16.078  23.816  0.00  0.00    +0.000 OA
ATOM     28  H   UNL     1      -5.963  16.992  23.671  0.00  0.00    +0.000 HD
ENDBRANCH  16  27
ENDBRANCH   4  13
BRANCH   4  29
ATOM     29  C   UNL     1      -5.268  12.992  19.655  0.00  0.00    +0.000 A 
ATOM     30  C   UNL     1      -5.679  14.158  18.980  0.00  0.00    +0.000 A 
ATOM     31  C   UNL     1      -6.999  14.295  18.534  0.00  0.00    +0.000 A 
ATOM     32  C   UNL     1      -7.917  13.262  18.738  0.00  0.00    +0.000 A 
ATOM     33  C   UNL     1      -7.502  12.069  19.340  0.00  0.00    +0.000 A 
ATOM     34  C   UNL     1      -6.176  11.924  19.784  0.00  0.00    +0.000 A 
ENDBRANCH   4  29
BRANCH   1  36
ATOM     35  O   UNL     1       0.665  10.204  21.978  0.00  0.00    +0.000 OA
ATOM     36  C   UNL     1       0.617  11.118  21.148  0.00  0.00    +0.000 C 
BRANCH  36  37
ATOM     37  O   UNL     1       1.617  12.043  21.066  0.00  0.00    +0.000 OA
ATOM     38  H   UNL     1       1.353  12.926  21.431  0.00  0.00    +0.000 HD
ENDBRANCH  36  37
ENDBRANCH   1  36
TORSDOF 7
ENDMDL
MODEL 4
REMARK VINA RESULT:      -7.3      3.104      6.244
REMARK  Name = 
REMARK  7 active torsions:
REMARK  status: ('A' for Active; 'I' for Inactive)
REMARK    1  A    between atoms: C_2  and  O_3
REMARK    2  A    between atoms: C_2  and  C_4
REMARK    3  A    between atoms: C_7  and  C_8
REMARK    4  A    between atoms: C_7  and  C_14
REMARK    5  A    between atoms: C_16  and  C_17
REMARK    6  A    between atoms: C_17  and  O_19
REMARK    7  A    between atoms: C_20  and  O_21
REMARK                            x       y       z     vdW  Elec       q    Type
REMARK                         _______ _______ _______ _____ _____    ______ ____
ROOT
ATOM      1  C   UNL     1      -3.240  11.549  17.819  0.00  0.00    +0.000 C 
ATOM      2  C   UNL     1      -2.406  12.139  18.704  0.00  0.00    +0.000 C 
ATOM      3  C   UNL     1      -2.723  12.807  20.019  0.00  0.00    +0.000 C 
ATOM      4  C   UNL     1      -1.711  13.472  20.835  0.00  0.00    +0.000 C 
ATOM      5  C   UNL     1      -4.302  12.554  20.314  0.00  0.00    +0.000 A 
ATOM      6  C   UNL     1      -5.068  13.027  21.379  0.00  0.00    +0.000 A 
ATOM      7  C   UNL     1      -6.430  12.709  21.627  0.00  0.00    +0.000 A 
ATOM      8  C   UNL     1      -7.139  11.895  20.772  0.00  0.00    +0.000 A 
ATOM      9  C   UNL     1      -6.485  11.470  19.641  0.00  0.00    +0.000 A 
ATOM     10  C   UNL     1      -5.126  11.823  19.410  0.00  0.00    +0.000 A 
ATOM     11  C   UNL     1      -4.661  11.431  18.078  0.00  0.00    +0.000 C 
ATOM     12  O   UNL     1      -5.415  10.980  17.215  0.00  0.00    +0.000 OA
ENDROOT
BRANCH   4  13
ATOM     13  C   UNL     1      -0.124  13.851  20.465  0.00  0.00    +0.000 A 
ATOM     14  C   UNL     1       0.681  12.772  20.827  0.00  0.00    +0.000 A 
ATOM     15  C   UNL     1       1.896  12.703  20.205  0.00  0.00    +0.000 A 
ATOM     16  C   UNL     1       2.578  13.783  20.686  0.00  0.00    +0.000 A 
ATOM     17  C   UNL     1       2.101  14.997  20.274  0.00  0.00    +0.000 A 
ATOM     18  C   UNL     1       3.120  15.972  20.159  0.00  0.00    +0.000 A 
ATOM     19  C   UNL     1       3.094  16.836  19.097  0.00  0.00    +0.000 A 
ATOM     20  C   UNL     1       1.987  16.751  18.265  0.00  0.00    +0.000 A 
ATOM     21  C   UNL     1       0.821  15.946  18.622  0.00  0.00    +0.000 A 
ATOM     22  C   UNL     1       0.767  14.992  19.758  0.00  0.00    +0.000 A 
BRANCH  15  23
ATOM     23  C   UNL     1       1.734  12.494  18.691  0.00  0.00    +0.000 C 
ATOM     24  O   UNL     1       2.499  12.981  17.870  0.00  0.00    +0.000 OA
BRANCH  23  25
ATOM     25  O   UNL     1       0.710  11.700  18.308  0.00  0.00    +0.000 OA
ATOM     26  H   UNL     1      -0.151  11.883  18.723  0.00  0.00    +0.000 HD
ENDBRANCH  23  25
ENDBRANCH  15  23
BRANCH  16  27
ATOM     27  O   UNL     1       3.235  13.711  21.890  0.00  0.00    +0.000 OA
ATOM     28  H   UNL     1       2.603  14.007  22.577  0.00  0.00    +0.000 HD
ENDBRANCH  16  27
ENDBRANCH   4  13
BRANCH   4  29
ATOM     29  C   UNL     1      -2.198  13.851  22.200  0.00  0.00    +0.000 A 
ATOM     30  C   UNL     1      -2.410  12.841  23.158  0.00  0.00    +0.000 A 
ATOM     31  C   UNL     1      -3.208  13.084  24.283  0.00  0.00    +0.000 A 
ATOM     32  C   UNL     1      -3.784  14.341  24.474  0.00  0.00    +0.000 A 
ATOM     33  C   UNL     1      -3.520  15.375  23.568  0.00  0.00    +0.000 A 
ATOM     34  C   UNL     1      -2.714  15.138  22.440  0.00  0.00    +0.000 A 
ENDBRANCH   4  29
BRANCH   1  36
ATOM     35  O   UNL     1      -1.929   9.975  16.582  0.00  0.00    +0.000 OA
ATOM     36  C   UNL     1      -2.697  10.943  16.571  0.00  0.00    +0.000 C 
BRANCH  36  37
ATOM     37  O   UNL     1      -3.059  11.539  15.398  0.00  0.00    +0.000 OA
ATOM     38  H   UNL     1      -4.026  11.447  15.205  0.00  0.00    +0.000 HD
ENDBRANCH  36  37
ENDBRANCH   1  36
TORSDOF 7
ENDMDL
MODEL 5
REMARK VINA RESULT:      -7.2      1.619      2.454
REMARK  Name = 
REMARK  7 active torsions:
REMARK  status: ('A' for Active; 'I' for Inactive)
REMARK    1  A    between atoms: C_2  and  O_3
REMARK    2  A    between atoms: C_2  and  C_4
REMARK    3  A    between atoms: C_7  and  C_8
REMARK    4  A    between atoms: C_7  and  C_14
REMARK    5  A    between atoms: C_16  and  C_17
REMARK    6  A    between atoms: C_17  and  O_19
REMARK    7  A    between atoms: C_20  and  O_21
REMARK                            x       y       z     vdW  Elec       q    Type
REMARK                         _______ _______ _______ _____ _____    ______ ____
ROOT
ATOM      1  C   UNL     1      -0.305  11.598  20.209  0.00  0.00    +0.000 C 
ATOM      2  C   UNL     1      -1.332  12.281  20.761  0.00  0.00    +0.000 C 
ATOM      3  C   UNL     1      -2.720  12.523  20.223  0.00  0.00    +0.000 C 
ATOM      4  C   UNL     1      -3.704  13.354  20.911  0.00  0.00    +0.000 C 
ATOM      5  C   UNL     1      -2.864  11.646  18.862  0.00  0.00    +0.000 A 
ATOM      6  C   UNL     1      -3.944  11.588  17.981  0.00  0.00    +0.000 A 
ATOM      7  C   UNL     1      -4.043  10.742  16.844  0.00  0.00    +0.000 A 
ATOM      8  C   UNL     1      -3.015   9.896  16.493  0.00  0.00    +0.000 A 
ATOM      9  C   UNL     1      -1.872   9.967  17.251  0.00  0.00    +0.000 A 
ATOM     10  C   UNL     1      -1.794  10.841  18.372  0.00  0.00    +0.000 A 
ATOM     11  C   UNL     1      -0.447  10.909  18.941  0.00  0.00    +0.000 C 
ATOM     12  O   UNL     1       0.529  10.377  18.410  0.00  0.00    +0.000 OA
ENDROOT
BRANCH   4  13
ATOM     13  C   UNL     1      -3.509  14.364  22.231  0.00  0.00    +0.000 A 
ATOM     14  C   UNL     1      -2.663  13.735  23.144  0.00  0.00    +0.000 A 
ATOM     15  C   UNL     1      -2.037  14.558  24.037  0.00  0.00    +0.000 A 
ATOM     16  C   UNL     1      -3.050  15.034  24.819  0.00  0.00    +0.000 A 
ATOM     17  C   UNL     1      -3.916  15.883  24.187  0.00  0.00    +0.000 A 
ATOM     18  C   UNL     1      -4.457  16.857  25.059  0.00  0.00    +0.000 A 
ATOM     19  C   UNL     1      -4.599  18.144  24.611  0.00  0.00    +0.000 A 
ATOM     20  C   UNL     1      -4.294  18.364  23.276  0.00  0.00    +0.000 A 
ATOM     21  C   UNL     1      -4.052  17.257  22.354  0.00  0.00    +0.000 A 
ATOM     22  C   UNL     1      -3.892  15.838  22.757  0.00  0.00    +0.000 A 
BRANCH  15  23
ATOM     23  C   UNL     1      -1.082  15.528  23.325  0.00  0.00    +0.000 C 
ATOM     24  O   UNL     1      -0.572  15.279  22.241  0.00  0.00    +0.000 OA
BRANCH  23  25
ATOM     25  O   UNL     1      -0.859  16.706  23.948  0.00  0.00    +0.000 OA
ATOM     26  H   UNL     1      -1.060  16.730  24.900  0.00  0.00    +0.000 HD
ENDBRANCH  23  25
ENDBRANCH  15  23
BRANCH  16  27
ATOM     27  O   UNL     1      -3.513  14.297  25.882  0.00  0.00    +0.000 OA
ATOM     28  H   UNL     1      -2.736  13.852  26.280  0.00  0.00    +0.000 HD
ENDBRANCH  16  27
ENDBRANCH   4  13
BRANCH   4  29
ATOM     29  C   UNL     1      -5.079  13.261  20.326  0.00  0.00    +0.000 A 
ATOM     30  C   UNL     1      -5.603  14.363  19.623  0.00  0.00    +0.000 A 
ATOM     31  C   UNL     1      -6.981  14.475  19.399  0.00  0.00    +0.000 A 
ATOM     32  C   UNL     1      -7.846  13.478  19.854  0.00  0.00    +0.000 A 
ATOM     33  C   UNL     1      -7.331  12.342  20.488  0.00  0.00    +0.000 A 
ATOM     34  C   UNL     1      -5.947  12.221  20.710  0.00  0.00    +0.000 A 
ENDBRANCH   4  29
BRANCH   1  36
ATOM     35  O   UNL     1       1.806  12.412  20.985  0.00  0.00    +0.000 OA
ATOM     36  C   UNL     1       0.992  11.484  20.932  0.00  0.00    +0.000 C 
BRANCH  36  37
ATOM     37  O   UNL     1       1.265  10.277  21.507  0.00  0.00    +0.000 OA
ATOM     38  H   UNL     1       0.831   9.522  21.036  0.00  0.00    +0.000 HD
ENDBRANCH  36  37
ENDBRANCH   1  36
TORSDOF 7
ENDMDL
MODEL 6
REMARK VINA RESULT:      -7.1      3.109      6.083
REMARK  Name = 
REMARK  7 active torsions:
REMARK  status: ('A' for Active; 'I' for Inactive)
REMARK    1  A    between atoms: C_2  and  O_3
REMARK    2  A    between atoms: C_2  and  C_4
REMARK    3  A    between atoms: C_7  and  C_8
REMARK    4  A    between atoms: C_7  and  C_14
REMARK    5  A    between atoms: C_16  and  C_17
REMARK    6  A    between atoms: C_17  and  O_19
REMARK    7  A    between atoms: C_20  and  O_21
REMARK                            x       y       z     vdW  Elec       q    Type
REMARK                         _______ _______ _______ _____ _____    ______ ____
ROOT
ATOM      1  C   UNL     1      -3.429  11.515  18.094  0.00  0.00    +0.000 C 
ATOM      2  C   UNL     1      -2.699  12.230  18.979  0.00  0.00    +0.000 C 
ATOM      3  C   UNL     1      -3.150  12.975  20.211  0.00  0.00    +0.000 C 
ATOM      4  C   UNL     1      -2.243  13.772  21.032  0.00  0.00    +0.000 C 
ATOM      5  C   UNL     1      -4.726  12.635  20.424  0.00  0.00    +0.000 A 
ATOM      6  C   UNL     1      -5.594  13.135  21.395  0.00  0.00    +0.000 A 
ATOM      7  C   UNL     1      -6.946  12.742  21.580  0.00  0.00    +0.000 A 
ATOM      8  C   UNL     1      -7.539  11.815  20.752  0.00  0.00    +0.000 A 
ATOM      9  C   UNL     1      -6.782  11.350  19.704  0.00  0.00    +0.000 A 
ATOM     10  C   UNL     1      -5.435  11.779  19.532  0.00  0.00    +0.000 A 
ATOM     11  C   UNL     1      -4.854  11.318  18.270  0.00  0.00    +0.000 C 
ATOM     12  O   UNL     1      -5.515  10.748  17.401  0.00  0.00    +0.000 OA
ENDROOT
BRANCH   4  13
ATOM     13  C   UNL     1      -0.662  14.232  20.734  0.00  0.00    +0.000 A 
ATOM     14  C   UNL     1       0.186  13.302  21.334  0.00  0.00    +0.000 A 
ATOM     15  C   UNL     1       1.456  13.248  20.834  0.00  0.00    +0.000 A 
ATOM     16  C   UNL     1       2.004  14.449  21.182  0.00  0.00    +0.000 A 
ATOM     17  C   UNL     1       1.475  15.533  20.536  0.00  0.00    +0.000 A 
ATOM     18  C   UNL     1       2.421  16.566  20.344  0.00  0.00    +0.000 A 
ATOM     19  C   UNL     1       2.430  17.246  19.154  0.00  0.00    +0.000 A 
ATOM     20  C   UNL     1       1.418  16.927  18.261  0.00  0.00    +0.000 A 
ATOM     21  C   UNL     1       0.289  16.086  18.651  0.00  0.00    +0.000 A 
ATOM     22  C   UNL     1       0.200  15.323  19.921  0.00  0.00    +0.000 A 
BRANCH  15  23
ATOM     23  C   UNL     1       1.456  12.787  19.368  0.00  0.00    +0.000 C 
ATOM     24  O   UNL     1       2.267  13.193  18.546  0.00  0.00    +0.000 OA
BRANCH  23  25
ATOM     25  O   UNL     1       0.524  11.867  19.035  0.00  0.00    +0.000 OA
ATOM     26  H   UNL     1      -0.403  12.127  19.179  0.00  0.00    +0.000 HD
ENDBRANCH  23  25
ENDBRANCH  15  23
BRANCH  16  27
ATOM     27  O   UNL     1       2.546  14.630  22.431  0.00  0.00    +0.000 OA
ATOM     28  H   UNL     1       2.858  15.558  22.474  0.00  0.00    +0.000 HD
ENDBRANCH  16  27
ENDBRANCH   4  13
BRANCH   4  29
ATOM     29  C   UNL     1      -2.848  14.221  22.326  0.00  0.00    +0.000 A 
ATOM     30  C   UNL     1      -3.181  15.580  22.493  0.00  0.00    +0.000 A 
ATOM     31  C   UNL     1      -3.379  16.111  23.773  0.00  0.00    +0.000 A 
ATOM     32  C   UNL     1      -3.268  15.290  24.897  0.00  0.00    +0.000 A 
ATOM     33  C   UNL     1      -3.012  13.923  24.740  0.00  0.00    +0.000 A 
ATOM     34  C   UNL     1      -2.818  13.382  23.456  0.00  0.00    +0.000 A 
ENDBRANCH   4  29
BRANCH   1  36
ATOM     35  O   UNL     1      -2.006   9.885  17.072  0.00  0.00    +0.000 OA
ATOM     36  C   UNL     1      -2.763  10.853  16.938  0.00  0.00    +0.000 C 
BRANCH  36  37
ATOM     37  O   UNL     1      -2.995  11.396  15.708  0.00  0.00    +0.000 OA
ATOM     38  H   UNL     1      -3.744  12.045  15.712  0.00  0.00    +0.000 HD
ENDBRANCH  36  37
ENDBRANCH   1  36
TORSDOF 7
ENDMDL
MODEL 7
REMARK VINA RESULT:      -7.0      2.547      5.033
REMARK  Name = 
REMARK  7 active torsions:
REMARK  status: ('A' for Active; 'I' for Inactive)
REMARK    1  A    between atoms: C_2  and  O_3
REMARK    2  A    between atoms: C_2  and  C_4
REMARK    3  A    between atoms: C_7  and  C_8
REMARK    4  A    between atoms: C_7  and  C_14
REMARK    5  A    between atoms: C_16  and  C_17
REMARK    6  A    between atoms: C_17  and  O_19
REMARK    7  A    between atoms: C_20  and  O_21
REMARK                            x       y       z     vdW  Elec       q    Type
REMARK                         _______ _______ _______ _____ _____    ______ ____
ROOT
ATOM      1  C   UNL     1      -5.781  12.398  19.612  0.00  0.00    +0.000 C 
ATOM      2  C   UNL     1      -4.774  13.013  20.272  0.00  0.00    +0.000 C 
ATOM      3  C   UNL     1      -3.286  12.790  20.169  0.00  0.00    +0.000 C 
ATOM      4  C   UNL     1      -2.319  13.488  21.012  0.00  0.00    +0.000 C 
ATOM      5  C   UNL     1      -3.043  11.745  18.948  0.00  0.00    +0.000 A 
ATOM      6  C   UNL     1      -1.840  11.192  18.510  0.00  0.00    +0.000 A 
ATOM      7  C   UNL     1      -1.679  10.340  17.384  0.00  0.00    +0.000 A 
ATOM      8  C   UNL     1      -2.759   9.952  16.624  0.00  0.00    +0.000 A 
ATOM      9  C   UNL     1      -3.996  10.370  17.051  0.00  0.00    +0.000 A 
ATOM     10  C   UNL     1      -4.128  11.206  18.195  0.00  0.00    +0.000 A 
ATOM     11  C   UNL     1      -5.522  11.397  18.596  0.00  0.00    +0.000 C 
ATOM     12  O   UNL     1      -6.455  10.780  18.080  0.00  0.00    +0.000 OA
ENDROOT
BRANCH   4  13
ATOM     13  C   UNL     1      -2.577  14.452  22.355  0.00  0.00    +0.000 A 
ATOM     14  C   UNL     1      -1.914  13.879  23.440  0.00  0.00    +0.000 A 
ATOM     15  C   UNL     1      -1.628  14.724  24.475  0.00  0.00    +0.000 A 
ATOM     16  C   UNL     1      -2.852  15.050  24.986  0.00  0.00    +0.000 A 
ATOM     17  C   UNL     1      -3.628  15.827  24.172  0.00  0.00    +0.000 A 
ATOM     18  C   UNL     1      -4.478  16.695  24.897  0.00  0.00    +0.000 A 
ATOM     19  C   UNL     1      -4.656  17.978  24.448  0.00  0.00    +0.000 A 
ATOM     20  C   UNL     1      -4.059  18.290  23.236  0.00  0.00    +0.000 A 
ATOM     21  C   UNL     1      -3.469  17.259  22.385  0.00  0.00    +0.000 A 
ATOM     22  C   UNL     1      -3.247  15.850  22.793  0.00  0.00    +0.000 A 
BRANCH  15  23
ATOM     23  C   UNL     1      -0.648  15.824  24.040  0.00  0.00    +0.000 C 
ATOM     24  O   UNL     1      -0.674  16.956  24.504  0.00  0.00    +0.000 OA
BRANCH  23  25
ATOM     25  O   UNL     1       0.286  15.462  23.133  0.00  0.00    +0.000 OA
ATOM     26  H   UNL     1       0.972  14.847  23.448  0.00  0.00    +0.000 HD
ENDBRANCH  23  25
ENDBRANCH  15  23
BRANCH  16  27
ATOM     27  O   UNL     1      -3.473  14.220  25.887  0.00  0.00    +0.000 OA
ATOM     28  H   UNL     1      -3.933  13.529  25.367  0.00  0.00    +0.000 HD
ENDBRANCH  16  27
ENDBRANCH   4  13
BRANCH   4  29
ATOM     29  C   UNL     1      -0.899  13.295  20.578  0.00  0.00    +0.000 A 
ATOM     30  C   UNL     1      -0.402  14.051  19.499  0.00  0.00    +0.000 A 
ATOM     31  C   UNL     1       0.756  13.649  18.822  0.00  0.00    +0.000 A 
ATOM     32  C   UNL     1       1.440  12.501  19.227  0.00  0.00    +0.000 A 
ATOM     33  C   UNL     1       0.999  11.783  20.344  0.00  0.00    +0.000 A 
ATOM     34  C   UNL     1      -0.159  12.187  21.032  0.00  0.00    +0.000 A 
ENDBRANCH   4  29
BRANCH   1  36
ATOM     35  O   UNL     1      -7.735  12.626  20.974  0.00  0.00    +0.000 OA
ATOM     36  C   UNL     1      -7.194  12.788  19.875  0.00  0.00    +0.000 C 
BRANCH  36  37
ATOM     37  O   UNL     1      -7.891  13.303  18.820  0.00  0.00    +0.000 OA
ATOM     38  H   UNL     1      -8.798  12.914  18.735  0.00  0.00    +0.000 HD
ENDBRANCH  36  37
ENDBRANCH   1  36
TORSDOF 7
ENDMDL
MODEL 8
REMARK VINA RESULT:      -7.0      2.632      6.943
REMARK  Name = 
REMARK  7 active torsions:
REMARK  status: ('A' for Active; 'I' for Inactive)
REMARK    1  A    between atoms: C_2  and  O_3
REMARK    2  A    between atoms: C_2  and  C_4
REMARK    3  A    between atoms: C_7  and  C_8
REMARK    4  A    between atoms: C_7  and  C_14
REMARK    5  A    between atoms: C_16  and  C_17
REMARK    6  A    between atoms: C_17  and  O_19
REMARK    7  A    between atoms: C_20  and  O_21
REMARK                            x       y       z     vdW  Elec       q    Type
REMARK                         _______ _______ _______ _____ _____    ______ ____
ROOT
ATOM      1  C   UNL     1      -5.837  12.243  19.148  0.00  0.00    +0.000 C 
ATOM      2  C   UNL     1      -4.672  12.325  19.829  0.00  0.00    +0.000 C 
ATOM      3  C   UNL     1      -4.216  13.364  20.822  0.00  0.00    +0.000 C 
ATOM      4  C   UNL     1      -2.885  13.357  21.423  0.00  0.00    +0.000 C 
ATOM      5  C   UNL     1      -5.479  14.351  21.095  0.00  0.00    +0.000 A 
ATOM      6  C   UNL     1      -5.526  15.493  21.894  0.00  0.00    +0.000 A 
ATOM      7  C   UNL     1      -6.683  16.275  22.156  0.00  0.00    +0.000 A 
ATOM      8  C   UNL     1      -7.897  15.965  21.586  0.00  0.00    +0.000 A 
ATOM      9  C   UNL     1      -7.913  14.913  20.703  0.00  0.00    +0.000 A 
ATOM     10  C   UNL     1      -6.733  14.161  20.444  0.00  0.00    +0.000 A 
ATOM     11  C   UNL     1      -6.903  13.204  19.350  0.00  0.00    +0.000 C 
ATOM     12  O   UNL     1      -7.914  13.167  18.648  0.00  0.00    +0.000 OA
ENDROOT
BRANCH   4  13
ATOM     13  C   UNL     1      -1.547  12.429  21.037  0.00  0.00    +0.000 A 
ATOM     14  C   UNL     1      -0.912  13.010  19.940  0.00  0.00    +0.000 A 
ATOM     15  C   UNL     1       0.403  12.679  19.771  0.00  0.00    +0.000 A 
ATOM     16  C   UNL     1       0.375  11.351  19.457  0.00  0.00    +0.000 A 
ATOM     17  C   UNL     1      -0.013  10.524  20.475  0.00  0.00    +0.000 A 
ATOM     18  C   UNL     1       0.603   9.252  20.408  0.00  0.00    +0.000 A 
ATOM     19  C   UNL     1       1.036   8.662  21.566  0.00  0.00    +0.000 A 
ATOM     20  C   UNL     1       0.730   9.329  22.743  0.00  0.00    +0.000 A 
ATOM     21  C   UNL     1      -0.185  10.468  22.763  0.00  0.00    +0.000 A 
ATOM     22  C   UNL     1      -0.703  11.159  21.556  0.00  0.00    +0.000 A 
BRANCH  15  23
ATOM     23  C   UNL     1       1.258  13.183  20.944  0.00  0.00    +0.000 C 
ATOM     24  O   UNL     1       2.330  12.678  21.248  0.00  0.00    +0.000 OA
BRANCH  23  25
ATOM     25  O   UNL     1       0.776  14.255  21.612  0.00  0.00    +0.000 OA
ATOM     26  H   UNL     1       0.248  14.882  21.088  0.00  0.00    +0.000 HD
ENDBRANCH  23  25
ENDBRANCH  15  23
BRANCH  16  27
ATOM     27  O   UNL     1       0.148  10.947  18.163  0.00  0.00    +0.000 OA
ATOM     28  H   UNL     1      -0.062   9.991  18.195  0.00  0.00    +0.000 HD
ENDBRANCH  16  27
ENDBRANCH   4  13
BRANCH   4  29
ATOM     29  C   UNL     1      -2.733  14.331  22.550  0.00  0.00    +0.000 A 
ATOM     30  C   UNL     1      -2.152  15.589  22.298  0.00  0.00    +0.000 A 
ATOM     31  C   UNL     1      -1.644  16.362  23.349  0.00  0.00    +0.000 A 
ATOM     32  C   UNL     1      -1.730  15.899  24.663  0.00  0.00    +0.000 A 
ATOM     33  C   UNL     1      -2.372  14.685  24.935  0.00  0.00    +0.000 A 
ATOM     34  C   UNL     1      -2.890  13.907  23.884  0.00  0.00    +0.000 A 
ENDBRANCH   4  29
BRANCH   1  36
ATOM     35  O   UNL     1      -6.737  10.116  18.523  0.00  0.00    +0.000 OA
ATOM     36  C   UNL     1      -6.075  11.112  18.209  0.00  0.00    +0.000 C 
BRANCH  36  37
ATOM     37  O   UNL     1      -5.487  11.204  16.981  0.00  0.00    +0.000 OA
ATOM     38  H   UNL     1      -5.247  12.135  16.742  0.00  0.00    +0.000 HD
ENDBRANCH  36  37
ENDBRANCH   1  36
TORSDOF 7
ENDMDL
MODEL 9
REMARK VINA RESULT:      -7.0      1.530      2.009
REMARK  Name = 
REMARK  7 active torsions:
REMARK  status: ('A' for Active; 'I' for Inactive)
REMARK    1  A    between atoms: C_2  and  O_3
REMARK    2  A    between atoms: C_2  and  C_4
REMARK    3  A    between atoms: C_7  and  C_8
REMARK    4  A    between atoms: C_7  and  C_14
REMARK    5  A    between atoms: C_16  and  C_17
REMARK    6  A    between atoms: C_17  and  O_19
REMARK    7  A    between atoms: C_20  and  O_21
REMARK                            x       y       z     vdW  Elec       q    Type
REMARK                         _______ _______ _______ _____ _____    ______ ____
ROOT
ATOM      1  C   UNL     1      -0.373  11.468  19.876  0.00  0.00    +0.000 C 
ATOM      2  C   UNL     1      -1.370  12.206  20.412  0.00  0.00    +0.000 C 
ATOM      3  C   UNL     1      -2.758  12.467  19.884  0.00  0.00    +0.000 C 
ATOM      4  C   UNL     1      -3.706  13.357  20.548  0.00  0.00    +0.000 C 
ATOM      5  C   UNL     1      -2.950  11.536  18.565  0.00  0.00    +0.000 A 
ATOM      6  C   UNL     1      -4.044  11.473  17.702  0.00  0.00    +0.000 A 
ATOM      7  C   UNL     1      -4.186  10.582  16.606  0.00  0.00    +0.000 A 
ATOM      8  C   UNL     1      -3.190   9.691  16.277  0.00  0.00    +0.000 A 
ATOM      9  C   UNL     1      -2.033   9.759  17.015  0.00  0.00    +0.000 A 
ATOM     10  C   UNL     1      -1.912  10.678  18.095  0.00  0.00    +0.000 A 
ATOM     11  C   UNL     1      -0.555  10.730  18.641  0.00  0.00    +0.000 C 
ATOM     12  O   UNL     1       0.396  10.146  18.120  0.00  0.00    +0.000 OA
ENDROOT
BRANCH   4  13
ATOM     13  C   UNL     1      -3.461  14.417  21.820  0.00  0.00    +0.000 A 
ATOM     14  C   UNL     1      -3.741  13.746  23.010  0.00  0.00    +0.000 A 
ATOM     15  C   UNL     1      -3.178  14.276  24.137  0.00  0.00    +0.000 A 
ATOM     16  C   UNL     1      -3.808  15.477  24.292  0.00  0.00    +0.000 A 
ATOM     17  C   UNL     1      -3.509  16.412  23.341  0.00  0.00    +0.000 A 
ATOM     18  C   UNL     1      -3.554  17.734  23.844  0.00  0.00    +0.000 A 
ATOM     19  C   UNL     1      -2.594  18.628  23.449  0.00  0.00    +0.000 A 
ATOM     20  C   UNL     1      -1.703  18.182  22.484  0.00  0.00    +0.000 A 
ATOM     21  C   UNL     1      -1.910  16.921  21.775  0.00  0.00    +0.000 A 
ATOM     22  C   UNL     1      -2.929  15.904  22.136  0.00  0.00    +0.000 A 
BRANCH  15  23
ATOM     23  C   UNL     1      -1.644  14.204  24.078  0.00  0.00    +0.000 C 
ATOM     24  O   UNL     1      -0.921  15.025  24.624  0.00  0.00    +0.000 OA
BRANCH  23  25
ATOM     25  O   UNL     1      -1.125  13.148  23.412  0.00  0.00    +0.000 OA
ATOM     26  H   UNL     1      -1.749  12.640  22.864  0.00  0.00    +0.000 HD
ENDBRANCH  23  25
ENDBRANCH  15  23
BRANCH  16  27
ATOM     27  O   UNL     1      -5.029  15.545  24.918  0.00  0.00    +0.000 OA
ATOM     28  H   UNL     1      -5.639  14.964  24.418  0.00  0.00    +0.000 HD
ENDBRANCH  16  27
ENDBRANCH   4  13
BRANCH   4  29
ATOM     29  C   UNL     1      -5.092  13.280  19.988  0.00  0.00    +0.000 A 
ATOM     30  C   UNL     1      -5.694  14.449  19.482  0.00  0.00    +0.000 A 
ATOM     31  C   UNL     1      -7.082  14.517  19.310  0.00  0.00    +0.000 A 
ATOM     32  C   UNL     1      -7.881  13.414  19.621  0.00  0.00    +0.000 A 
ATOM     33  C   UNL     1      -7.288  12.223  20.054  0.00  0.00    +0.000 A 
ATOM     34  C   UNL     1      -5.893  12.146  20.221  0.00  0.00    +0.000 A 
ENDBRANCH   4  29
BRANCH   1  36
ATOM     35  O   UNL     1       1.082  10.633  21.581  0.00  0.00    +0.000 OA
ATOM     36  C   UNL     1       0.932  11.347  20.584  0.00  0.00    +0.000 C 
BRANCH  36  37
ATOM     37  O   UNL     1       1.960  12.103  20.101  0.00  0.00    +0.000 OA
ATOM     38  H   UNL     1       2.823  11.616  20.095  0.00  0.00    +0.000 HD
ENDBRANCH  36  37
ENDBRANCH   1  36
TORSDOF 7
ENDMDL
