MODEL 1
REMARK VINA RESULT:      -7.2      0.000      0.000
REMARK  Name = 
REMARK  7 active torsions:
REMARK  status: ('A' for Active; 'I' for Inactive)
REMARK    1  A    between atoms: C_1  and  C_2
REMARK    2  A    between atoms: C_2  and  O_3
REMARK    3  A    between atoms: O_3  and  C_4
REMARK    4  A    between atoms: C_4  and  C_6
REMARK    5  A    between atoms: C_7  and  O_8
REMARK    6  A    between atoms: C_10  and  C_11
REMARK    7  A    between atoms: C_17  and  C_18
REMARK                            x       y       z     vdW  Elec       q    Type
REMARK                         _______ _______ _______ _____ _____    ______ ____
ROOT
ATOM      1  C   UNL     1       6.274   4.583  17.326  0.00  0.00    +0.000 C 
ATOM      2  C   UNL     1       5.142   4.302  17.982  0.00  0.00    +0.000 C 
ATOM      3  C   UNL     1       4.081   3.942  17.062  0.00  0.00    +0.000 C 
ATOM      4  C   UNL     1       2.798   3.622  17.285  0.00  0.00    +0.000 C 
ATOM      5  N   UNL     1       4.607   3.995  15.785  0.00  0.00    +0.000 NA
ATOM      6  C   UNL     1       5.849   4.370  15.939  0.00  0.00    +0.000 C 
ATOM      7  C   UNL     1       6.777   4.573  14.784  0.00  0.00    +0.000 C 
ENDROOT
BRANCH   4   8
ATOM      8  C   UNL     1       2.183   3.637  18.562  0.00  0.00    +0.000 A 
ATOM      9  C   UNL     1       1.691   4.706  19.291  0.00  0.00    +0.000 A 
ATOM     10  C   UNL     1       1.165   4.314  20.558  0.00  0.00    +0.000 A 
ATOM     11  C   UNL     1       1.276   2.958  20.763  0.00  0.00    +0.000 A 
ATOM     12  S   UNL     1       2.019   2.168  19.443  0.00  0.00    +0.000 S 
ENDBRANCH   4   8
BRANCH   1  13
ATOM     13  C   UNL     1       7.607   4.879  17.834  0.00  0.00    +0.000 C 
ATOM     14  O   UNL     1       8.531   4.084  17.849  0.00  0.00    +0.000 OA
BRANCH  13  15
ATOM     15  O   UNL     1       7.610   6.120  18.395  0.00  0.00    +0.000 OA
BRANCH  15  17
ATOM     16  C   UNL     1       8.160   8.409  18.004  0.00  0.00    +0.000 C 
ATOM     17  C   UNL     1       7.400   7.205  17.478  0.00  0.00    +0.000 C 
ENDBRANCH  15  17
ENDBRANCH  13  15
ENDBRANCH   1  13
BRANCH   2  18
ATOM     18  O   UNL     1       4.947   4.264  19.335  0.00  0.00    +0.000 OA
ATOM     19  H   UNL     1       5.507   4.951  19.746  0.00  0.00    +0.000 HD
ENDBRANCH   2  18
TORSDOF 5
ENDMDL
MODEL 2
REMARK VINA RESULT:      -6.8      1.495      2.558
REMARK  Name = 
REMARK  7 active torsions:
REMARK  status: ('A' for Active; 'I' for Inactive)
REMARK    1  A    between atoms: C_1  and  C_2
REMARK    2  A    between atoms: C_2  and  O_3
REMARK    3  A    between atoms: O_3  and  C_4
REMARK    4  A    between atoms: C_4  and  C_6
REMARK    5  A    between atoms: C_7  and  O_8
REMARK    6  A    between atoms: C_10  and  C_11
REMARK    7  A    between atoms: C_17  and  C_18
REMARK                            x       y       z     vdW  Elec       q    Type
REMARK                         _______ _______ _______ _____ _____    ______ ____
ROOT
ATOM      1  C   UNL     1       6.276   5.294  17.765  0.00  0.00    +0.000 C 
ATOM      2  C   UNL     1       5.076   4.796  18.085  0.00  0.00    +0.000 C 
ATOM      3  C   UNL     1       4.056   5.825  18.044  0.00  0.00    +0.000 C 
ATOM      4  C   UNL     1       2.745   5.771  18.319  0.00  0.00    +0.000 C 
ATOM      5  N   UNL     1       4.673   7.002  17.667  0.00  0.00    +0.000 NA
ATOM      6  C   UNL     1       5.935   6.698  17.521  0.00  0.00    +0.000 C 
ATOM      7  C   UNL     1       6.966   7.710  17.133  0.00  0.00    +0.000 C 
ENDROOT
BRANCH   4   8
ATOM      8  C   UNL     1       2.076   4.614  18.794  0.00  0.00    +0.000 A 
ATOM      9  C   UNL     1       1.425   3.619  18.086  0.00  0.00    +0.000 A 
ATOM     10  C   UNL     1       0.850   2.625  18.932  0.00  0.00    +0.000 A 
ATOM     11  C   UNL     1       1.073   2.893  20.264  0.00  0.00    +0.000 A 
ATOM     12  S   UNL     1       1.958   4.336  20.488  0.00  0.00    +0.000 S 
ENDBRANCH   4   8
BRANCH   1  13
ATOM     13  C   UNL     1       7.553   4.620  17.569  0.00  0.00    +0.000 C 
ATOM     14  O   UNL     1       8.308   4.299  18.471  0.00  0.00    +0.000 OA
BRANCH  13  15
ATOM     15  O   UNL     1       7.814   4.529  16.236  0.00  0.00    +0.000 OA
BRANCH  15  17
ATOM     16  C   UNL     1       6.742   4.706  14.110  0.00  0.00    +0.000 C 
ATOM     17  C   UNL     1       6.751   3.977  15.442  0.00  0.00    +0.000 C 
ENDBRANCH  15  17
ENDBRANCH  13  15
ENDBRANCH   1  13
BRANCH   2  18
ATOM     18  O   UNL     1       4.756   3.493  18.352  0.00  0.00    +0.000 OA
ATOM     19  H   UNL     1       3.795   3.441  18.520  0.00  0.00    +0.000 HD
ENDBRANCH   2  18
TORSDOF 5
ENDMDL
MODEL 3
REMARK VINA RESULT:      -6.5      2.225      3.435
REMARK  Name = 
REMARK  7 active torsions:
REMARK  status: ('A' for Active; 'I' for Inactive)
REMARK    1  A    between atoms: C_1  and  C_2
REMARK    2  A    between atoms: C_2  and  O_3
REMARK    3  A    between atoms: O_3  and  C_4
REMARK    4  A    between atoms: C_4  and  C_6
REMARK    5  A    between atoms: C_7  and  O_8
REMARK    6  A    between atoms: C_10  and  C_11
REMARK    7  A    between atoms: C_17  and  C_18
REMARK                            x       y       z     vdW  Elec       q    Type
REMARK                         _______ _______ _______ _____ _____    ______ ____
ROOT
ATOM      1  C   UNL     1       6.065   5.312  16.376  0.00  0.00    +0.000 C 
ATOM      2  C   UNL     1       4.993   4.760  16.959  0.00  0.00    +0.000 C 
ATOM      3  C   UNL     1       4.684   5.418  18.213  0.00  0.00    +0.000 C 
ATOM      4  C   UNL     1       3.728   5.172  19.120  0.00  0.00    +0.000 C 
ATOM      5  N   UNL     1       5.610   6.429  18.387  0.00  0.00    +0.000 NA
ATOM      6  C   UNL     1       6.398   6.357  17.347  0.00  0.00    +0.000 C 
ATOM      7  C   UNL     1       7.565   7.274  17.157  0.00  0.00    +0.000 C 
ENDROOT
BRANCH   4   8
ATOM      8  C   UNL     1       2.808   4.096  19.037  0.00  0.00    +0.000 A 
ATOM      9  C   UNL     1       1.525   4.071  18.518  0.00  0.00    +0.000 A 
ATOM     10  C   UNL     1       0.904   2.794  18.643  0.00  0.00    +0.000 A 
ATOM     11  C   UNL     1       1.728   1.880  19.260  0.00  0.00    +0.000 A 
ATOM     12  S   UNL     1       3.232   2.563  19.693  0.00  0.00    +0.000 S 
ENDBRANCH   4   8
BRANCH   1  13
ATOM     13  C   UNL     1       6.663   5.055  15.072  0.00  0.00    +0.000 C 
ATOM     14  O   UNL     1       7.794   5.384  14.758  0.00  0.00    +0.000 OA
BRANCH  13  15
ATOM     15  O   UNL     1       5.725   4.518  14.245  0.00  0.00    +0.000 OA
BRANCH  15  17
ATOM     16  C   UNL     1       5.129   3.434  12.203  0.00  0.00    +0.000 C 
ATOM     17  C   UNL     1       6.240   3.661  13.214  0.00  0.00    +0.000 C 
ENDBRANCH  15  17
ENDBRANCH  13  15
ENDBRANCH   1  13
BRANCH   2  18
ATOM     18  O   UNL     1       4.198   3.760  16.471  0.00  0.00    +0.000 OA
ATOM     19  H   UNL     1       4.713   2.930  16.471  0.00  0.00    +0.000 HD
ENDBRANCH   2  18
TORSDOF 5
ENDMDL
MODEL 4
REMARK VINA RESULT:      -6.5      1.698      1.986
REMARK  Name = 
REMARK  7 active torsions:
REMARK  status: ('A' for Active; 'I' for Inactive)
REMARK    1  A    between atoms: C_1  and  C_2
REMARK    2  A    between atoms: C_2  and  O_3
REMARK    3  A    between atoms: O_3  and  C_4
REMARK    4  A    between atoms: C_4  and  C_6
REMARK    5  A    between atoms: C_7  and  O_8
REMARK    6  A    between atoms: C_10  and  C_11
REMARK    7  A    between atoms: C_17  and  C_18
REMARK                            x       y       z     vdW  Elec       q    Type
REMARK                         _______ _______ _______ _____ _____    ______ ____
ROOT
ATOM      1  C   UNL     1       4.900   5.227  16.461  0.00  0.00    +0.000 C 
ATOM      2  C   UNL     1       4.125   4.700  17.417  0.00  0.00    +0.000 C 
ATOM      3  C   UNL     1       4.176   3.252  17.392  0.00  0.00    +0.000 C 
ATOM      4  C   UNL     1       3.541   2.339  18.140  0.00  0.00    +0.000 C 
ATOM      5  N   UNL     1       5.039   2.888  16.375  0.00  0.00    +0.000 NA
ATOM      6  C   UNL     1       5.438   4.013  15.843  0.00  0.00    +0.000 C 
ATOM      7  C   UNL     1       6.378   4.063  14.680  0.00  0.00    +0.000 C 
ENDROOT
BRANCH   4   8
ATOM      8  C   UNL     1       2.581   2.652  19.136  0.00  0.00    +0.000 A 
ATOM      9  C   UNL     1       1.231   2.927  19.003  0.00  0.00    +0.000 A 
ATOM     10  C   UNL     1       0.604   3.223  20.248  0.00  0.00    +0.000 A 
ATOM     11  C   UNL     1       1.493   3.172  21.297  0.00  0.00    +0.000 A 
ATOM     12  S   UNL     1       3.073   2.780  20.779  0.00  0.00    +0.000 S 
ENDBRANCH   4   8
BRANCH   1  13
ATOM     13  C   UNL     1       5.241   6.617  16.186  0.00  0.00    +0.000 C 
ATOM     14  O   UNL     1       5.111   7.156  15.101  0.00  0.00    +0.000 OA
BRANCH  13  15
ATOM     15  O   UNL     1       5.836   7.160  17.284  0.00  0.00    +0.000 OA
BRANCH  15  17
ATOM     16  C   UNL     1       7.891   8.319  17.648  0.00  0.00    +0.000 C 
ATOM     17  C   UNL     1       7.257   6.968  17.366  0.00  0.00    +0.000 C 
ENDBRANCH  15  17
ENDBRANCH  13  15
ENDBRANCH   1  13
BRANCH   2  18
ATOM     18  O   UNL     1       3.410   5.365  18.375  0.00  0.00    +0.000 OA
ATOM     19  H   UNL     1       3.463   6.323  18.188  0.00  0.00    +0.000 HD
ENDBRANCH   2  18
TORSDOF 5
ENDMDL
MODEL 5
REMARK VINA RESULT:      -6.3      2.088      3.131
REMARK  Name = 
REMARK  7 active torsions:
REMARK  status: ('A' for Active; 'I' for Inactive)
REMARK    1  A    between atoms: C_1  and  C_2
REMARK    2  A    between atoms: C_2  and  O_3
REMARK    3  A    between atoms: O_3  and  C_4
REMARK    4  A    between atoms: C_4  and  C_6
REMARK    5  A    between atoms: C_7  and  O_8
REMARK    6  A    between atoms: C_10  and  C_11
REMARK    7  A    between atoms: C_17  and  C_18
REMARK                            x       y       z     vdW  Elec       q    Type
REMARK                         _______ _______ _______ _____ _____    ______ ____
ROOT
ATOM      1  C   UNL     1       5.751   5.679  17.347  0.00  0.00    +0.000 C 
ATOM      2  C   UNL     1       4.670   5.049  17.823  0.00  0.00    +0.000 C 
ATOM      3  C   UNL     1       4.824   4.738  19.230  0.00  0.00    +0.000 C 
ATOM      4  C   UNL     1       4.011   4.097  20.081  0.00  0.00    +0.000 C 
ATOM      5  N   UNL     1       6.058   5.219  19.626  0.00  0.00    +0.000 NA
ATOM      6  C   UNL     1       6.585   5.743  18.550  0.00  0.00    +0.000 C 
ATOM      7  C   UNL     1       7.946   6.362  18.541  0.00  0.00    +0.000 C 
ENDROOT
BRANCH   4   8
ATOM      8  C   UNL     1       2.776   3.506  19.711  0.00  0.00    +0.000 A 
ATOM      9  C   UNL     1       1.484   3.950  19.935  0.00  0.00    +0.000 A 
ATOM     10  C   UNL     1       0.497   3.055  19.427  0.00  0.00    +0.000 A 
ATOM     11  C   UNL     1       1.063   1.949  18.834  0.00  0.00    +0.000 A 
ATOM     12  S   UNL     1       2.769   1.988  18.902  0.00  0.00    +0.000 S 
ENDBRANCH   4   8
BRANCH   1  13
ATOM     13  C   UNL     1       5.995   6.272  16.038  0.00  0.00    +0.000 C 
ATOM     14  O   UNL     1       5.239   7.053  15.485  0.00  0.00    +0.000 OA
BRANCH  13  15
ATOM     15  O   UNL     1       7.114   5.720  15.495  0.00  0.00    +0.000 OA
BRANCH  15  17
ATOM     16  C   UNL     1       6.125   4.117  14.030  0.00  0.00    +0.000 C 
ATOM     17  C   UNL     1       7.034   4.311  15.230  0.00  0.00    +0.000 C 
ENDBRANCH  15  17
ENDBRANCH  13  15
ENDBRANCH   1  13
BRANCH   2  18
ATOM     18  O   UNL     1       3.508   4.765  17.159  0.00  0.00    +0.000 OA
ATOM     19  H   UNL     1       2.771   5.193  17.636  0.00  0.00    +0.000 HD
ENDBRANCH   2  18
TORSDOF 5
ENDMDL
MODEL 6
REMARK VINA RESULT:      -6.2      2.141      3.383
REMARK  Name = 
REMARK  7 active torsions:
REMARK  status: ('A' for Active; 'I' for Inactive)
REMARK    1  A    between atoms: C_1  and  C_2
REMARK    2  A    between atoms: C_2  and  O_3
REMARK    3  A    between atoms: O_3  and  C_4
REMARK    4  A    between atoms: C_4  and  C_6
REMARK    5  A    between atoms: C_7  and  O_8
REMARK    6  A    between atoms: C_10  and  C_11
REMARK    7  A    between atoms: C_17  and  C_18
REMARK                            x       y       z     vdW  Elec       q    Type
REMARK                         _______ _______ _______ _____ _____    ______ ____
ROOT
ATOM      1  C   UNL     1       6.238   5.091  16.649  0.00  0.00    +0.000 C 
ATOM      2  C   UNL     1       5.156   4.544  17.217  0.00  0.00    +0.000 C 
ATOM      3  C   UNL     1       4.784   5.256  18.424  0.00  0.00    +0.000 C 
ATOM      4  C   UNL     1       3.799   5.032  19.306  0.00  0.00    +0.000 C 
ATOM      5  N   UNL     1       5.682   6.295  18.583  0.00  0.00    +0.000 NA
ATOM      6  C   UNL     1       6.512   6.190  17.579  0.00  0.00    +0.000 C 
ATOM      7  C   UNL     1       7.665   7.123  17.388  0.00  0.00    +0.000 C 
ENDROOT
BRANCH   4   8
ATOM      8  C   UNL     1       2.905   3.933  19.241  0.00  0.00    +0.000 A 
ATOM      9  C   UNL     1       3.009   2.678  19.815  0.00  0.00    +0.000 A 
ATOM     10  C   UNL     1       1.907   1.832  19.493  0.00  0.00    +0.000 A 
ATOM     11  C   UNL     1       0.995   2.463  18.677  0.00  0.00    +0.000 A 
ATOM     12  S   UNL     1       1.474   4.057  18.295  0.00  0.00    +0.000 S 
ENDBRANCH   4   8
BRANCH   1  13
ATOM     13  C   UNL     1       6.891   4.785  15.383  0.00  0.00    +0.000 C 
ATOM     14  O   UNL     1       7.792   5.447  14.896  0.00  0.00    +0.000 OA
BRANCH  13  15
ATOM     15  O   UNL     1       6.255   3.738  14.789  0.00  0.00    +0.000 OA
BRANCH  15  17
ATOM     16  C   UNL     1       6.300   3.407  12.425  0.00  0.00    +0.000 C 
ATOM     17  C   UNL     1       5.554   4.058  13.577  0.00  0.00    +0.000 C 
ENDBRANCH  15  17
ENDBRANCH  13  15
ENDBRANCH   1  13
BRANCH   2  18
ATOM     18  O   UNL     1       4.401   3.504  16.749  0.00  0.00    +0.000 OA
ATOM     19  H   UNL     1       3.778   3.853  16.083  0.00  0.00    +0.000 HD
ENDBRANCH   2  18
TORSDOF 5
ENDMDL
MODEL 7
REMARK VINA RESULT:      -6.2      2.012      3.227
REMARK  Name = 
REMARK  7 active torsions:
REMARK  status: ('A' for Active; 'I' for Inactive)
REMARK    1  A    between atoms: C_1  and  C_2
REMARK    2  A    between atoms: C_2  and  O_3
REMARK    3  A    between atoms: O_3  and  C_4
REMARK    4  A    between atoms: C_4  and  C_6
REMARK    5  A    between atoms: C_7  and  O_8
REMARK    6  A    between atoms: C_10  and  C_11
REMARK    7  A    between atoms: C_17  and  C_18
REMARK                            x       y       z     vdW  Elec       q    Type
REMARK                         _______ _______ _______ _____ _____    ______ ____
ROOT
ATOM      1  C   UNL     1       6.288   5.064  17.341  0.00  0.00    +0.000 C 
ATOM      2  C   UNL     1       5.095   4.571  17.693  0.00  0.00    +0.000 C 
ATOM      3  C   UNL     1       4.825   4.810  19.098  0.00  0.00    +0.000 C 
ATOM      4  C   UNL     1       3.779   4.463  19.861  0.00  0.00    +0.000 C 
ATOM      5  N   UNL     1       5.908   5.495  19.615  0.00  0.00    +0.000 NA
ATOM      6  C   UNL     1       6.741   5.628  18.616  0.00  0.00    +0.000 C 
ATOM      7  C   UNL     1       8.067   6.304  18.759  0.00  0.00    +0.000 C 
ENDROOT
BRANCH   4   8
ATOM      8  C   UNL     1       2.683   3.685  19.407  0.00  0.00    +0.000 A 
ATOM      9  C   UNL     1       1.417   4.087  19.019  0.00  0.00    +0.000 A 
ATOM     10  C   UNL     1       0.580   2.994  18.648  0.00  0.00    +0.000 A 
ATOM     11  C   UNL     1       1.229   1.786  18.769  0.00  0.00    +0.000 A 
ATOM     12  S   UNL     1       2.829   1.972  19.336  0.00  0.00    +0.000 S 
ENDBRANCH   4   8
BRANCH   1  13
ATOM     13  C   UNL     1       6.919   5.155  16.030  0.00  0.00    +0.000 C 
ATOM     14  O   UNL     1       7.643   6.069  15.677  0.00  0.00    +0.000 OA
BRANCH  13  15
ATOM     15  O   UNL     1       6.469   4.139  15.244  0.00  0.00    +0.000 OA
BRANCH  15  17
ATOM     16  C   UNL     1       5.607   3.555  13.095  0.00  0.00    +0.000 C 
ATOM     17  C   UNL     1       6.697   4.310  13.836  0.00  0.00    +0.000 C 
ENDBRANCH  15  17
ENDBRANCH  13  15
ENDBRANCH   1  13
BRANCH   2  18
ATOM     18  O   UNL     1       4.164   3.976  16.886  0.00  0.00    +0.000 OA
ATOM     19  H   UNL     1       3.277   4.176  17.241  0.00  0.00    +0.000 HD
ENDBRANCH   2  18
TORSDOF 5
ENDMDL
MODEL 8
REMARK VINA RESULT:      -6.2      2.239      3.276
REMARK  Name = 
REMARK  7 active torsions:
REMARK  status: ('A' for Active; 'I' for Inactive)
REMARK    1  A    between atoms: C_1  and  C_2
REMARK    2  A    between atoms: C_2  and  O_3
REMARK    3  A    between atoms: O_3  and  C_4
REMARK    4  A    between atoms: C_4  and  C_6
REMARK    5  A    between atoms: C_7  and  O_8
REMARK    6  A    between atoms: C_10  and  C_11
REMARK    7  A    between atoms: C_17  and  C_18
REMARK                            x       y       z     vdW  Elec       q    Type
REMARK                         _______ _______ _______ _____ _____    ______ ____
ROOT
ATOM      1  C   UNL     1       5.875   5.690  17.681  0.00  0.00    +0.000 C 
ATOM      2  C   UNL     1       4.787   4.992  18.028  0.00  0.00    +0.000 C 
ATOM      3  C   UNL     1       4.949   4.386  19.335  0.00  0.00    +0.000 C 
ATOM      4  C   UNL     1       4.132   3.593  20.042  0.00  0.00    +0.000 C 
ATOM      5  N   UNL     1       6.197   4.751  19.806  0.00  0.00    +0.000 NA
ATOM      6  C   UNL     1       6.722   5.482  18.858  0.00  0.00    +0.000 C 
ATOM      7  C   UNL     1       8.095   6.066  18.962  0.00  0.00    +0.000 C 
ENDROOT
BRANCH   4   8
ATOM      8  C   UNL     1       2.881   3.116  19.572  0.00  0.00    +0.000 A 
ATOM      9  C   UNL     1       2.600   2.029  18.763  0.00  0.00    +0.000 A 
ATOM     10  C   UNL     1       1.207   1.891  18.489  0.00  0.00    +0.000 A 
ATOM     11  C   UNL     1       0.465   2.880  19.093  0.00  0.00    +0.000 A 
ATOM     12  S   UNL     1       1.442   3.970  19.971  0.00  0.00    +0.000 S 
ENDBRANCH   4   8
BRANCH   1  13
ATOM     13  C   UNL     1       6.116   6.544  16.525  0.00  0.00    +0.000 C 
ATOM     14  O   UNL     1       6.444   7.716  16.591  0.00  0.00    +0.000 OA
BRANCH  13  15
ATOM     15  O   UNL     1       5.795   5.865  15.389  0.00  0.00    +0.000 OA
BRANCH  15  17
ATOM     16  C   UNL     1       6.064   3.957  13.980  0.00  0.00    +0.000 C 
ATOM     17  C   UNL     1       6.748   4.870  14.982  0.00  0.00    +0.000 C 
ENDBRANCH  15  17
ENDBRANCH  13  15
ENDBRANCH   1  13
BRANCH   2  18
ATOM     18  O   UNL     1       3.612   4.876  17.336  0.00  0.00    +0.000 OA
ATOM     19  H   UNL     1       3.733   5.280  16.456  0.00  0.00    +0.000 HD
ENDBRANCH   2  18
TORSDOF 5
ENDMDL
MODEL 9
REMARK VINA RESULT:      -6.1      1.706      2.924
REMARK  Name = 
REMARK  7 active torsions:
REMARK  status: ('A' for Active; 'I' for Inactive)
REMARK    1  A    between atoms: C_1  and  C_2
REMARK    2  A    between atoms: C_2  and  O_3
REMARK    3  A    between atoms: O_3  and  C_4
REMARK    4  A    between atoms: C_4  and  C_6
REMARK    5  A    between atoms: C_7  and  O_8
REMARK    6  A    between atoms: C_10  and  C_11
REMARK    7  A    between atoms: C_17  and  C_18
REMARK                            x       y       z     vdW  Elec       q    Type
REMARK                         _______ _______ _______ _____ _____    ______ ____
ROOT
ATOM      1  C   UNL     1       5.904   4.973  17.414  0.00  0.00    +0.000 C 
ATOM      2  C   UNL     1       4.821   4.529  18.064  0.00  0.00    +0.000 C 
ATOM      3  C   UNL     1       4.081   5.626  18.656  0.00  0.00    +0.000 C 
ATOM      4  C   UNL     1       2.970   5.630  19.406  0.00  0.00    +0.000 C 
ATOM      5  N   UNL     1       4.746   6.794  18.333  0.00  0.00    +0.000 NA
ATOM      6  C   UNL     1       5.786   6.417  17.638  0.00  0.00    +0.000 C 
ATOM      7  C   UNL     1       6.793   7.387  17.107  0.00  0.00    +0.000 C 
ENDROOT
BRANCH   4   8
ATOM      8  C   UNL     1       2.297   4.459  19.840  0.00  0.00    +0.000 A 
ATOM      9  C   UNL     1       2.372   3.798  21.054  0.00  0.00    +0.000 A 
ATOM     10  C   UNL     1       1.554   2.631  21.098  0.00  0.00    +0.000 A 
ATOM     11  C   UNL     1       0.881   2.430  19.914  0.00  0.00    +0.000 A 
ATOM     12  S   UNL     1       1.244   3.634  18.758  0.00  0.00    +0.000 S 
ENDBRANCH   4   8
BRANCH   1  13
ATOM     13  C   UNL     1       6.866   4.255  16.587  0.00  0.00    +0.000 C 
ATOM     14  O   UNL     1       8.076   4.362  16.689  0.00  0.00    +0.000 OA
BRANCH  13  15
ATOM     15  O   UNL     1       6.201   3.563  15.622  0.00  0.00    +0.000 OA
BRANCH  15  17
ATOM     16  C   UNL     1       6.263   3.790  13.246  0.00  0.00    +0.000 C 
ATOM     17  C   UNL     1       5.699   4.359  14.536  0.00  0.00    +0.000 C 
ENDBRANCH  15  17
ENDBRANCH  13  15
ENDBRANCH   1  13
BRANCH   2  18
ATOM     18  O   UNL     1       4.363   3.243  18.143  0.00  0.00    +0.000 OA
ATOM     19  H   UNL     1       4.424   2.839  17.256  0.00  0.00    +0.000 HD
ENDBRANCH   2  18
TORSDOF 5
ENDMDL
