MODEL 1
REMARK VINA RESULT:      -6.5      0.000      0.000
REMARK  Name = 
REMARK  5 active torsions:
REMARK  status: ('A' for Active; 'I' for Inactive)
REMARK    1  A    between atoms: N_2  and  C_4
REMARK    2  A    between atoms: C_4  and  C_11
REMARK    3  A    between atoms: C_5  and  C_6
REMARK    4  A    between atoms: C_11  and  N_18
REMARK    5  A    between atoms: C_12  and  C_13
REMARK                            x       y       z     vdW  Elec       q    Type
REMARK                         _______ _______ _______ _____ _____    ______ ____
ROOT
ATOM      1  C   UNL     1       2.958   4.018  17.839  0.00  0.00    +0.000 C 
ATOM      2  C   UNL     1       3.619   4.107  16.666  0.00  0.00    +0.000 C 
ENDROOT
BRANCH   2   3
ATOM      3  C   UNL     1       4.949   4.603  16.507  0.00  0.00    +0.000 A 
ATOM      4  C   UNL     1       5.618   5.684  17.061  0.00  0.00    +0.000 A 
ATOM      5  C   UNL     1       6.919   5.880  16.507  0.00  0.00    +0.000 A 
ATOM      6  C   UNL     1       7.248   4.901  15.602  0.00  0.00    +0.000 A 
ATOM      7  S   UNL     1       6.004   3.748  15.434  0.00  0.00    +0.000 S 
ENDBRANCH   2   3
BRANCH   1   9
ATOM      8  O   UNL     1       1.233   2.530  18.229  0.00  0.00    +0.000 OA
ATOM      9  N   UNL     1       1.553   3.613  17.717  0.00  0.00    +0.000 N 
ATOM     10  O   UNL     1       0.782   4.356  17.095  0.00  0.00    +0.000 OA
ENDBRANCH   1   9
BRANCH   1  11
ATOM     11  C   UNL     1       3.409   4.352  19.173  0.00  0.00    +0.000 C 
ATOM     12  C   UNL     1       3.278   5.511  19.857  0.00  0.00    +0.000 C 
BRANCH  12  13
ATOM     13  C   UNL     1       2.662   6.694  19.346  0.00  0.00    +0.000 A 
ATOM     14  C   UNL     1       2.679   7.291  18.097  0.00  0.00    +0.000 A 
ATOM     15  C   UNL     1       2.034   8.564  18.076  0.00  0.00    +0.000 A 
ATOM     16  C   UNL     1       1.466   8.873  19.287  0.00  0.00    +0.000 A 
ATOM     17  S   UNL     1       1.693   7.631  20.431  0.00  0.00    +0.000 S 
ENDBRANCH  12  13
BRANCH  11  18
ATOM     18  N   UNL     1       4.214   3.333  19.852  0.00  0.00    +0.000 N 
ATOM     19  O   UNL     1       5.435   3.351  19.652  0.00  0.00    +0.000 OA
ATOM     20  O   UNL     1       3.629   2.507  20.567  0.00  0.00    +0.000 OA
ENDBRANCH  11  18
ENDBRANCH   1  11
TORSDOF 5
ENDMDL
MODEL 2
REMARK VINA RESULT:      -6.5      0.107      5.016
REMARK  Name = 
REMARK  5 active torsions:
REMARK  status: ('A' for Active; 'I' for Inactive)
REMARK    1  A    between atoms: N_2  and  C_4
REMARK    2  A    between atoms: C_4  and  C_11
REMARK    3  A    between atoms: C_5  and  C_6
REMARK    4  A    between atoms: C_11  and  N_18
REMARK    5  A    between atoms: C_12  and  C_13
REMARK                            x       y       z     vdW  Elec       q    Type
REMARK                         _______ _______ _______ _____ _____    ______ ____
ROOT
ATOM      1  C   UNL     1       3.328   4.367  19.211  0.00  0.00    +0.000 C 
ATOM      2  C   UNL     1       3.199   5.534  19.877  0.00  0.00    +0.000 C 
ENDROOT
BRANCH   2   3
ATOM      3  C   UNL     1       2.619   6.725  19.343  0.00  0.00    +0.000 A 
ATOM      4  C   UNL     1       2.640   7.291  18.078  0.00  0.00    +0.000 A 
ATOM      5  C   UNL     1       2.024   8.578  18.031  0.00  0.00    +0.000 A 
ATOM      6  C   UNL     1       1.475   8.932  19.239  0.00  0.00    +0.000 A 
ATOM      7  S   UNL     1       1.689   7.717  20.414  0.00  0.00    +0.000 S 
ENDBRANCH   2   3
BRANCH   1   9
ATOM      8  O   UNL     1       5.305   3.272  19.699  0.00  0.00    +0.000 OA
ATOM      9  N   UNL     1       4.089   3.337  19.929  0.00  0.00    +0.000 N 
ATOM     10  O   UNL     1       3.473   2.584  20.696  0.00  0.00    +0.000 OA
ENDBRANCH   1   9
BRANCH   1  11
ATOM     11  C   UNL     1       2.908   4.027  17.869  0.00  0.00    +0.000 C 
ATOM     12  C   UNL     1       3.599   4.107  16.708  0.00  0.00    +0.000 C 
BRANCH  12  13
ATOM     13  C   UNL     1       4.933   4.602  16.585  0.00  0.00    +0.000 A 
ATOM     14  C   UNL     1       5.599   5.652  17.194  0.00  0.00    +0.000 A 
ATOM     15  C   UNL     1       6.900   5.879  16.652  0.00  0.00    +0.000 A 
ATOM     16  C   UNL     1       7.231   4.944  15.701  0.00  0.00    +0.000 A 
ATOM     17  S   UNL     1       5.992   3.796  15.479  0.00  0.00    +0.000 S 
ENDBRANCH  12  13
BRANCH  11  18
ATOM     18  N   UNL     1       1.506   3.633  17.715  0.00  0.00    +0.000 N 
ATOM     19  O   UNL     1       0.783   4.370  17.032  0.00  0.00    +0.000 OA
ATOM     20  O   UNL     1       1.120   2.604  18.289  0.00  0.00    +0.000 OA
ENDBRANCH  11  18
ENDBRANCH   1  11
TORSDOF 5
ENDMDL
MODEL 3
REMARK VINA RESULT:      -6.5      1.216      1.484
REMARK  Name = 
REMARK  5 active torsions:
REMARK  status: ('A' for Active; 'I' for Inactive)
REMARK    1  A    between atoms: N_2  and  C_4
REMARK    2  A    between atoms: C_4  and  C_11
REMARK    3  A    between atoms: C_5  and  C_6
REMARK    4  A    between atoms: C_11  and  N_18
REMARK    5  A    between atoms: C_12  and  C_13
REMARK                            x       y       z     vdW  Elec       q    Type
REMARK                         _______ _______ _______ _____ _____    ______ ____
ROOT
ATOM      1  C   UNL     1       2.766   3.839  18.592  0.00  0.00    +0.000 C 
ATOM      2  C   UNL     1       3.797   3.952  17.728  0.00  0.00    +0.000 C 
ENDROOT
BRANCH   2   3
ATOM      3  C   UNL     1       5.088   4.469  18.053  0.00  0.00    +0.000 A 
ATOM      4  C   UNL     1       5.602   5.048  19.202  0.00  0.00    +0.000 A 
ATOM      5  C   UNL     1       6.930   5.546  19.032  0.00  0.00    +0.000 A 
ATOM      6  C   UNL     1       7.429   5.267  17.784  0.00  0.00    +0.000 A 
ATOM      7  S   UNL     1       6.313   4.399  16.833  0.00  0.00    +0.000 S 
ENDBRANCH   2   3
BRANCH   1   9
ATOM      8  O   UNL     1       1.057   2.308  18.316  0.00  0.00    +0.000 OA
ATOM      9  N   UNL     1       1.502   3.414  17.979  0.00  0.00    +0.000 N 
ATOM     10  O   UNL     1       0.971   4.167  17.151  0.00  0.00    +0.000 OA
ENDBRANCH   1   9
BRANCH   1  11
ATOM     11  C   UNL     1       2.711   4.163  20.001  0.00  0.00    +0.000 C 
ATOM     12  C   UNL     1       2.444   5.346  20.599  0.00  0.00    +0.000 C 
BRANCH  12  13
ATOM     13  C   UNL     1       2.184   6.569  19.908  0.00  0.00    +0.000 A 
ATOM     14  C   UNL     1       2.483   6.998  18.626  0.00  0.00    +0.000 A 
ATOM     15  C   UNL     1       2.159   8.371  18.406  0.00  0.00    +0.000 A 
ATOM     16  C   UNL     1       1.543   8.936  19.496  0.00  0.00    +0.000 A 
ATOM     17  S   UNL     1       1.342   7.815  20.764  0.00  0.00    +0.000 S 
ENDBRANCH  12  13
BRANCH  11  18
ATOM     18  N   UNL     1       3.097   3.090  20.922  0.00  0.00    +0.000 N 
ATOM     19  O   UNL     1       2.532   3.060  22.022  0.00  0.00    +0.000 OA
ATOM     20  O   UNL     1       3.974   2.294  20.558  0.00  0.00    +0.000 OA
ENDBRANCH  11  18
ENDBRANCH   1  11
TORSDOF 5
ENDMDL
MODEL 4
REMARK VINA RESULT:      -6.5      3.108      4.887
REMARK  Name = 
REMARK  5 active torsions:
REMARK  status: ('A' for Active; 'I' for Inactive)
REMARK    1  A    between atoms: N_2  and  C_4
REMARK    2  A    between atoms: C_4  and  C_11
REMARK    3  A    between atoms: C_5  and  C_6
REMARK    4  A    between atoms: C_11  and  N_18
REMARK    5  A    between atoms: C_12  and  C_13
REMARK                            x       y       z     vdW  Elec       q    Type
REMARK                         _______ _______ _______ _____ _____    ______ ____
ROOT
ATOM      1  C   UNL     1       5.208   5.570  17.185  0.00  0.00    +0.000 C 
ATOM      2  C   UNL     1       4.169   6.417  17.027  0.00  0.00    +0.000 C 
ENDROOT
BRANCH   2   3
ATOM      3  C   UNL     1       3.355   6.926  18.084  0.00  0.00    +0.000 A 
ATOM      4  C   UNL     1       3.021   6.424  19.332  0.00  0.00    +0.000 A 
ATOM      5  C   UNL     1       2.056   7.224  20.017  0.00  0.00    +0.000 A 
ATOM      6  C   UNL     1       1.734   8.358  19.313  0.00  0.00    +0.000 A 
ATOM      7  S   UNL     1       2.598   8.464  17.849  0.00  0.00    +0.000 S 
ENDBRANCH   2   3
BRANCH   1   9
ATOM      8  O   UNL     1       6.231   3.922  15.928  0.00  0.00    +0.000 OA
ATOM      9  N   UNL     1       5.792   5.081  15.930  0.00  0.00    +0.000 N 
ATOM     10  O   UNL     1       5.834   5.855  14.965  0.00  0.00    +0.000 OA
ENDBRANCH   1   9
BRANCH   1  11
ATOM     11  C   UNL     1       5.758   5.012  18.401  0.00  0.00    +0.000 C 
ATOM     12  C   UNL     1       5.309   3.979  19.150  0.00  0.00    +0.000 C 
BRANCH  12  13
ATOM     13  C   UNL     1       4.125   3.228  18.878  0.00  0.00    +0.000 A 
ATOM     14  C   UNL     1       3.556   2.776  17.699  0.00  0.00    +0.000 A 
ATOM     15  C   UNL     1       2.271   2.185  17.889  0.00  0.00    +0.000 A 
ATOM     16  C   UNL     1       1.924   2.122  19.217  0.00  0.00    +0.000 A 
ATOM     17  S   UNL     1       3.145   2.753  20.223  0.00  0.00    +0.000 S 
ENDBRANCH  12  13
BRANCH  11  18
ATOM     18  N   UNL     1       6.907   5.720  18.970  0.00  0.00    +0.000 N 
ATOM     19  O   UNL     1       7.265   5.394  20.109  0.00  0.00    +0.000 OA
ATOM     20  O   UNL     1       7.439   6.612  18.293  0.00  0.00    +0.000 OA
ENDBRANCH  11  18
ENDBRANCH   1  11
TORSDOF 5
ENDMDL
MODEL 5
REMARK VINA RESULT:      -6.4      2.682      5.600
REMARK  Name = 
REMARK  5 active torsions:
REMARK  status: ('A' for Active; 'I' for Inactive)
REMARK    1  A    between atoms: N_2  and  C_4
REMARK    2  A    between atoms: C_4  and  C_11
REMARK    3  A    between atoms: C_5  and  C_6
REMARK    4  A    between atoms: C_11  and  N_18
REMARK    5  A    between atoms: C_12  and  C_13
REMARK                            x       y       z     vdW  Elec       q    Type
REMARK                         _______ _______ _______ _____ _____    ______ ____
ROOT
ATOM      1  C   UNL     1       4.836   5.939  17.327  0.00  0.00    +0.000 C 
ATOM      2  C   UNL     1       3.524   6.113  17.590  0.00  0.00    +0.000 C 
ENDROOT
BRANCH   2   3
ATOM      3  C   UNL     1       2.675   5.145  18.209  0.00  0.00    +0.000 A 
ATOM      4  C   UNL     1       2.057   4.000  17.730  0.00  0.00    +0.000 A 
ATOM      5  C   UNL     1       1.178   3.400  18.682  0.00  0.00    +0.000 A 
ATOM      6  C   UNL     1       1.205   4.050  19.891  0.00  0.00    +0.000 A 
ATOM      7  S   UNL     1       2.290   5.364  19.882  0.00  0.00    +0.000 S 
ENDBRANCH   2   3
BRANCH   1   9
ATOM      8  O   UNL     1       4.968   7.268  15.440  0.00  0.00    +0.000 OA
ATOM      9  N   UNL     1       5.451   7.026  16.555  0.00  0.00    +0.000 N 
ATOM     10  O   UNL     1       6.423   7.615  17.048  0.00  0.00    +0.000 OA
ENDBRANCH   1   9
BRANCH   1  11
ATOM     11  C   UNL     1       5.686   4.805  17.614  0.00  0.00    +0.000 C 
ATOM     12  C   UNL     1       6.302   3.957  16.759  0.00  0.00    +0.000 C 
BRANCH  12  13
ATOM     13  C   UNL     1       6.192   4.011  15.336  0.00  0.00    +0.000 A 
ATOM     14  C   UNL     1       5.251   3.511  14.453  0.00  0.00    +0.000 A 
ATOM     15  C   UNL     1       5.625   3.675  13.085  0.00  0.00    +0.000 A 
ATOM     16  C   UNL     1       6.801   4.371  12.953  0.00  0.00    +0.000 A 
ATOM     17  S   UNL     1       7.437   4.838  14.463  0.00  0.00    +0.000 S 
ENDBRANCH  12  13
BRANCH  11  18
ATOM     18  N   UNL     1       5.827   4.450  19.029  0.00  0.00    +0.000 N 
ATOM     19  O   UNL     1       6.484   5.220  19.742  0.00  0.00    +0.000 OA
ATOM     20  O   UNL     1       5.303   3.399  19.424  0.00  0.00    +0.000 OA
ENDBRANCH  11  18
ENDBRANCH   1  11
TORSDOF 5
ENDMDL
MODEL 6
REMARK VINA RESULT:      -6.4      1.220      4.746
REMARK  Name = 
REMARK  5 active torsions:
REMARK  status: ('A' for Active; 'I' for Inactive)
REMARK    1  A    between atoms: N_2  and  C_4
REMARK    2  A    between atoms: C_4  and  C_11
REMARK    3  A    between atoms: C_5  and  C_6
REMARK    4  A    between atoms: C_11  and  N_18
REMARK    5  A    between atoms: C_12  and  C_13
REMARK                            x       y       z     vdW  Elec       q    Type
REMARK                         _______ _______ _______ _____ _____    ______ ____
ROOT
ATOM      1  C   UNL     1       3.315   4.008  19.573  0.00  0.00    +0.000 C 
ATOM      2  C   UNL     1       2.916   5.139  20.192  0.00  0.00    +0.000 C 
ENDROOT
BRANCH   2   3
ATOM      3  C   UNL     1       2.540   6.348  19.532  0.00  0.00    +0.000 A 
ATOM      4  C   UNL     1       2.693   6.789  18.226  0.00  0.00    +0.000 A 
ATOM      5  C   UNL     1       2.277   8.142  18.040  0.00  0.00    +0.000 A 
ATOM      6  C   UNL     1       1.741   8.679  19.184  0.00  0.00    +0.000 A 
ATOM      7  S   UNL     1       1.728   7.557  20.466  0.00  0.00    +0.000 S 
ENDBRANCH   2   3
BRANCH   1   9
ATOM      8  O   UNL     1       3.139   2.775  21.519  0.00  0.00    +0.000 OA
ATOM      9  N   UNL     1       3.786   2.953  20.477  0.00  0.00    +0.000 N 
ATOM     10  O   UNL     1       4.806   2.325  20.162  0.00  0.00    +0.000 OA
ENDBRANCH   1   9
BRANCH   1  11
ATOM     11  C   UNL     1       3.430   3.729  18.158  0.00  0.00    +0.000 C 
ATOM     12  C   UNL     1       4.406   4.083  17.291  0.00  0.00    +0.000 C 
BRANCH  12  13
ATOM     13  C   UNL     1       5.551   4.868  17.627  0.00  0.00    +0.000 A 
ATOM     14  C   UNL     1       6.453   4.802  18.675  0.00  0.00    +0.000 A 
ATOM     15  C   UNL     1       7.368   5.897  18.696  0.00  0.00    +0.000 A 
ATOM     16  C   UNL     1       7.199   6.729  17.616  0.00  0.00    +0.000 A 
ATOM     17  S   UNL     1       5.962   6.183  16.579  0.00  0.00    +0.000 S 
ENDBRANCH  12  13
BRANCH  11  18
ATOM     18  N   UNL     1       2.284   3.057  17.541  0.00  0.00    +0.000 N 
ATOM     19  O   UNL     1       2.369   1.833  17.375  0.00  0.00    +0.000 OA
ATOM     20  O   UNL     1       1.311   3.747  17.205  0.00  0.00    +0.000 OA
ENDBRANCH  11  18
ENDBRANCH   1  11
TORSDOF 5
ENDMDL
MODEL 7
REMARK VINA RESULT:      -6.4      1.136      1.251
REMARK  Name = 
REMARK  5 active torsions:
REMARK  status: ('A' for Active; 'I' for Inactive)
REMARK    1  A    between atoms: N_2  and  C_4
REMARK    2  A    between atoms: C_4  and  C_11
REMARK    3  A    between atoms: C_5  and  C_6
REMARK    4  A    between atoms: C_11  and  N_18
REMARK    5  A    between atoms: C_12  and  C_13
REMARK                            x       y       z     vdW  Elec       q    Type
REMARK                         _______ _______ _______ _____ _____    ______ ____
ROOT
ATOM      1  C   UNL     1       3.288   3.866  18.089  0.00  0.00    +0.000 C 
ATOM      2  C   UNL     1       4.241   4.231  17.205  0.00  0.00    +0.000 C 
ENDROOT
BRANCH   2   3
ATOM      3  C   UNL     1       5.417   4.975  17.526  0.00  0.00    +0.000 A 
ATOM      4  C   UNL     1       6.328   4.884  18.567  0.00  0.00    +0.000 A 
ATOM      5  C   UNL     1       7.293   5.936  18.559  0.00  0.00    +0.000 A 
ATOM      6  C   UNL     1       7.149   6.761  17.471  0.00  0.00    +0.000 A 
ATOM      7  S   UNL     1       5.871   6.261  16.460  0.00  0.00    +0.000 S 
ENDBRANCH   2   3
BRANCH   1   9
ATOM      8  O   UNL     1       2.171   2.014  17.273  0.00  0.00    +0.000 OA
ATOM      9  N   UNL     1       2.109   3.233  17.486  0.00  0.00    +0.000 N 
ATOM     10  O   UNL     1       1.140   3.951  17.204  0.00  0.00    +0.000 OA
ENDBRANCH   1   9
BRANCH   1  11
ATOM     11  C   UNL     1       3.227   4.093  19.516  0.00  0.00    +0.000 C 
ATOM     12  C   UNL     1       2.867   5.208  20.192  0.00  0.00    +0.000 C 
BRANCH  12  13
ATOM     13  C   UNL     1       2.491   6.444  19.585  0.00  0.00    +0.000 A 
ATOM     14  C   UNL     1       2.668   6.949  18.308  0.00  0.00    +0.000 A 
ATOM     15  C   UNL     1       2.257   8.310  18.182  0.00  0.00    +0.000 A 
ATOM     16  C   UNL     1       1.697   8.788  19.342  0.00  0.00    +0.000 A 
ATOM     17  S   UNL     1       1.652   7.600  20.562  0.00  0.00    +0.000 S 
ENDBRANCH  12  13
BRANCH  11  18
ATOM     18  N   UNL     1       3.718   3.002  20.362  0.00  0.00    +0.000 N 
ATOM     19  O   UNL     1       4.785   2.468  20.032  0.00  0.00    +0.000 OA
ATOM     20  O   UNL     1       3.035   2.665  21.339  0.00  0.00    +0.000 OA
ENDBRANCH  11  18
ENDBRANCH   1  11
TORSDOF 5
ENDMDL
MODEL 8
REMARK VINA RESULT:      -6.4      2.682      4.077
REMARK  Name = 
REMARK  5 active torsions:
REMARK  status: ('A' for Active; 'I' for Inactive)
REMARK    1  A    between atoms: N_2  and  C_4
REMARK    2  A    between atoms: C_4  and  C_11
REMARK    3  A    between atoms: C_5  and  C_6
REMARK    4  A    between atoms: C_11  and  N_18
REMARK    5  A    between atoms: C_12  and  C_13
REMARK                            x       y       z     vdW  Elec       q    Type
REMARK                         _______ _______ _______ _____ _____    ______ ____
ROOT
ATOM      1  C   UNL     1       5.691   4.804  17.616  0.00  0.00    +0.000 C 
ATOM      2  C   UNL     1       6.300   3.957  16.760  0.00  0.00    +0.000 C 
ENDROOT
BRANCH   2   3
ATOM      3  C   UNL     1       6.195   4.009  15.337  0.00  0.00    +0.000 A 
ATOM      4  C   UNL     1       5.249   3.520  14.450  0.00  0.00    +0.000 A 
ATOM      5  C   UNL     1       5.622   3.693  13.082  0.00  0.00    +0.000 A 
ATOM      6  C   UNL     1       6.804   4.381  12.953  0.00  0.00    +0.000 A 
ATOM      7  S   UNL     1       7.448   4.825  14.466  0.00  0.00    +0.000 S 
ENDBRANCH   2   3
BRANCH   1   9
ATOM      8  O   UNL     1       6.498   5.229  19.740  0.00  0.00    +0.000 OA
ATOM      9  N   UNL     1       5.841   4.451  19.033  0.00  0.00    +0.000 N 
ATOM     10  O   UNL     1       5.328   3.396  19.429  0.00  0.00    +0.000 OA
ENDBRANCH   1   9
BRANCH   1  11
ATOM     11  C   UNL     1       4.846   5.944  17.331  0.00  0.00    +0.000 C 
ATOM     12  C   UNL     1       3.537   6.132  17.615  0.00  0.00    +0.000 C 
BRANCH  12  13
ATOM     13  C   UNL     1       2.695   5.172  18.256  0.00  0.00    +0.000 A 
ATOM     14  C   UNL     1       2.059   4.032  17.794  0.00  0.00    +0.000 A 
ATOM     15  C   UNL     1       1.184   3.449  18.759  0.00  0.00    +0.000 A 
ATOM     16  C   UNL     1       1.236   4.107  19.964  0.00  0.00    +0.000 A 
ATOM     17  S   UNL     1       2.343   5.402  19.934  0.00  0.00    +0.000 S 
ENDBRANCH  12  13
BRANCH  11  18
ATOM     18  N   UNL     1       5.453   7.011  16.533  0.00  0.00    +0.000 N 
ATOM     19  O   UNL     1       6.415   7.611  17.030  0.00  0.00    +0.000 OA
ATOM     20  O   UNL     1       4.963   7.263  15.423  0.00  0.00    +0.000 OA
ENDBRANCH  11  18
ENDBRANCH   1  11
TORSDOF 5
ENDMDL
MODEL 9
REMARK VINA RESULT:      -6.3      0.819      5.062
REMARK  Name = 
REMARK  5 active torsions:
REMARK  status: ('A' for Active; 'I' for Inactive)
REMARK    1  A    between atoms: N_2  and  C_4
REMARK    2  A    between atoms: C_4  and  C_11
REMARK    3  A    between atoms: C_5  and  C_6
REMARK    4  A    between atoms: C_11  and  N_18
REMARK    5  A    between atoms: C_12  and  C_13
REMARK                            x       y       z     vdW  Elec       q    Type
REMARK                         _______ _______ _______ _____ _____    ______ ____
ROOT
ATOM      1  C   UNL     1       3.628   4.577  19.047  0.00  0.00    +0.000 C 
ATOM      2  C   UNL     1       3.543   5.763  19.685  0.00  0.00    +0.000 C 
ENDROOT
BRANCH   2   3
ATOM      3  C   UNL     1       2.765   6.878  19.246  0.00  0.00    +0.000 A 
ATOM      4  C   UNL     1       2.629   7.496  18.013  0.00  0.00    +0.000 A 
ATOM      5  C   UNL     1       1.830   8.679  18.066  0.00  0.00    +0.000 A 
ATOM      6  C   UNL     1       1.308   8.893  19.318  0.00  0.00    +0.000 A 
ATOM      7  S   UNL     1       1.766   7.672  20.414  0.00  0.00    +0.000 S 
ENDBRANCH   2   3
BRANCH   1   9
ATOM      8  O   UNL     1       5.802   3.957  19.528  0.00  0.00    +0.000 OA
ATOM      9  N   UNL     1       4.606   3.645  19.622  0.00  0.00    +0.000 N 
ATOM     10  O   UNL     1       4.185   2.602  20.139  0.00  0.00    +0.000 OA
ENDBRANCH   1   9
BRANCH   1  11
ATOM     11  C   UNL     1       2.967   4.136  17.837  0.00  0.00    +0.000 C 
ATOM     12  C   UNL     1       3.462   4.020  16.584  0.00  0.00    +0.000 C 
BRANCH  12  13
ATOM     13  C   UNL     1       4.795   4.360  16.198  0.00  0.00    +0.000 A 
ATOM     14  C   UNL     1       5.884   3.590  15.826  0.00  0.00    +0.000 A 
ATOM     15  C   UNL     1       7.080   4.353  15.666  0.00  0.00    +0.000 A 
ATOM     16  C   UNL     1       6.859   5.698  15.836  0.00  0.00    +0.000 A 
ATOM     17  S   UNL     1       5.222   6.036  16.167  0.00  0.00    +0.000 S 
ENDBRANCH  12  13
BRANCH  11  18
ATOM     18  N   UNL     1       1.531   3.873  17.950  0.00  0.00    +0.000 N 
ATOM     19  O   UNL     1       0.802   4.321  17.055  0.00  0.00    +0.000 OA
ATOM     20  O   UNL     1       1.127   3.240  18.937  0.00  0.00    +0.000 OA
ENDBRANCH  11  18
ENDBRANCH   1  11
TORSDOF 5
ENDMDL
