MODEL 1
REMARK VINA RESULT:      -6.8      0.000      0.000
REMARK  Name = 
REMARK  5 active torsions:
REMARK  status: ('A' for Active; 'I' for Inactive)
REMARK    1  A    between atoms: C_1  and  C_2
REMARK    2  A    between atoms: C_5  and  N_6
REMARK    3  A    between atoms: C_12  and  C_13
REMARK    4  A    between atoms: C_13  and  N_14
REMARK    5  A    between atoms: C_16  and  C_17
REMARK                            x       y       z     vdW  Elec       q    Type
REMARK                         _______ _______ _______ _____ _____    ______ ____
ROOT
ATOM      1  C   UNL     1       7.555   7.040  17.505  0.00  0.00    +0.000 C 
ATOM      2  C   UNL     1       6.408   6.198  17.959  0.00  0.00    +0.000 A 
ATOM      3  C   UNL     1       6.573   4.955  18.534  0.00  0.00    +0.000 A 
ATOM      4  N   UNL     1       5.550   4.166  18.944  0.00  0.00    +0.000 NA
ATOM      5  C   UNL     1       4.267   4.579  18.796  0.00  0.00    +0.000 A 
ATOM      6  C   UNL     1       4.006   5.816  18.184  0.00  0.00    +0.000 A 
ATOM      7  C   UNL     1       5.096   6.623  17.790  0.00  0.00    +0.000 A 
ENDROOT
BRANCH   5   8
ATOM      8  N   UNL     1       3.306   3.713  19.256  0.00  0.00    +0.000 N 
ATOM      9  C   UNL     1       2.755   2.561  18.544  0.00  0.00    +0.000 C 
ATOM     10  C   UNL     1       1.226   2.541  18.620  0.00  0.00    +0.000 C 
ATOM     11  O   UNL     1       0.764   2.605  19.978  0.00  0.00    +0.000 OA
ATOM     12  C   UNL     1       1.230   3.815  20.599  0.00  0.00    +0.000 C 
ATOM     13  C   UNL     1       2.767   3.897  20.614  0.00  0.00    +0.000 C 
ENDBRANCH   5   8
BRANCH   6  14
ATOM     14  C   UNL     1       2.636   6.342  17.839  0.00  0.00    +0.000 C 
BRANCH  14  15
ATOM     15  N   UNL     1       2.172   7.411  18.709  0.00  0.00    +0.000 N 
ATOM     16  C   UNL     1       1.983   7.404  20.058  0.00  0.00    +0.000 A 
ATOM     17  C   UNL     1       1.474   8.654  20.330  0.00  0.00    +0.000 A 
ATOM     18  N   UNL     1       1.366   9.361  19.160  0.00  0.00    +0.000 NA
ATOM     19  N   UNL     1       1.762   8.576  18.167  0.00  0.00    +0.000 NA
BRANCH  17  20
ATOM     20  C   UNL     1       1.074   9.190  21.608  0.00  0.00    +0.000 C 
ATOM     21  O   UNL     1       1.159  10.377  21.913  0.00  0.00    +0.000 OA
ENDBRANCH  17  20
ENDBRANCH  14  15
ENDBRANCH   6  14
TORSDOF 4
ENDMDL
MODEL 2
REMARK VINA RESULT:      -6.8      2.489      4.442
REMARK  Name = 
REMARK  5 active torsions:
REMARK  status: ('A' for Active; 'I' for Inactive)
REMARK    1  A    between atoms: C_1  and  C_2
REMARK    2  A    between atoms: C_5  and  N_6
REMARK    3  A    between atoms: C_12  and  C_13
REMARK    4  A    between atoms: C_13  and  N_14
REMARK    5  A    between atoms: C_16  and  C_17
REMARK                            x       y       z     vdW  Elec       q    Type
REMARK                         _______ _______ _______ _____ _____    ______ ____
ROOT
ATOM      1  C   UNL     1       0.371   2.379  18.947  0.00  0.00    +0.000 C 
ATOM      2  C   UNL     1       1.600   3.107  18.511  0.00  0.00    +0.000 A 
ATOM      3  C   UNL     1       2.483   2.596  17.582  0.00  0.00    +0.000 A 
ATOM      4  N   UNL     1       3.610   3.230  17.178  0.00  0.00    +0.000 NA
ATOM      5  C   UNL     1       3.935   4.442  17.693  0.00  0.00    +0.000 A 
ATOM      6  C   UNL     1       3.112   5.018  18.674  0.00  0.00    +0.000 A 
ATOM      7  C   UNL     1       1.933   4.341  19.055  0.00  0.00    +0.000 A 
ENDROOT
BRANCH   5   8
ATOM      8  N   UNL     1       5.089   5.005  17.207  0.00  0.00    +0.000 N 
ATOM      9  C   UNL     1       5.265   5.658  15.910  0.00  0.00    +0.000 C 
ATOM     10  C   UNL     1       6.529   5.160  15.204  0.00  0.00    +0.000 C 
ATOM     11  O   UNL     1       7.689   5.301  16.039  0.00  0.00    +0.000 OA
ATOM     12  C   UNL     1       7.520   4.542  17.249  0.00  0.00    +0.000 C 
ATOM     13  C   UNL     1       6.295   5.010  18.053  0.00  0.00    +0.000 C 
ENDBRANCH   5   8
BRANCH   6  14
ATOM     14  C   UNL     1       3.415   6.291  19.423  0.00  0.00    +0.000 C 
BRANCH  14  15
ATOM     15  N   UNL     1       2.716   7.461  18.917  0.00  0.00    +0.000 N 
ATOM     16  C   UNL     1       1.732   8.198  19.504  0.00  0.00    +0.000 A 
ATOM     17  C   UNL     1       1.404   9.136  18.550  0.00  0.00    +0.000 A 
ATOM     18  N   UNL     1       2.178   8.935  17.436  0.00  0.00    +0.000 NA
ATOM     19  N   UNL     1       2.954   7.882  17.658  0.00  0.00    +0.000 NA
BRANCH  17  20
ATOM     20  C   UNL     1       0.404  10.171  18.630  0.00  0.00    +0.000 C 
ATOM     21  O   UNL     1      -0.633  10.076  19.282  0.00  0.00    +0.000 OA
ENDBRANCH  17  20
ENDBRANCH  14  15
ENDBRANCH   6  14
TORSDOF 4
ENDMDL
MODEL 3
REMARK VINA RESULT:      -6.7      2.106      4.205
REMARK  Name = 
REMARK  5 active torsions:
REMARK  status: ('A' for Active; 'I' for Inactive)
REMARK    1  A    between atoms: C_1  and  C_2
REMARK    2  A    between atoms: C_5  and  N_6
REMARK    3  A    between atoms: C_12  and  C_13
REMARK    4  A    between atoms: C_13  and  N_14
REMARK    5  A    between atoms: C_16  and  C_17
REMARK                            x       y       z     vdW  Elec       q    Type
REMARK                         _______ _______ _______ _____ _____    ______ ____
ROOT
ATOM      1  C   UNL     1       1.315   2.813  20.989  0.00  0.00    +0.000 C 
ATOM      2  C   UNL     1       2.458   3.361  20.198  0.00  0.00    +0.000 A 
ATOM      3  C   UNL     1       3.722   2.810  20.229  0.00  0.00    +0.000 A 
ATOM      4  N   UNL     1       4.778   3.294  19.532  0.00  0.00    +0.000 NA
ATOM      5  C   UNL     1       4.634   4.389  18.745  0.00  0.00    +0.000 A 
ATOM      6  C   UNL     1       3.389   5.037  18.687  0.00  0.00    +0.000 A 
ATOM      7  C   UNL     1       2.304   4.492  19.407  0.00  0.00    +0.000 A 
ENDROOT
BRANCH   5   8
ATOM      8  N   UNL     1       5.760   4.790  18.071  0.00  0.00    +0.000 N 
ATOM      9  C   UNL     1       6.804   5.686  18.567  0.00  0.00    +0.000 C 
ATOM     10  C   UNL     1       7.153   6.759  17.532  0.00  0.00    +0.000 C 
ATOM     11  O   UNL     1       7.500   6.178  16.266  0.00  0.00    +0.000 OA
ATOM     12  C   UNL     1       6.397   5.406  15.760  0.00  0.00    +0.000 C 
ATOM     13  C   UNL     1       6.009   4.266  16.717  0.00  0.00    +0.000 C 
ENDBRANCH   5   8
BRANCH   6  14
ATOM     14  C   UNL     1       3.117   6.330  17.961  0.00  0.00    +0.000 C 
BRANCH  14  15
ATOM     15  N   UNL     1       2.455   7.340  18.770  0.00  0.00    +0.000 N 
ATOM     16  C   UNL     1       2.155   7.320  20.098  0.00  0.00    +0.000 A 
ATOM     17  C   UNL     1       1.477   8.501  20.305  0.00  0.00    +0.000 A 
ATOM     18  N   UNL     1       1.384   9.181  19.117  0.00  0.00    +0.000 NA
ATOM     19  N   UNL     1       1.956   8.443  18.175  0.00  0.00    +0.000 NA
BRANCH  17  20
ATOM     20  C   UNL     1       0.908   8.994  21.535  0.00  0.00    +0.000 C 
ATOM     21  O   UNL     1       1.279  10.018  22.103  0.00  0.00    +0.000 OA
ENDBRANCH  17  20
ENDBRANCH  14  15
ENDBRANCH   6  14
TORSDOF 4
ENDMDL
MODEL 4
REMARK VINA RESULT:      -6.6      1.272      1.369
REMARK  Name = 
REMARK  5 active torsions:
REMARK  status: ('A' for Active; 'I' for Inactive)
REMARK    1  A    between atoms: C_1  and  C_2
REMARK    2  A    between atoms: C_5  and  N_6
REMARK    3  A    between atoms: C_12  and  C_13
REMARK    4  A    between atoms: C_13  and  N_14
REMARK    5  A    between atoms: C_16  and  C_17
REMARK                            x       y       z     vdW  Elec       q    Type
REMARK                         _______ _______ _______ _____ _____    ______ ____
ROOT
ATOM      1  C   UNL     1       7.588   7.268  17.502  0.00  0.00    +0.000 C 
ATOM      2  C   UNL     1       6.489   6.371  17.971  0.00  0.00    +0.000 A 
ATOM      3  C   UNL     1       6.722   5.190  18.643  0.00  0.00    +0.000 A 
ATOM      4  N   UNL     1       5.745   4.353  19.068  0.00  0.00    +0.000 NA
ATOM      5  C   UNL     1       4.443   4.650  18.838  0.00  0.00    +0.000 A 
ATOM      6  C   UNL     1       4.116   5.815  18.124  0.00  0.00    +0.000 A 
ATOM      7  C   UNL     1       5.158   6.676  17.717  0.00  0.00    +0.000 A 
ENDROOT
BRANCH   5   8
ATOM      8  N   UNL     1       3.531   3.744  19.321  0.00  0.00    +0.000 N 
ATOM      9  C   UNL     1       3.119   2.494  18.685  0.00  0.00    +0.000 C 
ATOM     10  C   UNL     1       1.595   2.347  18.684  0.00  0.00    +0.000 C 
ATOM     11  O   UNL     1       1.051   2.482  20.006  0.00  0.00    +0.000 OA
ATOM     12  C   UNL     1       1.379   3.776  20.542  0.00  0.00    +0.000 C 
ATOM     13  C   UNL     1       2.900   3.992  20.629  0.00  0.00    +0.000 C 
ENDBRANCH   5   8
BRANCH   6  14
ATOM     14  C   UNL     1       2.727   6.203  17.685  0.00  0.00    +0.000 C 
BRANCH  14  15
ATOM     15  N   UNL     1       2.215   7.406  18.322  0.00  0.00    +0.000 N 
ATOM     16  C   UNL     1       1.906   8.611  17.767  0.00  0.00    +0.000 A 
ATOM     17  C   UNL     1       1.534   9.387  18.842  0.00  0.00    +0.000 A 
ATOM     18  N   UNL     1       1.637   8.645  19.991  0.00  0.00    +0.000 NA
ATOM     19  N   UNL     1       2.090   7.442  19.665  0.00  0.00    +0.000 NA
BRANCH  17  20
ATOM     20  C   UNL     1       1.120  10.768  18.838  0.00  0.00    +0.000 C 
ATOM     21  O   UNL     1       1.849  11.704  18.520  0.00  0.00    +0.000 OA
ENDBRANCH  17  20
ENDBRANCH  14  15
ENDBRANCH   6  14
TORSDOF 4
ENDMDL
MODEL 5
REMARK VINA RESULT:      -6.6      3.387      5.790
REMARK  Name = 
REMARK  5 active torsions:
REMARK  status: ('A' for Active; 'I' for Inactive)
REMARK    1  A    between atoms: C_1  and  C_2
REMARK    2  A    between atoms: C_5  and  N_6
REMARK    3  A    between atoms: C_12  and  C_13
REMARK    4  A    between atoms: C_13  and  N_14
REMARK    5  A    between atoms: C_16  and  C_17
REMARK                            x       y       z     vdW  Elec       q    Type
REMARK                         _______ _______ _______ _____ _____    ______ ____
ROOT
ATOM      1  C   UNL     1       2.390   9.409  17.747  0.00  0.00    +0.000 C 
ATOM      2  C   UNL     1       2.812   7.980  17.855  0.00  0.00    +0.000 A 
ATOM      3  C   UNL     1       1.960   6.977  18.268  0.00  0.00    +0.000 A 
ATOM      4  N   UNL     1       2.321   5.676  18.387  0.00  0.00    +0.000 NA
ATOM      5  C   UNL     1       3.587   5.289  18.098  0.00  0.00    +0.000 A 
ATOM      6  C   UNL     1       4.532   6.253  17.708  0.00  0.00    +0.000 A 
ATOM      7  C   UNL     1       4.116   7.595  17.572  0.00  0.00    +0.000 A 
ENDROOT
BRANCH   5   8
ATOM      8  N   UNL     1       3.846   3.948  18.237  0.00  0.00    +0.000 N 
ATOM      9  C   UNL     1       3.228   2.856  17.486  0.00  0.00    +0.000 C 
ATOM     10  C   UNL     1       2.771   1.730  18.417  0.00  0.00    +0.000 C 
ATOM     11  O   UNL     1       3.844   1.268  19.252  0.00  0.00    +0.000 OA
ATOM     12  C   UNL     1       4.338   2.350  20.062  0.00  0.00    +0.000 C 
ATOM     13  C   UNL     1       4.868   3.512  19.204  0.00  0.00    +0.000 C 
ENDBRANCH   5   8
BRANCH   6  14
ATOM     14  C   UNL     1       5.999   5.989  17.482  0.00  0.00    +0.000 C 
BRANCH  14  15
ATOM     15  N   UNL     1       6.315   5.474  16.159  0.00  0.00    +0.000 N 
ATOM     16  C   UNL     1       5.660   4.536  15.420  0.00  0.00    +0.000 A 
ATOM     17  C   UNL     1       6.437   4.400  14.291  0.00  0.00    +0.000 A 
ATOM     18  N   UNL     1       7.519   5.237  14.385  0.00  0.00    +0.000 NA
ATOM     19  N   UNL     1       7.454   5.865  15.551  0.00  0.00    +0.000 NA
BRANCH  17  20
ATOM     20  C   UNL     1       6.222   3.522  13.167  0.00  0.00    +0.000 C 
ATOM     21  O   UNL     1       5.848   3.901  12.060  0.00  0.00    +0.000 OA
ENDBRANCH  17  20
ENDBRANCH  14  15
ENDBRANCH   6  14
TORSDOF 4
ENDMDL
MODEL 6
REMARK VINA RESULT:      -6.6      2.654      4.587
REMARK  Name = 
REMARK  5 active torsions:
REMARK  status: ('A' for Active; 'I' for Inactive)
REMARK    1  A    between atoms: C_1  and  C_2
REMARK    2  A    between atoms: C_5  and  N_6
REMARK    3  A    between atoms: C_12  and  C_13
REMARK    4  A    between atoms: C_13  and  N_14
REMARK    5  A    between atoms: C_16  and  C_17
REMARK                            x       y       z     vdW  Elec       q    Type
REMARK                         _______ _______ _______ _____ _____    ______ ____
ROOT
ATOM      1  C   UNL     1       0.496   2.802  18.966  0.00  0.00    +0.000 C 
ATOM      2  C   UNL     1       1.812   3.216  18.393  0.00  0.00    +0.000 A 
ATOM      3  C   UNL     1       2.811   2.316  18.084  0.00  0.00    +0.000 A 
ATOM      4  N   UNL     1       4.017   2.666  17.576  0.00  0.00    +0.000 NA
ATOM      5  C   UNL     1       4.309   3.969  17.344  0.00  0.00    +0.000 A 
ATOM      6  C   UNL     1       3.364   4.957  17.668  0.00  0.00    +0.000 A 
ATOM      7  C   UNL     1       2.108   4.555  18.173  0.00  0.00    +0.000 A 
ENDROOT
BRANCH   5   8
ATOM      8  N   UNL     1       5.552   4.216  16.815  0.00  0.00    +0.000 N 
ATOM      9  C   UNL     1       6.695   4.808  17.508  0.00  0.00    +0.000 C 
ATOM     10  C   UNL     1       7.343   5.912  16.668  0.00  0.00    +0.000 C 
ATOM     11  O   UNL     1       7.693   5.441  15.358  0.00  0.00    +0.000 OA
ATOM     12  C   UNL     1       6.517   4.983  14.669  0.00  0.00    +0.000 C 
ATOM     13  C   UNL     1       5.825   3.832  15.419  0.00  0.00    +0.000 C 
ENDBRANCH   5   8
BRANCH   6  14
ATOM     14  C   UNL     1       3.599   6.444  17.585  0.00  0.00    +0.000 C 
BRANCH  14  15
ATOM     15  N   UNL     1       2.727   7.233  18.439  0.00  0.00    +0.000 N 
ATOM     16  C   UNL     1       2.021   8.360  18.144  0.00  0.00    +0.000 A 
ATOM     17  C   UNL     1       1.432   8.707  19.340  0.00  0.00    +0.000 A 
ATOM     18  N   UNL     1       1.799   7.802  20.303  0.00  0.00    +0.000 NA
ATOM     19  N   UNL     1       2.623   6.923  19.748  0.00  0.00    +0.000 NA
BRANCH  17  20
ATOM     20  C   UNL     1       0.579   9.837  19.614  0.00  0.00    +0.000 C 
ATOM     21  O   UNL     1      -0.004  10.485  18.749  0.00  0.00    +0.000 OA
ENDBRANCH  17  20
ENDBRANCH  14  15
ENDBRANCH   6  14
TORSDOF 4
ENDMDL
MODEL 7
REMARK VINA RESULT:      -6.6      2.692      4.770
REMARK  Name = 
REMARK  5 active torsions:
REMARK  status: ('A' for Active; 'I' for Inactive)
REMARK    1  A    between atoms: C_1  and  C_2
REMARK    2  A    between atoms: C_5  and  N_6
REMARK    3  A    between atoms: C_12  and  C_13
REMARK    4  A    between atoms: C_13  and  N_14
REMARK    5  A    between atoms: C_16  and  C_17
REMARK                            x       y       z     vdW  Elec       q    Type
REMARK                         _______ _______ _______ _____ _____    ______ ____
ROOT
ATOM      1  C   UNL     1       1.284   9.394  20.490  0.00  0.00    +0.000 C 
ATOM      2  C   UNL     1       1.574   7.956  20.209  0.00  0.00    +0.000 A 
ATOM      3  C   UNL     1       1.214   6.938  21.067  0.00  0.00    +0.000 A 
ATOM      4  N   UNL     1       1.476   5.627  20.843  0.00  0.00    +0.000 NA
ATOM      5  C   UNL     1       2.134   5.244  19.721  0.00  0.00    +0.000 A 
ATOM      6  C   UNL     1       2.573   6.221  18.811  0.00  0.00    +0.000 A 
ATOM      7  C   UNL     1       2.262   7.574  19.065  0.00  0.00    +0.000 A 
ENDROOT
BRANCH   5   8
ATOM      8  N   UNL     1       2.337   3.894  19.582  0.00  0.00    +0.000 N 
ATOM      9  C   UNL     1       3.235   3.058  20.378  0.00  0.00    +0.000 C 
ATOM     10  C   UNL     1       4.087   2.151  19.485  0.00  0.00    +0.000 C 
ATOM     11  O   UNL     1       3.273   1.371  18.596  0.00  0.00    +0.000 OA
ATOM     12  C   UNL     1       2.499   2.239  17.749  0.00  0.00    +0.000 C 
ATOM     13  C   UNL     1       1.570   3.156  18.564  0.00  0.00    +0.000 C 
ENDBRANCH   5   8
BRANCH   6  14
ATOM     14  C   UNL     1       3.424   5.954  17.595  0.00  0.00    +0.000 C 
BRANCH  14  15
ATOM     15  N   UNL     1       4.854   6.022  17.842  0.00  0.00    +0.000 N 
ATOM     16  C   UNL     1       5.594   5.407  18.807  0.00  0.00    +0.000 A 
ATOM     17  C   UNL     1       6.870   5.884  18.603  0.00  0.00    +0.000 A 
ATOM     18  N   UNL     1       6.861   6.760  17.549  0.00  0.00    +0.000 NA
ATOM     19  N   UNL     1       5.613   6.866  17.112  0.00  0.00    +0.000 NA
BRANCH  17  20
ATOM     20  C   UNL     1       8.062   5.575  19.354  0.00  0.00    +0.000 C 
ATOM     21  O   UNL     1       8.067   5.279  20.546  0.00  0.00    +0.000 OA
ENDBRANCH  17  20
ENDBRANCH  14  15
ENDBRANCH   6  14
TORSDOF 4
ENDMDL
MODEL 8
REMARK VINA RESULT:      -6.5      0.899      1.386
REMARK  Name = 
REMARK  5 active torsions:
REMARK  status: ('A' for Active; 'I' for Inactive)
REMARK    1  A    between atoms: C_1  and  C_2
REMARK    2  A    between atoms: C_5  and  N_6
REMARK    3  A    between atoms: C_12  and  C_13
REMARK    4  A    between atoms: C_13  and  N_14
REMARK    5  A    between atoms: C_16  and  C_17
REMARK                            x       y       z     vdW  Elec       q    Type
REMARK                         _______ _______ _______ _____ _____    ______ ____
ROOT
ATOM      1  C   UNL     1       7.345   6.804  17.248  0.00  0.00    +0.000 C 
ATOM      2  C   UNL     1       6.099   6.244  17.852  0.00  0.00    +0.000 A 
ATOM      3  C   UNL     1       6.100   5.147  18.688  0.00  0.00    +0.000 A 
ATOM      4  N   UNL     1       4.983   4.612  19.239  0.00  0.00    +0.000 NA
ATOM      5  C   UNL     1       3.767   5.150  18.979  0.00  0.00    +0.000 A 
ATOM      6  C   UNL     1       3.670   6.246  18.106  0.00  0.00    +0.000 A 
ATOM      7  C   UNL     1       4.855   6.794  17.568  0.00  0.00    +0.000 A 
ENDROOT
BRANCH   5   8
ATOM      8  N   UNL     1       2.702   4.543  19.597  0.00  0.00    +0.000 N 
ATOM      9  C   UNL     1       2.279   4.721  20.986  0.00  0.00    +0.000 C 
ATOM     10  C   UNL     1       2.011   3.374  21.662  0.00  0.00    +0.000 C 
ATOM     11  O   UNL     1       1.076   2.584  20.912  0.00  0.00    +0.000 OA
ATOM     12  C   UNL     1       1.591   2.331  19.594  0.00  0.00    +0.000 C 
ATOM     13  C   UNL     1       1.843   3.635  18.817  0.00  0.00    +0.000 C 
ENDBRANCH   5   8
BRANCH   6  14
ATOM     14  C   UNL     1       2.380   6.863  17.627  0.00  0.00    +0.000 C 
BRANCH  14  15
ATOM     15  N   UNL     1       1.980   8.053  18.361  0.00  0.00    +0.000 N 
ATOM     16  C   UNL     1       1.639   8.182  19.673  0.00  0.00    +0.000 A 
ATOM     17  C   UNL     1       1.290   9.509  19.797  0.00  0.00    +0.000 A 
ATOM     18  N   UNL     1       1.420  10.125  18.579  0.00  0.00    +0.000 NA
ATOM     19  N   UNL     1       1.810   9.215  17.697  0.00  0.00    +0.000 NA
BRANCH  17  20
ATOM     20  C   UNL     1       0.828  10.198  20.977  0.00  0.00    +0.000 C 
ATOM     21  O   UNL     1       1.239  11.298  21.336  0.00  0.00    +0.000 OA
ENDBRANCH  17  20
ENDBRANCH  14  15
ENDBRANCH   6  14
TORSDOF 4
ENDMDL
MODEL 9
REMARK VINA RESULT:      -6.4      2.433      4.393
REMARK  Name = 
REMARK  5 active torsions:
REMARK  status: ('A' for Active; 'I' for Inactive)
REMARK    1  A    between atoms: C_1  and  C_2
REMARK    2  A    between atoms: C_5  and  N_6
REMARK    3  A    between atoms: C_12  and  C_13
REMARK    4  A    between atoms: C_13  and  N_14
REMARK    5  A    between atoms: C_16  and  C_17
REMARK                            x       y       z     vdW  Elec       q    Type
REMARK                         _______ _______ _______ _____ _____    ______ ____
ROOT
ATOM      1  C   UNL     1       1.559   2.622  21.164  0.00  0.00    +0.000 C 
ATOM      2  C   UNL     1       2.651   3.164  20.301  0.00  0.00    +0.000 A 
ATOM      3  C   UNL     1       3.956   2.724  20.380  0.00  0.00    +0.000 A 
ATOM      4  N   UNL     1       4.967   3.207  19.618  0.00  0.00    +0.000 NA
ATOM      5  C   UNL     1       4.731   4.187  18.711  0.00  0.00    +0.000 A 
ATOM      6  C   UNL     1       3.438   4.722  18.593  0.00  0.00    +0.000 A 
ATOM      7  C   UNL     1       2.403   4.179  19.385  0.00  0.00    +0.000 A 
ENDROOT
BRANCH   5   8
ATOM      8  N   UNL     1       5.819   4.596  17.981  0.00  0.00    +0.000 N 
ATOM      9  C   UNL     1       6.940   5.404  18.459  0.00  0.00    +0.000 C 
ATOM     10  C   UNL     1       7.257   6.544  17.487  0.00  0.00    +0.000 C 
ATOM     11  O   UNL     1       7.477   6.056  16.155  0.00  0.00    +0.000 OA
ATOM     12  C   UNL     1       6.302   5.374  15.681  0.00  0.00    +0.000 C 
ATOM     13  C   UNL     1       5.936   4.175  16.574  0.00  0.00    +0.000 C 
ENDBRANCH   5   8
BRANCH   6  14
ATOM     14  C   UNL     1       3.059   5.895  17.725  0.00  0.00    +0.000 C 
BRANCH  14  15
ATOM     15  N   UNL     1       2.457   7.002  18.449  0.00  0.00    +0.000 N 
ATOM     16  C   UNL     1       2.008   8.199  17.977  0.00  0.00    +0.000 A 
ATOM     17  C   UNL     1       1.604   8.873  19.109  0.00  0.00    +0.000 A 
ATOM     18  N   UNL     1       1.824   8.082  20.207  0.00  0.00    +0.000 NA
ATOM     19  N   UNL     1       2.381   6.951  19.795  0.00  0.00    +0.000 NA
BRANCH  17  20
ATOM     20  C   UNL     1       1.056  10.203  19.200  0.00  0.00    +0.000 C 
ATOM     21  O   UNL     1       1.498  11.173  18.589  0.00  0.00    +0.000 OA
ENDBRANCH  17  20
ENDBRANCH  14  15
ENDBRANCH   6  14
TORSDOF 4
ENDMDL
