MODEL 1
REMARK VINA RESULT:      -7.9      0.000      0.000
REMARK  Name = 
REMARK  3 active torsions:
REMARK  status: ('A' for Active; 'I' for Inactive)
REMARK    1  A    between atoms: C_5  and  C_6
REMARK    2  A    between atoms: N_13  and  C_14
REMARK    3  A    between atoms: C_14  and  N_15
REMARK                            x       y       z     vdW  Elec       q    Type
REMARK                         _______ _______ _______ _____ _____    ______ ____
ROOT
ATOM      1  O   UNL     1       3.944   2.449  19.034  0.00  0.00    +0.000 OA
ATOM      2  C   UNL     1       3.780   3.526  18.467  0.00  0.00    +0.000 C 
ATOM      3  C   UNL     1       2.565   3.794  17.632  0.00  0.00    +0.000 C 
ATOM      4  C   UNL     1       1.866   4.974  18.239  0.00  0.00    +0.000 C 
ATOM      5  C   UNL     1       2.848   6.098  18.494  0.00  0.00    +0.000 C 
ATOM      6  N   UNL     1       4.142   5.927  18.539  0.00  0.00    +0.000 NA
ATOM      7  N   UNL     1       4.661   4.615  18.498  0.00  0.00    +0.000 N 
ENDROOT
BRANCH   5   8
ATOM      8  C   UNL     1       2.242   7.434  18.795  0.00  0.00    +0.000 A 
ATOM      9  C   UNL     1       2.070   8.383  17.772  0.00  0.00    +0.000 A 
ATOM     10  C   UNL     1       1.459   9.612  18.029  0.00  0.00    +0.000 A 
ATOM     11  C   UNL     1       1.024   9.912  19.316  0.00  0.00    +0.000 A 
ATOM     12  C   UNL     1       1.184   8.977  20.342  0.00  0.00    +0.000 A 
ATOM     13  C   UNL     1       1.777   7.737  20.083  0.00  0.00    +0.000 A 
ENDBRANCH   5   8
BRANCH   7  14
ATOM     14  C   UNL     1       5.949   4.412  19.168  0.00  0.00    +0.000 C 
BRANCH  14  15
ATOM     15  N   UNL     1       7.138   4.760  18.398  0.00  0.00    +0.000 NA
ATOM     16  C   UNL     1       7.797   6.023  18.703  0.00  0.00    +0.000 C 
ATOM     17  C   UNL     1       7.426   7.151  17.735  0.00  0.00    +0.000 C 
ATOM     18  O   UNL     1       7.714   6.769  16.383  0.00  0.00    +0.000 OA
ATOM     19  C   UNL     1       6.945   5.618  16.014  0.00  0.00    +0.000 C 
ATOM     20  C   UNL     1       7.158   4.434  16.974  0.00  0.00    +0.000 C 
ENDBRANCH  14  15
ENDBRANCH   7  14
TORSDOF 3
ENDMDL
MODEL 2
REMARK VINA RESULT:      -7.8      0.126      1.087
REMARK  Name = 
REMARK  3 active torsions:
REMARK  status: ('A' for Active; 'I' for Inactive)
REMARK    1  A    between atoms: C_5  and  C_6
REMARK    2  A    between atoms: N_13  and  C_14
REMARK    3  A    between atoms: C_14  and  N_15
REMARK                            x       y       z     vdW  Elec       q    Type
REMARK                         _______ _______ _______ _____ _____    ______ ____
ROOT
ATOM      1  O   UNL     1       4.044   2.546  19.001  0.00  0.00    +0.000 OA
ATOM      2  C   UNL     1       3.854   3.627  18.450  0.00  0.00    +0.000 C 
ATOM      3  C   UNL     1       2.660   3.863  17.577  0.00  0.00    +0.000 C 
ATOM      4  C   UNL     1       1.890   5.000  18.182  0.00  0.00    +0.000 C 
ATOM      5  C   UNL     1       2.814   6.158  18.496  0.00  0.00    +0.000 C 
ATOM      6  N   UNL     1       4.112   6.039  18.585  0.00  0.00    +0.000 NA
ATOM      7  N   UNL     1       4.687   4.751  18.536  0.00  0.00    +0.000 N 
ENDROOT
BRANCH   5   8
ATOM      8  C   UNL     1       2.141   7.460  18.802  0.00  0.00    +0.000 A 
ATOM      9  C   UNL     1       1.734   7.757  20.115  0.00  0.00    +0.000 A 
ATOM     10  C   UNL     1       1.153   8.987  20.425  0.00  0.00    +0.000 A 
ATOM     11  C   UNL     1       0.959   9.932  19.422  0.00  0.00    +0.000 A 
ATOM     12  C   UNL     1       1.362   9.653  18.114  0.00  0.00    +0.000 A 
ATOM     13  C   UNL     1       1.964   8.429  17.805  0.00  0.00    +0.000 A 
ENDBRANCH   5   8
BRANCH   7  14
ATOM     14  C   UNL     1       5.957   4.587  19.249  0.00  0.00    +0.000 C 
BRANCH  14  15
ATOM     15  N   UNL     1       7.166   4.891  18.491  0.00  0.00    +0.000 NA
ATOM     16  C   UNL     1       7.795   6.186  18.710  0.00  0.00    +0.000 C 
ATOM     17  C   UNL     1       7.439   7.223  17.639  0.00  0.00    +0.000 C 
ATOM     18  O   UNL     1       7.778   6.735  16.334  0.00  0.00    +0.000 OA
ATOM     19  C   UNL     1       7.039   5.543  16.038  0.00  0.00    +0.000 C 
ATOM     20  C   UNL     1       7.238   4.448  17.100  0.00  0.00    +0.000 C 
ENDBRANCH  14  15
ENDBRANCH   7  14
TORSDOF 3
ENDMDL
MODEL 3
REMARK VINA RESULT:      -7.7      3.049      6.472
REMARK  Name = 
REMARK  3 active torsions:
REMARK  status: ('A' for Active; 'I' for Inactive)
REMARK    1  A    between atoms: C_5  and  C_6
REMARK    2  A    between atoms: N_13  and  C_14
REMARK    3  A    between atoms: C_14  and  N_15
REMARK                            x       y       z     vdW  Elec       q    Type
REMARK                         _______ _______ _______ _____ _____    ______ ____
ROOT
ATOM      1  O   UNL     1       4.889   5.469  19.680  0.00  0.00    +0.000 OA
ATOM      2  C   UNL     1       4.558   5.234  18.521  0.00  0.00    +0.000 C 
ATOM      3  C   UNL     1       4.296   6.338  17.542  0.00  0.00    +0.000 C 
ATOM      4  C   UNL     1       5.258   6.156  16.405  0.00  0.00    +0.000 C 
ATOM      5  C   UNL     1       5.239   4.721  15.921  0.00  0.00    +0.000 C 
ATOM      6  N   UNL     1       4.759   3.731  16.623  0.00  0.00    +0.000 NA
ATOM      7  N   UNL     1       4.369   3.964  17.960  0.00  0.00    +0.000 N 
ENDROOT
BRANCH   5   8
ATOM      8  C   UNL     1       5.904   4.474  14.602  0.00  0.00    +0.000 A 
ATOM      9  C   UNL     1       5.304   3.628  13.652  0.00  0.00    +0.000 A 
ATOM     10  C   UNL     1       5.886   3.429  12.399  0.00  0.00    +0.000 A 
ATOM     11  C   UNL     1       7.085   4.063  12.085  0.00  0.00    +0.000 A 
ATOM     12  C   UNL     1       7.690   4.909  13.018  0.00  0.00    +0.000 A 
ATOM     13  C   UNL     1       7.098   5.127  14.266  0.00  0.00    +0.000 A 
ENDBRANCH   5   8
BRANCH   7  14
ATOM     14  C   UNL     1       4.460   2.815  18.865  0.00  0.00    +0.000 C 
BRANCH  14  15
ATOM     15  N   UNL     1       3.207   2.363  19.460  0.00  0.00    +0.000 NA
ATOM     16  C   UNL     1       2.028   2.317  18.605  0.00  0.00    +0.000 C 
ATOM     17  C   UNL     1       1.111   3.534  18.768  0.00  0.00    +0.000 C 
ATOM     18  O   UNL     1       0.710   3.682  20.137  0.00  0.00    +0.000 OA
ATOM     19  C   UNL     1       1.855   3.893  20.973  0.00  0.00    +0.000 C 
ATOM     20  C   UNL     1       2.904   2.777  20.829  0.00  0.00    +0.000 C 
ENDBRANCH  14  15
ENDBRANCH   7  14
TORSDOF 3
ENDMDL
MODEL 4
REMARK VINA RESULT:      -7.7      2.727      6.649
REMARK  Name = 
REMARK  3 active torsions:
REMARK  status: ('A' for Active; 'I' for Inactive)
REMARK    1  A    between atoms: C_5  and  C_6
REMARK    2  A    between atoms: N_13  and  C_14
REMARK    3  A    between atoms: C_14  and  N_15
REMARK                            x       y       z     vdW  Elec       q    Type
REMARK                         _______ _______ _______ _____ _____    ______ ____
ROOT
ATOM      1  O   UNL     1       5.460   3.347  19.496  0.00  0.00    +0.000 OA
ATOM      2  C   UNL     1       5.353   4.034  18.484  0.00  0.00    +0.000 C 
ATOM      3  C   UNL     1       6.316   5.142  18.185  0.00  0.00    +0.000 C 
ATOM      4  C   UNL     1       6.961   4.822  16.869  0.00  0.00    +0.000 C 
ATOM      5  C   UNL     1       5.911   4.459  15.839  0.00  0.00    +0.000 C 
ATOM      6  N   UNL     1       4.691   4.108  16.148  0.00  0.00    +0.000 NA
ATOM      7  N   UNL     1       4.358   3.909  17.505  0.00  0.00    +0.000 N 
ENDROOT
BRANCH   5   8
ATOM      8  C   UNL     1       6.380   4.428  14.417  0.00  0.00    +0.000 A 
ATOM      9  C   UNL     1       7.433   5.260  13.999  0.00  0.00    +0.000 A 
ATOM     10  C   UNL     1       7.915   5.204  12.690  0.00  0.00    +0.000 A 
ATOM     11  C   UNL     1       7.340   4.324  11.779  0.00  0.00    +0.000 A 
ATOM     12  C   UNL     1       6.295   3.488  12.182  0.00  0.00    +0.000 A 
ATOM     13  C   UNL     1       5.825   3.527  13.498  0.00  0.00    +0.000 A 
ENDBRANCH   5   8
BRANCH   7  14
ATOM     14  C   UNL     1       3.281   2.950  17.768  0.00  0.00    +0.000 C 
BRANCH  14  15
ATOM     15  N   UNL     1       1.997   3.517  18.167  0.00  0.00    +0.000 NA
ATOM     16  C   UNL     1       1.962   4.929  18.524  0.00  0.00    +0.000 C 
ATOM     17  C   UNL     1       1.997   5.174  20.036  0.00  0.00    +0.000 C 
ATOM     18  O   UNL     1       0.919   4.484  20.683  0.00  0.00    +0.000 OA
ATOM     19  C   UNL     1       1.033   3.071  20.475  0.00  0.00    +0.000 C 
ATOM     20  C   UNL     1       1.105   2.698  18.984  0.00  0.00    +0.000 C 
ENDBRANCH  14  15
ENDBRANCH   7  14
TORSDOF 3
ENDMDL
MODEL 5
REMARK VINA RESULT:      -7.7      3.026      6.456
REMARK  Name = 
REMARK  3 active torsions:
REMARK  status: ('A' for Active; 'I' for Inactive)
REMARK    1  A    between atoms: C_5  and  C_6
REMARK    2  A    between atoms: N_13  and  C_14
REMARK    3  A    between atoms: C_14  and  N_15
REMARK                            x       y       z     vdW  Elec       q    Type
REMARK                         _______ _______ _______ _____ _____    ______ ____
ROOT
ATOM      1  O   UNL     1       4.873   5.538  19.670  0.00  0.00    +0.000 OA
ATOM      2  C   UNL     1       4.530   5.293  18.516  0.00  0.00    +0.000 C 
ATOM      3  C   UNL     1       4.227   6.389  17.540  0.00  0.00    +0.000 C 
ATOM      4  C   UNL     1       5.175   6.227  16.388  0.00  0.00    +0.000 C 
ATOM      5  C   UNL     1       5.183   4.791  15.907  0.00  0.00    +0.000 C 
ATOM      6  N   UNL     1       4.737   3.791  16.619  0.00  0.00    +0.000 NA
ATOM      7  N   UNL     1       4.363   4.018  17.961  0.00  0.00    +0.000 N 
ENDROOT
BRANCH   5   8
ATOM      8  C   UNL     1       5.833   4.557  14.578  0.00  0.00    +0.000 A 
ATOM      9  C   UNL     1       7.065   5.163  14.274  0.00  0.00    +0.000 A 
ATOM     10  C   UNL     1       7.707   4.912  13.060  0.00  0.00    +0.000 A 
ATOM     11  C   UNL     1       7.118   4.062  12.129  0.00  0.00    +0.000 A 
ATOM     12  C   UNL     1       5.896   3.449  12.420  0.00  0.00    +0.000 A 
ATOM     13  C   UNL     1       5.261   3.683  13.644  0.00  0.00    +0.000 A 
ENDBRANCH   5   8
BRANCH   7  14
ATOM     14  C   UNL     1       4.495   2.873  18.866  0.00  0.00    +0.000 C 
BRANCH  14  15
ATOM     15  N   UNL     1       3.259   2.377  19.462  0.00  0.00    +0.000 NA
ATOM     16  C   UNL     1       2.086   2.275  18.603  0.00  0.00    +0.000 C 
ATOM     17  C   UNL     1       1.121   3.456  18.753  0.00  0.00    +0.000 C 
ATOM     18  O   UNL     1       0.709   3.600  20.119  0.00  0.00    +0.000 OA
ATOM     19  C   UNL     1       1.842   3.864  20.957  0.00  0.00    +0.000 C 
ATOM     20  C   UNL     1       2.936   2.790  20.826  0.00  0.00    +0.000 C 
ENDBRANCH  14  15
ENDBRANCH   7  14
TORSDOF 3
ENDMDL
MODEL 6
REMARK VINA RESULT:      -7.7      2.749      6.345
REMARK  Name = 
REMARK  3 active torsions:
REMARK  status: ('A' for Active; 'I' for Inactive)
REMARK    1  A    between atoms: C_5  and  C_6
REMARK    2  A    between atoms: N_13  and  C_14
REMARK    3  A    between atoms: C_14  and  N_15
REMARK                            x       y       z     vdW  Elec       q    Type
REMARK                         _______ _______ _______ _____ _____    ______ ____
ROOT
ATOM      1  O   UNL     1       7.130   5.366  19.920  0.00  0.00    +0.000 OA
ATOM      2  C   UNL     1       6.531   5.543  18.862  0.00  0.00    +0.000 C 
ATOM      3  C   UNL     1       6.816   6.728  17.990  0.00  0.00    +0.000 C 
ATOM      4  C   UNL     1       7.266   6.198  16.661  0.00  0.00    +0.000 C 
ATOM      5  C   UNL     1       6.313   5.130  16.166  0.00  0.00    +0.000 C 
ATOM      6  N   UNL     1       5.467   4.506  16.941  0.00  0.00    +0.000 NA
ATOM      7  N   UNL     1       5.530   4.717  18.335  0.00  0.00    +0.000 N 
ENDROOT
BRANCH   5   8
ATOM      8  C   UNL     1       6.460   4.746  14.726  0.00  0.00    +0.000 A 
ATOM      9  C   UNL     1       7.508   5.278  13.953  0.00  0.00    +0.000 A 
ATOM     10  C   UNL     1       7.688   4.890  12.625  0.00  0.00    +0.000 A 
ATOM     11  C   UNL     1       6.813   3.974  12.048  0.00  0.00    +0.000 A 
ATOM     12  C   UNL     1       5.770   3.434  12.805  0.00  0.00    +0.000 A 
ATOM     13  C   UNL     1       5.601   3.806  14.142  0.00  0.00    +0.000 A 
ENDBRANCH   5   8
BRANCH   7  14
ATOM     14  C   UNL     1       5.071   3.606  19.174  0.00  0.00    +0.000 C 
BRANCH  14  15
ATOM     15  N   UNL     1       3.631   3.511  19.387  0.00  0.00    +0.000 NA
ATOM     16  C   UNL     1       2.958   2.301  18.934  0.00  0.00    +0.000 C 
ATOM     17  C   UNL     1       2.262   2.464  17.578  0.00  0.00    +0.000 C 
ATOM     18  O   UNL     1       1.328   3.551  17.619  0.00  0.00    +0.000 OA
ATOM     19  C   UNL     1       2.005   4.782  17.904  0.00  0.00    +0.000 C 
ATOM     20  C   UNL     1       2.825   4.716  19.204  0.00  0.00    +0.000 C 
ENDBRANCH  14  15
ENDBRANCH   7  14
TORSDOF 3
ENDMDL
MODEL 7
REMARK VINA RESULT:      -7.7      2.919      6.580
REMARK  Name = 
REMARK  3 active torsions:
REMARK  status: ('A' for Active; 'I' for Inactive)
REMARK    1  A    between atoms: C_5  and  C_6
REMARK    2  A    between atoms: N_13  and  C_14
REMARK    3  A    between atoms: C_14  and  N_15
REMARK                            x       y       z     vdW  Elec       q    Type
REMARK                         _______ _______ _______ _____ _____    ______ ____
ROOT
ATOM      1  O   UNL     1       5.251   3.216  19.663  0.00  0.00    +0.000 OA
ATOM      2  C   UNL     1       5.107   3.860  18.627  0.00  0.00    +0.000 C 
ATOM      3  C   UNL     1       5.921   5.087  18.348  0.00  0.00    +0.000 C 
ATOM      4  C   UNL     1       6.681   4.833  17.079  0.00  0.00    +0.000 C 
ATOM      5  C   UNL     1       5.754   4.302  16.005  0.00  0.00    +0.000 C 
ATOM      6  N   UNL     1       4.580   3.788  16.256  0.00  0.00    +0.000 NA
ATOM      7  N   UNL     1       4.200   3.572  17.598  0.00  0.00    +0.000 N 
ENDROOT
BRANCH   5   8
ATOM      8  C   UNL     1       6.306   4.308  14.613  0.00  0.00    +0.000 A 
ATOM      9  C   UNL     1       5.727   3.502  13.616  0.00  0.00    +0.000 A 
ATOM     10  C   UNL     1       6.198   3.536  12.303  0.00  0.00    +0.000 A 
ATOM     11  C   UNL     1       7.264   4.366  11.972  0.00  0.00    +0.000 A 
ATOM     12  C   UNL     1       7.847   5.175  12.951  0.00  0.00    +0.000 A 
ATOM     13  C   UNL     1       7.363   5.159  14.263  0.00  0.00    +0.000 A 
ENDBRANCH   5   8
BRANCH   7  14
ATOM     14  C   UNL     1       3.255   2.476  17.829  0.00  0.00    +0.000 C 
BRANCH  14  15
ATOM     15  N   UNL     1       1.979   2.842  18.435  0.00  0.00    +0.000 NA
ATOM     16  C   UNL     1       1.596   4.248  18.411  0.00  0.00    +0.000 C 
ATOM     17  C   UNL     1       1.884   4.978  19.728  0.00  0.00    +0.000 C 
ATOM     18  O   UNL     1       1.233   4.317  20.821  0.00  0.00    +0.000 OA
ATOM     19  C   UNL     1       1.722   2.977  20.959  0.00  0.00    +0.000 C 
ATOM     20  C   UNL     1       1.576   2.161  19.663  0.00  0.00    +0.000 C 
ENDBRANCH  14  15
ENDBRANCH   7  14
TORSDOF 3
ENDMDL
MODEL 8
REMARK VINA RESULT:      -7.6      2.693      6.363
REMARK  Name = 
REMARK  3 active torsions:
REMARK  status: ('A' for Active; 'I' for Inactive)
REMARK    1  A    between atoms: C_5  and  C_6
REMARK    2  A    between atoms: N_13  and  C_14
REMARK    3  A    between atoms: C_14  and  N_15
REMARK                            x       y       z     vdW  Elec       q    Type
REMARK                         _______ _______ _______ _____ _____    ______ ____
ROOT
ATOM      1  O   UNL     1       7.149   5.429  19.924  0.00  0.00    +0.000 OA
ATOM      2  C   UNL     1       6.563   5.587  18.856  0.00  0.00    +0.000 C 
ATOM      3  C   UNL     1       6.864   6.752  17.963  0.00  0.00    +0.000 C 
ATOM      4  C   UNL     1       7.328   6.192  16.650  0.00  0.00    +0.000 C 
ATOM      5  C   UNL     1       6.375   5.119  16.167  0.00  0.00    +0.000 C 
ATOM      6  N   UNL     1       5.516   4.515  16.944  0.00  0.00    +0.000 NA
ATOM      7  N   UNL     1       5.564   4.755  18.334  0.00  0.00    +0.000 N 
ENDROOT
BRANCH   5   8
ATOM      8  C   UNL     1       6.537   4.704  14.737  0.00  0.00    +0.000 A 
ATOM      9  C   UNL     1       5.636   3.795  14.155  0.00  0.00    +0.000 A 
ATOM     10  C   UNL     1       5.744   3.440  12.809  0.00  0.00    +0.000 A 
ATOM     11  C   UNL     1       6.765   3.979  12.032  0.00  0.00    +0.000 A 
ATOM     12  C   UNL     1       7.665   4.886  12.596  0.00  0.00    +0.000 A 
ATOM     13  C   UNL     1       7.546   5.260  13.938  0.00  0.00    +0.000 A 
ENDBRANCH   5   8
BRANCH   7  14
ATOM     14  C   UNL     1       5.090   3.664  19.191  0.00  0.00    +0.000 C 
BRANCH  14  15
ATOM     15  N   UNL     1       3.644   3.543  19.339  0.00  0.00    +0.000 NA
ATOM     16  C   UNL     1       2.998   2.376  18.753  0.00  0.00    +0.000 C 
ATOM     17  C   UNL     1       2.352   2.659  17.392  0.00  0.00    +0.000 C 
ATOM     18  O   UNL     1       1.409   3.733  17.496  0.00  0.00    +0.000 OA
ATOM     19  C   UNL     1       2.064   4.936  17.917  0.00  0.00    +0.000 C 
ATOM     20  C   UNL     1       2.836   4.756  19.236  0.00  0.00    +0.000 C 
ENDBRANCH  14  15
ENDBRANCH   7  14
TORSDOF 3
ENDMDL
MODEL 9
REMARK VINA RESULT:      -7.6      2.702      6.550
REMARK  Name = 
REMARK  3 active torsions:
REMARK  status: ('A' for Active; 'I' for Inactive)
REMARK    1  A    between atoms: C_5  and  C_6
REMARK    2  A    between atoms: N_13  and  C_14
REMARK    3  A    between atoms: C_14  and  N_15
REMARK                            x       y       z     vdW  Elec       q    Type
REMARK                         _______ _______ _______ _____ _____    ______ ____
ROOT
ATOM      1  O   UNL     1       6.606   5.092  19.797  0.00  0.00    +0.000 OA
ATOM      2  C   UNL     1       6.125   5.348  18.697  0.00  0.00    +0.000 C 
ATOM      3  C   UNL     1       6.567   6.542  17.907  0.00  0.00    +0.000 C 
ATOM      4  C   UNL     1       7.109   6.033  16.604  0.00  0.00    +0.000 C 
ATOM      5  C   UNL     1       6.143   5.050  15.977  0.00  0.00    +0.000 C 
ATOM      6  N   UNL     1       5.188   4.456  16.640  0.00  0.00    +0.000 NA
ATOM      7  N   UNL     1       5.129   4.611  18.042  0.00  0.00    +0.000 N 
ENDROOT
BRANCH   5   8
ATOM      8  C   UNL     1       6.404   4.711  14.541  0.00  0.00    +0.000 A 
ATOM      9  C   UNL     1       7.490   5.290  13.861  0.00  0.00    +0.000 A 
ATOM     10  C   UNL     1       7.776   4.944  12.540  0.00  0.00    +0.000 A 
ATOM     11  C   UNL     1       6.971   4.023  11.877  0.00  0.00    +0.000 A 
ATOM     12  C   UNL     1       5.891   3.436  12.541  0.00  0.00    +0.000 A 
ATOM     13  C   UNL     1       5.615   3.766  13.872  0.00  0.00    +0.000 A 
ENDBRANCH   5   8
BRANCH   7  14
ATOM     14  C   UNL     1       4.522   3.502  18.785  0.00  0.00    +0.000 C 
BRANCH  14  15
ATOM     15  N   UNL     1       3.064   3.484  18.838  0.00  0.00    +0.000 NA
ATOM     16  C   UNL     1       2.374   4.763  18.943  0.00  0.00    +0.000 C 
ATOM     17  C   UNL     1       1.943   5.104  20.374  0.00  0.00    +0.000 C 
ATOM     18  O   UNL     1       1.118   4.062  20.913  0.00  0.00    +0.000 OA
ATOM     19  C   UNL     1       1.843   2.827  20.967  0.00  0.00    +0.000 C 
ATOM     20  C   UNL     1       2.414   2.419  19.598  0.00  0.00    +0.000 C 
ENDBRANCH  14  15
ENDBRANCH   7  14
TORSDOF 3
ENDMDL
