MODEL 1
REMARK VINA RESULT:      -7.2      0.000      0.000
REMARK  Name = 
REMARK  7 active torsions:
REMARK  status: ('A' for Active; 'I' for Inactive)
REMARK    1  A    between atoms: C_1  and  C_2
REMARK    2  A    between atoms: C_4  and  C_5
REMARK    3  A    between atoms: C_5  and  N_6
REMARK    4  A    between atoms: C_10  and  C_11
REMARK    5  A    between atoms: C_12  and  C_13
REMARK    6  A    between atoms: N_15  and  C_16
REMARK    7  A    between atoms: C_20  and  C_21
REMARK                            x       y       z     vdW  Elec       q    Type
REMARK                         _______ _______ _______ _____ _____    ______ ____
ROOT
ATOM      1  N   UNL     1       3.813   3.677  18.170  0.00  0.00    +0.000 NA
ATOM      2  C   UNL     1       3.706   2.247  18.443  0.00  0.00    +0.000 C 
ATOM      3  C   UNL     1       2.356   1.800  17.919  0.00  0.00    +0.000 C 
ATOM      4  C   UNL     1       1.499   3.051  17.899  0.00  0.00    +0.000 C 
ATOM      5  C   UNL     1       2.477   4.229  17.913  0.00  0.00    +0.000 C 
ENDROOT
BRANCH   5   6
ATOM      6  C   UNL     1       2.161   5.239  18.987  0.00  0.00    +0.000 A 
ATOM      7  C   UNL     1       1.710   4.992  20.325  0.00  0.00    +0.000 A 
ATOM      8  C   UNL     1       1.442   3.698  21.009  0.00  0.00    +0.000 C 
ATOM      9  N   UNL     1       1.535   6.122  21.027  0.00  0.00    +0.000 NA
ATOM     10  N   UNL     1       1.867   7.098  20.164  0.00  0.00    +0.000 N 
ATOM     11  C   UNL     1       1.795   8.476  20.590  0.00  0.00    +0.000 C 
ATOM     12  C   UNL     1       2.264   6.615  18.956  0.00  0.00    +0.000 A 
ATOM     13 CL   UNL     1       2.790   7.702  17.751  0.00  0.00    +0.000 Cl
ENDBRANCH   5   6
BRANCH   1  14
ATOM     14  C   UNL     1       4.840   4.041  17.183  0.00  0.00    +0.000 C 
BRANCH  14  18
ATOM     15  C   UNL     1       7.858   8.003  17.639  0.00  0.00    +0.000 C 
ATOM     16  C   UNL     1       7.217   6.693  17.863  0.00  0.00    +0.000 A 
ATOM     17  N   UNL     1       6.203   6.222  17.050  0.00  0.00    +0.000 NA
ATOM     18  C   UNL     1       5.896   5.044  17.564  0.00  0.00    +0.000 A 
ATOM     19  O   UNL     1       6.637   4.713  18.673  0.00  0.00    +0.000 OA
ATOM     20  C   UNL     1       7.474   5.774  18.857  0.00  0.00    +0.000 A 
ATOM     21  C   UNL     1       8.399   5.728  20.005  0.00  0.00    +0.000 C 
ENDBRANCH  14  18
ENDBRANCH   1  14
TORSDOF 3
ENDMDL
MODEL 2
REMARK VINA RESULT:      -7.2      1.129      1.545
REMARK  Name = 
REMARK  7 active torsions:
REMARK  status: ('A' for Active; 'I' for Inactive)
REMARK    1  A    between atoms: C_1  and  C_2
REMARK    2  A    between atoms: C_4  and  C_5
REMARK    3  A    between atoms: C_5  and  N_6
REMARK    4  A    between atoms: C_10  and  C_11
REMARK    5  A    between atoms: C_12  and  C_13
REMARK    6  A    between atoms: N_15  and  C_16
REMARK    7  A    between atoms: C_20  and  C_21
REMARK                            x       y       z     vdW  Elec       q    Type
REMARK                         _______ _______ _______ _____ _____    ______ ____
ROOT
ATOM      1  N   UNL     1       3.818   3.470  19.177  0.00  0.00    +0.000 NA
ATOM      2  C   UNL     1       3.208   2.156  18.998  0.00  0.00    +0.000 C 
ATOM      3  C   UNL     1       2.423   2.210  17.703  0.00  0.00    +0.000 C 
ATOM      4  C   UNL     1       2.117   3.679  17.480  0.00  0.00    +0.000 C 
ATOM      5  C   UNL     1       3.129   4.451  18.329  0.00  0.00    +0.000 C 
ENDROOT
BRANCH   5   6
ATOM      6  C   UNL     1       2.481   5.482  19.219  0.00  0.00    +0.000 A 
ATOM      7  C   UNL     1       1.795   5.269  20.460  0.00  0.00    +0.000 A 
ATOM      8  C   UNL     1       1.544   4.002  21.197  0.00  0.00    +0.000 C 
ATOM      9  N   UNL     1       1.346   6.412  21.002  0.00  0.00    +0.000 NA
ATOM     10  N   UNL     1       1.734   7.362  20.133  0.00  0.00    +0.000 N 
ATOM     11  C   UNL     1       1.413   8.744  20.404  0.00  0.00    +0.000 C 
ATOM     12  C   UNL     1       2.426   6.854  19.078  0.00  0.00    +0.000 A 
ATOM     13 CL   UNL     1       3.059   7.915  17.902  0.00  0.00    +0.000 Cl
ENDBRANCH   5   6
BRANCH   1  14
ATOM     14  C   UNL     1       5.286   3.487  19.084  0.00  0.00    +0.000 C 
BRANCH  14  18
ATOM     15  C   UNL     1       7.623   7.538  17.312  0.00  0.00    +0.000 C 
ATOM     16  C   UNL     1       6.971   6.217  17.395  0.00  0.00    +0.000 A 
ATOM     17  N   UNL     1       6.428   5.737  18.573  0.00  0.00    +0.000 NA
ATOM     18  C   UNL     1       5.952   4.548  18.249  0.00  0.00    +0.000 A 
ATOM     19  O   UNL     1       6.156   4.208  16.933  0.00  0.00    +0.000 OA
ATOM     20  C   UNL     1       6.811   5.278  16.399  0.00  0.00    +0.000 A 
ATOM     21  C   UNL     1       7.197   5.207  14.977  0.00  0.00    +0.000 C 
ENDBRANCH  14  18
ENDBRANCH   1  14
TORSDOF 3
ENDMDL
MODEL 3
REMARK VINA RESULT:      -7.0      1.163      1.563
REMARK  Name = 
REMARK  7 active torsions:
REMARK  status: ('A' for Active; 'I' for Inactive)
REMARK    1  A    between atoms: C_1  and  C_2
REMARK    2  A    between atoms: C_4  and  C_5
REMARK    3  A    between atoms: C_5  and  N_6
REMARK    4  A    between atoms: C_10  and  C_11
REMARK    5  A    between atoms: C_12  and  C_13
REMARK    6  A    between atoms: N_15  and  C_16
REMARK    7  A    between atoms: C_20  and  C_21
REMARK                            x       y       z     vdW  Elec       q    Type
REMARK                         _______ _______ _______ _____ _____    ______ ____
ROOT
ATOM      1  N   UNL     1       3.872   3.578  19.199  0.00  0.00    +0.000 NA
ATOM      2  C   UNL     1       3.285   2.256  19.004  0.00  0.00    +0.000 C 
ATOM      3  C   UNL     1       2.517   2.304  17.699  0.00  0.00    +0.000 C 
ATOM      4  C   UNL     1       2.192   3.769  17.478  0.00  0.00    +0.000 C 
ATOM      5  C   UNL     1       3.179   4.553  18.346  0.00  0.00    +0.000 C 
ENDROOT
BRANCH   5   6
ATOM      6  C   UNL     1       2.503   5.568  19.231  0.00  0.00    +0.000 A 
ATOM      7  C   UNL     1       1.816   5.341  20.470  0.00  0.00    +0.000 A 
ATOM      8  C   UNL     1       1.594   4.069  21.208  0.00  0.00    +0.000 C 
ATOM      9  N   UNL     1       1.338   6.473  21.009  0.00  0.00    +0.000 NA
ATOM     10  N   UNL     1       1.706   7.431  20.140  0.00  0.00    +0.000 N 
ATOM     11  C   UNL     1       1.350   8.805  20.407  0.00  0.00    +0.000 C 
ATOM     12  C   UNL     1       2.415   6.939  19.088  0.00  0.00    +0.000 A 
ATOM     13 CL   UNL     1       3.027   8.014  17.914  0.00  0.00    +0.000 Cl
ENDBRANCH   5   6
BRANCH   1  14
ATOM     14  C   UNL     1       5.340   3.618  19.127  0.00  0.00    +0.000 C 
BRANCH  14  18
ATOM     15  C   UNL     1       7.109   5.330  14.772  0.00  0.00    +0.000 C 
ATOM     16  C   UNL     1       6.765   5.221  16.204  0.00  0.00    +0.000 A 
ATOM     17  N   UNL     1       6.130   4.110  16.726  0.00  0.00    +0.000 NA
ATOM     18  C   UNL     1       5.995   4.388  18.010  0.00  0.00    +0.000 A 
ATOM     19  O   UNL     1       6.492   5.618  18.367  0.00  0.00    +0.000 OA
ATOM     20  C   UNL     1       6.976   6.143  17.205  0.00  0.00    +0.000 A 
ATOM     21  C   UNL     1       7.567   7.494  17.257  0.00  0.00    +0.000 C 
ENDBRANCH  14  18
ENDBRANCH   1  14
TORSDOF 3
ENDMDL
MODEL 4
REMARK VINA RESULT:      -7.0      2.222      2.965
REMARK  Name = 
REMARK  7 active torsions:
REMARK  status: ('A' for Active; 'I' for Inactive)
REMARK    1  A    between atoms: C_1  and  C_2
REMARK    2  A    between atoms: C_4  and  C_5
REMARK    3  A    between atoms: C_5  and  N_6
REMARK    4  A    between atoms: C_10  and  C_11
REMARK    5  A    between atoms: C_12  and  C_13
REMARK    6  A    between atoms: N_15  and  C_16
REMARK    7  A    between atoms: C_20  and  C_21
REMARK                            x       y       z     vdW  Elec       q    Type
REMARK                         _______ _______ _______ _____ _____    ______ ____
ROOT
ATOM      1  N   UNL     1       4.708   4.951  18.197  0.00  0.00    +0.000 NA
ATOM      2  C   UNL     1       4.865   3.515  18.404  0.00  0.00    +0.000 C 
ATOM      3  C   UNL     1       3.731   2.837  17.661  0.00  0.00    +0.000 C 
ATOM      4  C   UNL     1       2.643   3.887  17.546  0.00  0.00    +0.000 C 
ATOM      5  C   UNL     1       3.338   5.235  17.750  0.00  0.00    +0.000 C 
ENDROOT
BRANCH   5   6
ATOM      6  C   UNL     1       2.662   6.090  18.792  0.00  0.00    +0.000 A 
ATOM      7  C   UNL     1       2.237   5.707  20.107  0.00  0.00    +0.000 A 
ATOM      8  C   UNL     1       2.350   4.392  20.791  0.00  0.00    +0.000 C 
ATOM      9  N   UNL     1       1.678   6.722  20.783  0.00  0.00    +0.000 NA
ATOM     10  N   UNL     1       1.736   7.757  19.928  0.00  0.00    +0.000 N 
ATOM     11  C   UNL     1       1.211   9.041  20.331  0.00  0.00    +0.000 C 
ATOM     12  C   UNL     1       2.331   7.429  18.749  0.00  0.00    +0.000 A 
ATOM     13 CL   UNL     1       2.556   8.632  17.561  0.00  0.00    +0.000 Cl
ENDBRANCH   5   6
BRANCH   1  14
ATOM     14  C   UNL     1       5.768   5.578  17.394  0.00  0.00    +0.000 C 
BRANCH  14  18
ATOM     15  C   UNL     1       5.572   3.434  12.880  0.00  0.00    +0.000 C 
ATOM     16  C   UNL     1       6.018   4.237  14.036  0.00  0.00    +0.000 A 
ATOM     17  N   UNL     1       5.318   4.263  15.227  0.00  0.00    +0.000 NA
ATOM     18  C   UNL     1       6.016   5.080  15.995  0.00  0.00    +0.000 A 
ATOM     19  O   UNL     1       7.129   5.603  15.381  0.00  0.00    +0.000 OA
ATOM     20  C   UNL     1       7.117   5.062  14.129  0.00  0.00    +0.000 A 
ATOM     21  C   UNL     1       8.194   5.455  13.202  0.00  0.00    +0.000 C 
ENDBRANCH  14  18
ENDBRANCH   1  14
TORSDOF 3
ENDMDL
MODEL 5
REMARK VINA RESULT:      -6.9      3.285      5.055
REMARK  Name = 
REMARK  7 active torsions:
REMARK  status: ('A' for Active; 'I' for Inactive)
REMARK    1  A    between atoms: C_1  and  C_2
REMARK    2  A    between atoms: C_4  and  C_5
REMARK    3  A    between atoms: C_5  and  N_6
REMARK    4  A    between atoms: C_10  and  C_11
REMARK    5  A    between atoms: C_12  and  C_13
REMARK    6  A    between atoms: N_15  and  C_16
REMARK    7  A    between atoms: C_20  and  C_21
REMARK                            x       y       z     vdW  Elec       q    Type
REMARK                         _______ _______ _______ _____ _____    ______ ____
ROOT
ATOM      1  N   UNL     1       6.526   5.202  17.114  0.00  0.00    +0.000 NA
ATOM      2  C   UNL     1       7.253   6.429  17.422  0.00  0.00    +0.000 C 
ATOM      3  C   UNL     1       7.594   6.379  18.897  0.00  0.00    +0.000 C 
ATOM      4  C   UNL     1       6.574   5.441  19.514  0.00  0.00    +0.000 C 
ATOM      5  C   UNL     1       6.020   4.606  18.357  0.00  0.00    +0.000 C 
ENDROOT
BRANCH   5   6
ATOM      6  C   UNL     1       4.513   4.600  18.307  0.00  0.00    +0.000 A 
ATOM      7  C   UNL     1       3.638   5.685  17.972  0.00  0.00    +0.000 A 
ATOM      8  C   UNL     1       3.969   7.082  17.584  0.00  0.00    +0.000 C 
ATOM      9  N   UNL     1       2.343   5.334  18.014  0.00  0.00    +0.000 NA
ATOM     10  N   UNL     1       2.367   4.037  18.369  0.00  0.00    +0.000 N 
ATOM     11  C   UNL     1       1.122   3.319  18.514  0.00  0.00    +0.000 C 
ATOM     12  C   UNL     1       3.631   3.562  18.530  0.00  0.00    +0.000 A 
ATOM     13 CL   UNL     1       3.865   1.917  18.915  0.00  0.00    +0.000 Cl
ENDBRANCH   5   6
BRANCH   1  14
ATOM     14  C   UNL     1       7.233   4.274  16.219  0.00  0.00    +0.000 C 
BRANCH  14  18
ATOM     15  C   UNL     1       7.620   5.547  11.397  0.00  0.00    +0.000 C 
ATOM     16  C   UNL     1       7.187   4.891  12.647  0.00  0.00    +0.000 A 
ATOM     17  N   UNL     1       7.709   5.237  13.879  0.00  0.00    +0.000 NA
ATOM     18  C   UNL     1       7.086   4.441  14.730  0.00  0.00    +0.000 A 
ATOM     19  O   UNL     1       6.193   3.583  14.135  0.00  0.00    +0.000 OA
ATOM     20  C   UNL     1       6.269   3.875  12.805  0.00  0.00    +0.000 A 
ATOM     21  C   UNL     1       5.427   3.092  11.881  0.00  0.00    +0.000 C 
ENDBRANCH  14  18
ENDBRANCH   1  14
TORSDOF 3
ENDMDL
MODEL 6
REMARK VINA RESULT:      -6.9      1.692      2.454
REMARK  Name = 
REMARK  7 active torsions:
REMARK  status: ('A' for Active; 'I' for Inactive)
REMARK    1  A    between atoms: C_1  and  C_2
REMARK    2  A    between atoms: C_4  and  C_5
REMARK    3  A    between atoms: C_5  and  N_6
REMARK    4  A    between atoms: C_10  and  C_11
REMARK    5  A    between atoms: C_12  and  C_13
REMARK    6  A    between atoms: N_15  and  C_16
REMARK    7  A    between atoms: C_20  and  C_21
REMARK                            x       y       z     vdW  Elec       q    Type
REMARK                         _______ _______ _______ _____ _____    ______ ____
ROOT
ATOM      1  N   UNL     1       3.680   3.696  19.142  0.00  0.00    +0.000 NA
ATOM      2  C   UNL     1       2.919   2.472  19.372  0.00  0.00    +0.000 C 
ATOM      3  C   UNL     1       1.966   2.321  18.204  0.00  0.00    +0.000 C 
ATOM      4  C   UNL     1       1.784   3.722  17.650  0.00  0.00    +0.000 C 
ATOM      5  C   UNL     1       2.981   4.531  18.156  0.00  0.00    +0.000 C 
ENDROOT
BRANCH   5   6
ATOM      6  C   UNL     1       2.577   5.821  18.823  0.00  0.00    +0.000 A 
ATOM      7  C   UNL     1       2.826   7.160  18.375  0.00  0.00    +0.000 A 
ATOM      8  C   UNL     1       3.530   7.634  17.154  0.00  0.00    +0.000 C 
ATOM      9  N   UNL     1       2.315   8.083  19.205  0.00  0.00    +0.000 NA
ATOM     10  N   UNL     1       1.737   7.363  20.182  0.00  0.00    +0.000 N 
ATOM     11  C   UNL     1       1.075   8.045  21.269  0.00  0.00    +0.000 C 
ATOM     12  C   UNL     1       1.851   6.022  19.980  0.00  0.00    +0.000 A 
ATOM     13 CL   UNL     1       1.120   4.944  21.081  0.00  0.00    +0.000 Cl
ENDBRANCH   5   6
BRANCH   1  14
ATOM     14  C   UNL     1       5.113   3.491  18.883  0.00  0.00    +0.000 C 
BRANCH  14  18
ATOM     15  C   UNL     1       7.718   7.468  17.328  0.00  0.00    +0.000 C 
ATOM     16  C   UNL     1       7.007   6.174  17.347  0.00  0.00    +0.000 A 
ATOM     17  N   UNL     1       6.377   5.699  18.482  0.00  0.00    +0.000 NA
ATOM     18  C   UNL     1       5.871   4.537  18.108  0.00  0.00    +0.000 A 
ATOM     19  O   UNL     1       6.137   4.210  16.800  0.00  0.00    +0.000 OA
ATOM     20  C   UNL     1       6.867   5.261  16.326  0.00  0.00    +0.000 A 
ATOM     21  C   UNL     1       7.332   5.197  14.927  0.00  0.00    +0.000 C 
ENDBRANCH  14  18
ENDBRANCH   1  14
TORSDOF 3
ENDMDL
MODEL 7
REMARK VINA RESULT:      -6.9      2.575      5.254
REMARK  Name = 
REMARK  7 active torsions:
REMARK  status: ('A' for Active; 'I' for Inactive)
REMARK    1  A    between atoms: C_1  and  C_2
REMARK    2  A    between atoms: C_4  and  C_5
REMARK    3  A    between atoms: C_5  and  N_6
REMARK    4  A    between atoms: C_10  and  C_11
REMARK    5  A    between atoms: C_12  and  C_13
REMARK    6  A    between atoms: N_15  and  C_16
REMARK    7  A    between atoms: C_20  and  C_21
REMARK                            x       y       z     vdW  Elec       q    Type
REMARK                         _______ _______ _______ _____ _____    ______ ____
ROOT
ATOM      1  N   UNL     1       2.115   4.754  20.048  0.00  0.00    +0.000 NA
ATOM      2  C   UNL     1       0.992   3.835  20.205  0.00  0.00    +0.000 C 
ATOM      3  C   UNL     1       1.542   2.574  20.840  0.00  0.00    +0.000 C 
ATOM      4  C   UNL     1       3.020   2.563  20.497  0.00  0.00    +0.000 C 
ATOM      5  C   UNL     1       3.377   4.008  20.137  0.00  0.00    +0.000 C 
ENDROOT
BRANCH   5   6
ATOM      6  C   UNL     1       4.095   4.122  18.817  0.00  0.00    +0.000 A 
ATOM      7  C   UNL     1       3.630   3.716  17.522  0.00  0.00    +0.000 A 
ATOM      8  C   UNL     1       2.338   3.090  17.135  0.00  0.00    +0.000 C 
ATOM      9  N   UNL     1       4.520   3.974  16.552  0.00  0.00    +0.000 NA
ATOM     10  N   UNL     1       5.554   4.542  17.197  0.00  0.00    +0.000 N 
ATOM     11  C   UNL     1       6.716   4.957  16.447  0.00  0.00    +0.000 C 
ATOM     12  C   UNL     1       5.331   4.667  18.533  0.00  0.00    +0.000 A 
ATOM     13 CL   UNL     1       6.503   5.429  19.511  0.00  0.00    +0.000 Cl
ENDBRANCH   5   6
BRANCH   1  14
ATOM     14  C   UNL     1       2.044   5.962  20.884  0.00  0.00    +0.000 C 
BRANCH  14  18
ATOM     15  C   UNL     1       1.852   9.894  17.798  0.00  0.00    +0.000 C 
ATOM     16  C   UNL     1       1.667   9.020  18.973  0.00  0.00    +0.000 A 
ATOM     17  N   UNL     1       2.213   7.752  19.040  0.00  0.00    +0.000 NA
ATOM     18  C   UNL     1       1.830   7.297  20.220  0.00  0.00    +0.000 A 
ATOM     19  O   UNL     1       1.056   8.181  20.932  0.00  0.00    +0.000 OA
ATOM     20  C   UNL     1       0.954   9.276  20.125  0.00  0.00    +0.000 A 
ATOM     21  C   UNL     1       0.150  10.413  20.610  0.00  0.00    +0.000 C 
ENDBRANCH  14  18
ENDBRANCH   1  14
TORSDOF 3
ENDMDL
MODEL 8
REMARK VINA RESULT:      -6.9      1.714      2.468
REMARK  Name = 
REMARK  7 active torsions:
REMARK  status: ('A' for Active; 'I' for Inactive)
REMARK    1  A    between atoms: C_1  and  C_2
REMARK    2  A    between atoms: C_4  and  C_5
REMARK    3  A    between atoms: C_5  and  N_6
REMARK    4  A    between atoms: C_10  and  C_11
REMARK    5  A    between atoms: C_12  and  C_13
REMARK    6  A    between atoms: N_15  and  C_16
REMARK    7  A    between atoms: C_20  and  C_21
REMARK                            x       y       z     vdW  Elec       q    Type
REMARK                         _______ _______ _______ _____ _____    ______ ____
ROOT
ATOM      1  N   UNL     1       3.716   3.724  19.141  0.00  0.00    +0.000 NA
ATOM      2  C   UNL     1       2.923   2.515  19.339  0.00  0.00    +0.000 C 
ATOM      3  C   UNL     1       2.024   2.376  18.127  0.00  0.00    +0.000 C 
ATOM      4  C   UNL     1       1.894   3.777  17.561  0.00  0.00    +0.000 C 
ATOM      5  C   UNL     1       3.080   4.567  18.120  0.00  0.00    +0.000 C 
ENDROOT
BRANCH   5   6
ATOM      6  C   UNL     1       2.667   5.867  18.762  0.00  0.00    +0.000 A 
ATOM      7  C   UNL     1       2.905   7.199  18.289  0.00  0.00    +0.000 A 
ATOM      8  C   UNL     1       3.605   7.654  17.058  0.00  0.00    +0.000 C 
ATOM      9  N   UNL     1       2.389   8.135  19.101  0.00  0.00    +0.000 NA
ATOM     10  N   UNL     1       1.817   7.429  20.092  0.00  0.00    +0.000 N 
ATOM     11  C   UNL     1       1.151   8.127  21.167  0.00  0.00    +0.000 C 
ATOM     12  C   UNL     1       1.941   6.085  19.916  0.00  0.00    +0.000 A 
ATOM     13 CL   UNL     1       1.219   5.023  21.039  0.00  0.00    +0.000 Cl
ENDBRANCH   5   6
BRANCH   1  14
ATOM     14  C   UNL     1       5.155   3.493  18.952  0.00  0.00    +0.000 C 
BRANCH  14  18
ATOM     15  C   UNL     1       7.213   5.287  14.761  0.00  0.00    +0.000 C 
ATOM     16  C   UNL     1       6.779   5.148  16.165  0.00  0.00    +0.000 A 
ATOM     17  N   UNL     1       6.100   4.033  16.618  0.00  0.00    +0.000 NA
ATOM     18  C   UNL     1       5.888   4.281  17.899  0.00  0.00    +0.000 A 
ATOM     19  O   UNL     1       6.376   5.496  18.317  0.00  0.00    +0.000 OA
ATOM     20  C   UNL     1       6.939   6.043  17.201  0.00  0.00    +0.000 A 
ATOM     21  C   UNL     1       7.541   7.383  17.323  0.00  0.00    +0.000 C 
ENDBRANCH  14  18
ENDBRANCH   1  14
TORSDOF 3
ENDMDL
MODEL 9
REMARK VINA RESULT:      -6.8      2.412      5.345
REMARK  Name = 
REMARK  7 active torsions:
REMARK  status: ('A' for Active; 'I' for Inactive)
REMARK    1  A    between atoms: C_1  and  C_2
REMARK    2  A    between atoms: C_4  and  C_5
REMARK    3  A    between atoms: C_5  and  N_6
REMARK    4  A    between atoms: C_10  and  C_11
REMARK    5  A    between atoms: C_12  and  C_13
REMARK    6  A    between atoms: N_15  and  C_16
REMARK    7  A    between atoms: C_20  and  C_21
REMARK                            x       y       z     vdW  Elec       q    Type
REMARK                         _______ _______ _______ _____ _____    ______ ____
ROOT
ATOM      1  N   UNL     1       2.239   4.856  20.011  0.00  0.00    +0.000 NA
ATOM      2  C   UNL     1       1.030   4.043  20.105  0.00  0.00    +0.000 C 
ATOM      3  C   UNL     1       1.450   2.692  20.648  0.00  0.00    +0.000 C 
ATOM      4  C   UNL     1       2.921   2.561  20.302  0.00  0.00    +0.000 C 
ATOM      5  C   UNL     1       3.420   3.985  20.045  0.00  0.00    +0.000 C 
ENDROOT
BRANCH   5   6
ATOM      6  C   UNL     1       4.152   4.120  18.734  0.00  0.00    +0.000 A 
ATOM      7  C   UNL     1       3.705   3.730  17.429  0.00  0.00    +0.000 A 
ATOM      8  C   UNL     1       2.421   3.103  17.018  0.00  0.00    +0.000 C 
ATOM      9  N   UNL     1       4.605   4.006  16.472  0.00  0.00    +0.000 NA
ATOM     10  N   UNL     1       5.628   4.571  17.137  0.00  0.00    +0.000 N 
ATOM     11  C   UNL     1       6.797   5.002  16.407  0.00  0.00    +0.000 C 
ATOM     12  C   UNL     1       5.389   4.676  18.472  0.00  0.00    +0.000 A 
ATOM     13 CL   UNL     1       6.546   5.431  19.474  0.00  0.00    +0.000 Cl
ENDBRANCH   5   6
BRANCH   1  14
ATOM     14  C   UNL     1       2.283   6.003  20.930  0.00  0.00    +0.000 C 
BRANCH  14  18
ATOM     15  C   UNL     1       0.110  10.483  20.455  0.00  0.00    +0.000 C 
ATOM     16  C   UNL     1       0.883   9.259  20.167  0.00  0.00    +0.000 A 
ATOM     17  N   UNL     1       0.988   8.224  21.077  0.00  0.00    +0.000 NA
ATOM     18  C   UNL     1       1.747   7.331  20.466  0.00  0.00    +0.000 A 
ATOM     19  O   UNL     1       2.158   7.717  19.213  0.00  0.00    +0.000 OA
ATOM     20  C   UNL     1       1.605   8.951  19.034  0.00  0.00    +0.000 A 
ATOM     21  C   UNL     1       1.886   9.652  17.767  0.00  0.00    +0.000 C 
ENDBRANCH  14  18
ENDBRANCH   1  14
TORSDOF 3
ENDMDL
