MODEL 1
REMARK VINA RESULT:      -8.3      0.000      0.000
REMARK  Name = 
REMARK  6 active torsions:
REMARK  status: ('A' for Active; 'I' for Inactive)
REMARK    1  A    between atoms: N_3  and  C_4
REMARK    2  A    between atoms: N_7  and  C_8
REMARK    3  A    between atoms: C_8  and  C_9
REMARK    4  A    between atoms: N_12  and  C_13
REMARK    5  A    between atoms: C_16  and  C_17
REMARK    6  A    between atoms: C_29  and  O_30
REMARK                            x       y       z     vdW  Elec       q    Type
REMARK                         _______ _______ _______ _____ _____    ______ ____
ROOT
ATOM      1  C   UNL     1      -2.322  11.674  17.670  0.00  0.00    +0.000 C 
ATOM      2  C   UNL     1      -1.975  10.190  17.547  0.00  0.00    +0.000 C 
ATOM      3  C   UNL     1      -1.215   9.663  18.764  0.00  0.00    +0.000 C 
ATOM      4  N   UNL     1      -0.035  10.477  19.115  0.00  0.00    +0.000 NA
ATOM      5  C   UNL     1      -0.401  11.888  19.297  0.00  0.00    +0.000 C 
ATOM      6  C   UNL     1      -1.078  12.466  18.054  0.00  0.00    +0.000 C 
ENDROOT
BRANCH   1   9
ATOM      7  O   UNL     1      -5.069  11.707  17.060  0.00  0.00    +0.000 OA
ATOM      8  C   UNL     1      -4.718  11.907  18.227  0.00  0.00    +0.000 C 
ATOM      9  N   UNL     1      -3.409  11.919  18.616  0.00  0.00    +0.000 N 
ATOM     10  N   UNL     1      -5.623  12.212  19.209  0.00  0.00    +0.000 N 
ATOM     11  C   UNL     1      -5.366  12.494  20.611  0.00  0.00    +0.000 C 
ATOM     12  C   UNL     1      -6.747  12.590  21.243  0.00  0.00    +0.000 C 
ATOM     13  C   UNL     1      -7.610  13.131  20.110  0.00  0.00    +0.000 C 
ATOM     14  C   UNL     1      -7.014  12.476  18.861  0.00  0.00    +0.000 C 
ATOM     15  H   UNL     1      -3.213  11.844  19.599  0.00  0.00    +0.000 HD
BRANCH  13  16
ATOM     16  O   UNL     1      -7.496  14.554  20.070  0.00  0.00    +0.000 OA
ATOM     17  H   UNL     1      -6.834  14.788  19.395  0.00  0.00    +0.000 HD
ENDBRANCH  13  16
ENDBRANCH   1   9
BRANCH   4  18
ATOM     18  C   UNL     1       0.583   9.898  20.326  0.00  0.00    +0.000 C 
BRANCH  18  19
ATOM     19  C   UNL     1       1.340   8.639  20.056  0.00  0.00    +0.000 A 
ATOM     20  C   UNL     1       1.283   7.435  20.808  0.00  0.00    +0.000 A 
ATOM     21  C   UNL     1       2.089   6.512  20.189  0.00  0.00    +0.000 A 
ATOM     22  N   UNL     1       2.620   7.076  19.047  0.00  0.00    +0.000 N 
ATOM     23  C   UNL     1       2.192   8.384  18.997  0.00  0.00    +0.000 A 
BRANCH  22  24
ATOM     24  C   UNL     1       3.425   6.412  18.085  0.00  0.00    +0.000 A 
ATOM     25  C   UNL     1       3.366   5.020  17.959  0.00  0.00    +0.000 A 
ATOM     26  C   UNL     1       4.115   4.371  16.982  0.00  0.00    +0.000 A 
ATOM     27  C   UNL     1       4.944   5.101  16.125  0.00  0.00    +0.000 A 
ATOM     28  C   UNL     1       5.022   6.491  16.265  0.00  0.00    +0.000 A 
ATOM     29  C   UNL     1       4.260   7.148  17.233  0.00  0.00    +0.000 A 
BRANCH  27  30
ATOM     30  C   UNL     1       5.730   4.397  15.050  0.00  0.00    +0.000 C 
ATOM     31  F   UNL     1       6.911   5.011  14.755  0.00  0.00    +0.000 F 
ATOM     32  F   UNL     1       6.052   3.120  15.395  0.00  0.00    +0.000 F 
ATOM     33  F   UNL     1       5.051   4.311  13.874  0.00  0.00    +0.000 F 
ENDBRANCH  27  30
ENDBRANCH  22  24
ENDBRANCH  18  19
ENDBRANCH   4  18
TORSDOF 6
ENDMDL
MODEL 2
REMARK VINA RESULT:      -8.1      2.300      3.074
REMARK  Name = 
REMARK  6 active torsions:
REMARK  status: ('A' for Active; 'I' for Inactive)
REMARK    1  A    between atoms: N_3  and  C_4
REMARK    2  A    between atoms: N_7  and  C_8
REMARK    3  A    between atoms: C_8  and  C_9
REMARK    4  A    between atoms: N_12  and  C_13
REMARK    5  A    between atoms: C_16  and  C_17
REMARK    6  A    between atoms: C_29  and  O_30
REMARK                            x       y       z     vdW  Elec       q    Type
REMARK                         _______ _______ _______ _____ _____    ______ ____
ROOT
ATOM      1  C   UNL     1      -1.246  12.174  22.956  0.00  0.00    +0.000 C 
ATOM      2  C   UNL     1      -0.292  12.862  21.980  0.00  0.00    +0.000 C 
ATOM      3  C   UNL     1      -0.146  12.097  20.665  0.00  0.00    +0.000 C 
ATOM      4  N   UNL     1       0.190  10.671  20.851  0.00  0.00    +0.000 NA
ATOM      5  C   UNL     1      -0.779  10.011  21.737  0.00  0.00    +0.000 C 
ATOM      6  C   UNL     1      -0.871  10.704  23.097  0.00  0.00    +0.000 C 
ENDROOT
BRANCH   1   9
ATOM      7  O   UNL     1      -3.276  13.363  24.500  0.00  0.00    +0.000 OA
ATOM      8  C   UNL     1      -3.563  12.921  23.384  0.00  0.00    +0.000 C 
ATOM      9  N   UNL     1      -2.648  12.320  22.567  0.00  0.00    +0.000 N 
ATOM     10  N   UNL     1      -4.848  12.932  22.913  0.00  0.00    +0.000 N 
ATOM     11  C   UNL     1      -5.345  12.433  21.642  0.00  0.00    +0.000 C 
ATOM     12  C   UNL     1      -6.802  12.867  21.599  0.00  0.00    +0.000 C 
ATOM     13  C   UNL     1      -7.210  12.855  23.067  0.00  0.00    +0.000 C 
ATOM     14  C   UNL     1      -5.944  13.315  23.795  0.00  0.00    +0.000 C 
ATOM     15  H   UNL     1      -2.888  12.209  21.597  0.00  0.00    +0.000 HD
BRANCH  13  16
ATOM     16  O   UNL     1      -7.584  11.528  23.440  0.00  0.00    +0.000 OA
ATOM     17  H   UNL     1      -8.000  11.101  22.671  0.00  0.00    +0.000 HD
ENDBRANCH  13  16
ENDBRANCH   1   9
BRANCH   4  18
ATOM     18  C   UNL     1       0.257  10.034  19.520  0.00  0.00    +0.000 C 
BRANCH  18  19
ATOM     19  C   UNL     1       1.218   8.893  19.460  0.00  0.00    +0.000 A 
ATOM     20  C   UNL     1       1.463   7.933  20.478  0.00  0.00    +0.000 A 
ATOM     21  C   UNL     1       2.377   7.029  19.995  0.00  0.00    +0.000 A 
ATOM     22  N   UNL     1       2.686   7.358  18.691  0.00  0.00    +0.000 N 
ATOM     23  C   UNL     1       2.008   8.518  18.388  0.00  0.00    +0.000 A 
BRANCH  22  24
ATOM     24  C   UNL     1       3.518   6.612  17.816  0.00  0.00    +0.000 A 
ATOM     25  C   UNL     1       3.336   5.230  17.683  0.00  0.00    +0.000 A 
ATOM     26  C   UNL     1       4.116   4.504  16.786  0.00  0.00    +0.000 A 
ATOM     27  C   UNL     1       5.097   5.144  16.021  0.00  0.00    +0.000 A 
ATOM     28  C   UNL     1       5.293   6.521  16.171  0.00  0.00    +0.000 A 
ATOM     29  C   UNL     1       4.504   7.256  17.057  0.00  0.00    +0.000 A 
BRANCH  27  30
ATOM     30  C   UNL     1       5.916   4.358  15.033  0.00  0.00    +0.000 C 
ATOM     31  F   UNL     1       6.999   5.043  14.564  0.00  0.00    +0.000 F 
ATOM     32  F   UNL     1       6.409   3.206  15.566  0.00  0.00    +0.000 F 
ATOM     33  F   UNL     1       5.204   3.991  13.933  0.00  0.00    +0.000 F 
ENDBRANCH  27  30
ENDBRANCH  22  24
ENDBRANCH  18  19
ENDBRANCH   4  18
TORSDOF 6
ENDMDL
MODEL 3
REMARK VINA RESULT:      -7.8      2.101      2.985
REMARK  Name = 
REMARK  6 active torsions:
REMARK  status: ('A' for Active; 'I' for Inactive)
REMARK    1  A    between atoms: N_3  and  C_4
REMARK    2  A    between atoms: N_7  and  C_8
REMARK    3  A    between atoms: C_8  and  C_9
REMARK    4  A    between atoms: N_12  and  C_13
REMARK    5  A    between atoms: C_16  and  C_17
REMARK    6  A    between atoms: C_29  and  O_30
REMARK                            x       y       z     vdW  Elec       q    Type
REMARK                         _______ _______ _______ _____ _____    ______ ____
ROOT
ATOM      1  C   UNL     1      -1.246  12.443  22.850  0.00  0.00    +0.000 C 
ATOM      2  C   UNL     1      -0.095  13.031  22.035  0.00  0.00    +0.000 C 
ATOM      3  C   UNL     1       0.108  12.312  20.702  0.00  0.00    +0.000 C 
ATOM      4  N   UNL     1       0.223  10.846  20.839  0.00  0.00    +0.000 NA
ATOM      5  C   UNL     1      -0.929  10.291  21.564  0.00  0.00    +0.000 C 
ATOM      6  C   UNL     1      -1.094  10.930  22.943  0.00  0.00    +0.000 C 
ENDROOT
BRANCH   1   9
ATOM      7  O   UNL     1      -3.714  12.160  24.171  0.00  0.00    +0.000 OA
ATOM      8  C   UNL     1      -3.703  12.637  23.032  0.00  0.00    +0.000 C 
ATOM      9  N   UNL     1      -2.556  12.803  22.310  0.00  0.00    +0.000 N 
ATOM     10  N   UNL     1      -4.860  12.961  22.376  0.00  0.00    +0.000 N 
ATOM     11  C   UNL     1      -5.012  13.504  21.036  0.00  0.00    +0.000 C 
ATOM     12  C   UNL     1      -6.495  13.822  20.915  0.00  0.00    +0.000 C 
ATOM     13  C   UNL     1      -7.148  12.767  21.799  0.00  0.00    +0.000 C 
ATOM     14  C   UNL     1      -6.150  12.592  22.946  0.00  0.00    +0.000 C 
ATOM     15  H   UNL     1      -2.593  13.409  21.508  0.00  0.00    +0.000 HD
BRANCH  13  16
ATOM     16  O   UNL     1      -7.314  11.562  21.050  0.00  0.00    +0.000 OA
ATOM     17  H   UNL     1      -6.814  10.856  21.495  0.00  0.00    +0.000 HD
ENDBRANCH  13  16
ENDBRANCH   1   9
BRANCH   4  18
ATOM     18  C   UNL     1       0.367  10.265  19.488  0.00  0.00    +0.000 C 
BRANCH  18  19
ATOM     19  C   UNL     1       1.262   9.071  19.452  0.00  0.00    +0.000 A 
ATOM     20  C   UNL     1       1.438   8.109  20.482  0.00  0.00    +0.000 A 
ATOM     21  C   UNL     1       2.306   7.150  20.020  0.00  0.00    +0.000 A 
ATOM     22  N   UNL     1       2.651   7.448  18.718  0.00  0.00    +0.000 N 
ATOM     23  C   UNL     1       2.044   8.642  18.395  0.00  0.00    +0.000 A 
BRANCH  22  24
ATOM     24  C   UNL     1       3.451   6.647  17.862  0.00  0.00    +0.000 A 
ATOM     25  C   UNL     1       4.421   7.242  17.047  0.00  0.00    +0.000 A 
ATOM     26  C   UNL     1       5.243   6.455  16.246  0.00  0.00    +0.000 A 
ATOM     27  C   UNL     1       5.100   5.063  16.237  0.00  0.00    +0.000 A 
ATOM     28  C   UNL     1       4.115   4.470  17.034  0.00  0.00    +0.000 A 
ATOM     29  C   UNL     1       3.299   5.254  17.851  0.00  0.00    +0.000 A 
BRANCH  27  30
ATOM     30  C   UNL     1       6.011   4.215  15.390  0.00  0.00    +0.000 C 
ATOM     31  F   UNL     1       7.332   4.507  15.561  0.00  0.00    +0.000 F 
ATOM     32  F   UNL     1       5.886   2.886  15.664  0.00  0.00    +0.000 F 
ATOM     33  F   UNL     1       5.769   4.351  14.058  0.00  0.00    +0.000 F 
ENDBRANCH  27  30
ENDBRANCH  22  24
ENDBRANCH  18  19
ENDBRANCH   4  18
TORSDOF 6
ENDMDL
MODEL 4
REMARK VINA RESULT:      -7.7      1.105      1.440
REMARK  Name = 
REMARK  6 active torsions:
REMARK  status: ('A' for Active; 'I' for Inactive)
REMARK    1  A    between atoms: N_3  and  C_4
REMARK    2  A    between atoms: N_7  and  C_8
REMARK    3  A    between atoms: C_8  and  C_9
REMARK    4  A    between atoms: N_12  and  C_13
REMARK    5  A    between atoms: C_16  and  C_17
REMARK    6  A    between atoms: C_29  and  O_30
REMARK                            x       y       z     vdW  Elec       q    Type
REMARK                         _______ _______ _______ _____ _____    ______ ____
ROOT
ATOM      1  C   UNL     1      -1.013  12.087  18.735  0.00  0.00    +0.000 C 
ATOM      2  C   UNL     1      -1.066  10.645  18.233  0.00  0.00    +0.000 C 
ATOM      3  C   UNL     1      -0.618   9.638  19.292  0.00  0.00    +0.000 C 
ATOM      4  N   UNL     1       0.690   9.963  19.893  0.00  0.00    +0.000 NA
ATOM      5  C   UNL     1       0.698  11.330  20.433  0.00  0.00    +0.000 C 
ATOM      6  C   UNL     1       0.346  12.366  19.365  0.00  0.00    +0.000 C 
ENDROOT
BRANCH   1   9
ATOM      7  O   UNL     1      -3.768  11.897  18.198  0.00  0.00    +0.000 OA
ATOM      8  C   UNL     1      -3.408  12.264  19.320  0.00  0.00    +0.000 C 
ATOM      9  N   UNL     1      -2.094  12.396  19.670  0.00  0.00    +0.000 N 
ATOM     10  N   UNL     1      -4.309  12.647  20.277  0.00  0.00    +0.000 N 
ATOM     11  C   UNL     1      -4.042  13.121  21.625  0.00  0.00    +0.000 C 
ATOM     12  C   UNL     1      -5.413  13.225  22.275  0.00  0.00    +0.000 C 
ATOM     13  C   UNL     1      -6.326  13.568  21.105  0.00  0.00    +0.000 C 
ATOM     14  C   UNL     1      -5.719  12.790  19.935  0.00  0.00    +0.000 C 
ATOM     15  H   UNL     1      -1.875  12.459  20.649  0.00  0.00    +0.000 HD
BRANCH  13  16
ATOM     16  O   UNL     1      -6.292  14.978  20.879  0.00  0.00    +0.000 OA
ATOM     17  H   UNL     1      -5.916  15.137  19.995  0.00  0.00    +0.000 HD
ENDBRANCH  13  16
ENDBRANCH   1   9
BRANCH   4  18
ATOM     18  C   UNL     1       0.988   8.951  20.927  0.00  0.00    +0.000 C 
BRANCH  18  19
ATOM     19  C   UNL     1       1.680   7.743  20.387  0.00  0.00    +0.000 A 
ATOM     20  C   UNL     1       1.567   6.412  20.869  0.00  0.00    +0.000 A 
ATOM     21  C   UNL     1       2.324   5.603  20.056  0.00  0.00    +0.000 A 
ATOM     22  N   UNL     1       2.877   6.370  19.051  0.00  0.00    +0.000 N 
ATOM     23  C   UNL     1       2.514   7.678  19.285  0.00  0.00    +0.000 A 
BRANCH  22  24
ATOM     24  C   UNL     1       3.643   5.888  17.958  0.00  0.00    +0.000 A 
ATOM     25  C   UNL     1       3.650   4.522  17.654  0.00  0.00    +0.000 A 
ATOM     26  C   UNL     1       4.359   4.052  16.551  0.00  0.00    +0.000 A 
ATOM     27  C   UNL     1       5.082   4.938  15.745  0.00  0.00    +0.000 A 
ATOM     28  C   UNL     1       5.094   6.301  16.063  0.00  0.00    +0.000 A 
ATOM     29  C   UNL     1       4.372   6.778  17.158  0.00  0.00    +0.000 A 
BRANCH  27  30
ATOM     30  C   UNL     1       5.823   4.428  14.538  0.00  0.00    +0.000 C 
ATOM     31  F   UNL     1       5.008   4.174  13.474  0.00  0.00    +0.000 F 
ATOM     32  F   UNL     1       6.755   5.314  14.088  0.00  0.00    +0.000 F 
ATOM     33  F   UNL     1       6.490   3.268  14.781  0.00  0.00    +0.000 F 
ENDBRANCH  27  30
ENDBRANCH  22  24
ENDBRANCH  18  19
ENDBRANCH   4  18
TORSDOF 6
ENDMDL
MODEL 5
REMARK VINA RESULT:      -7.6      0.879      1.286
REMARK  Name = 
REMARK  6 active torsions:
REMARK  status: ('A' for Active; 'I' for Inactive)
REMARK    1  A    between atoms: N_3  and  C_4
REMARK    2  A    between atoms: N_7  and  C_8
REMARK    3  A    between atoms: C_8  and  C_9
REMARK    4  A    between atoms: N_12  and  C_13
REMARK    5  A    between atoms: C_16  and  C_17
REMARK    6  A    between atoms: C_29  and  O_30
REMARK                            x       y       z     vdW  Elec       q    Type
REMARK                         _______ _______ _______ _____ _____    ______ ____
ROOT
ATOM      1  C   UNL     1      -1.272  12.231  18.498  0.00  0.00    +0.000 C 
ATOM      2  C   UNL     1      -1.259  10.761  18.079  0.00  0.00    +0.000 C 
ATOM      3  C   UNL     1      -0.780   9.836  19.197  0.00  0.00    +0.000 C 
ATOM      4  N   UNL     1       0.508  10.252  19.788  0.00  0.00    +0.000 NA
ATOM      5  C   UNL     1       0.453  11.646  20.249  0.00  0.00    +0.000 C 
ATOM      6  C   UNL     1       0.068  12.604  19.120  0.00  0.00    +0.000 C 
ENDROOT
BRANCH   1   9
ATOM      7  O   UNL     1      -4.007  11.809  17.988  0.00  0.00    +0.000 OA
ATOM      8  C   UNL     1      -3.675  12.296  19.073  0.00  0.00    +0.000 C 
ATOM      9  N   UNL     1      -2.374  12.546  19.405  0.00  0.00    +0.000 N 
ATOM     10  N   UNL     1      -4.602  12.698  19.996  0.00  0.00    +0.000 N 
ATOM     11  C   UNL     1      -4.372  13.305  21.296  0.00  0.00    +0.000 C 
ATOM     12  C   UNL     1      -5.749  13.372  21.940  0.00  0.00    +0.000 C 
ATOM     13  C   UNL     1      -6.680  13.550  20.747  0.00  0.00    +0.000 C 
ATOM     14  C   UNL     1      -6.018  12.715  19.648  0.00  0.00    +0.000 C 
ATOM     15  H   UNL     1      -2.163  12.709  20.375  0.00  0.00    +0.000 HD
BRANCH  13  16
ATOM     16  O   UNL     1      -6.741  14.934  20.399  0.00  0.00    +0.000 OA
ATOM     17  H   UNL     1      -7.074  15.005  19.487  0.00  0.00    +0.000 HD
ENDBRANCH  13  16
ENDBRANCH   1   9
BRANCH   4  18
ATOM     18  C   UNL     1       0.839   9.313  20.880  0.00  0.00    +0.000 C 
BRANCH  18  19
ATOM     19  C   UNL     1       1.511   8.068  20.404  0.00  0.00    +0.000 A 
ATOM     20  C   UNL     1       1.366   6.763  20.946  0.00  0.00    +0.000 A 
ATOM     21  C   UNL     1       2.113   5.903  20.181  0.00  0.00    +0.000 A 
ATOM     22  N   UNL     1       2.691   6.610  19.146  0.00  0.00    +0.000 N 
ATOM     23  C   UNL     1       2.353   7.935  19.315  0.00  0.00    +0.000 A 
BRANCH  22  24
ATOM     24  C   UNL     1       3.458   6.062  18.085  0.00  0.00    +0.000 A 
ATOM     25  C   UNL     1       4.193   6.903  17.242  0.00  0.00    +0.000 A 
ATOM     26  C   UNL     1       4.988   6.364  16.234  0.00  0.00    +0.000 A 
ATOM     27  C   UNL     1       5.049   4.979  16.044  0.00  0.00    +0.000 A 
ATOM     28  C   UNL     1       4.297   4.140  16.873  0.00  0.00    +0.000 A 
ATOM     29  C   UNL     1       3.511   4.674  17.895  0.00  0.00    +0.000 A 
BRANCH  27  30
ATOM     30  C   UNL     1       5.933   4.402  14.971  0.00  0.00    +0.000 C 
ATOM     31  F   UNL     1       7.088   5.104  14.788  0.00  0.00    +0.000 F 
ATOM     32  F   UNL     1       6.315   3.123  15.245  0.00  0.00    +0.000 F 
ATOM     33  F   UNL     1       5.325   4.361  13.754  0.00  0.00    +0.000 F 
ENDBRANCH  27  30
ENDBRANCH  22  24
ENDBRANCH  18  19
ENDBRANCH   4  18
TORSDOF 6
ENDMDL
MODEL 6
REMARK VINA RESULT:      -7.6      3.403      5.202
REMARK  Name = 
REMARK  6 active torsions:
REMARK  status: ('A' for Active; 'I' for Inactive)
REMARK    1  A    between atoms: N_3  and  C_4
REMARK    2  A    between atoms: N_7  and  C_8
REMARK    3  A    between atoms: C_8  and  C_9
REMARK    4  A    between atoms: N_12  and  C_13
REMARK    5  A    between atoms: C_16  and  C_17
REMARK    6  A    between atoms: C_29  and  O_30
REMARK                            x       y       z     vdW  Elec       q    Type
REMARK                         _______ _______ _______ _____ _____    ______ ____
ROOT
ATOM      1  C   UNL     1      -0.421  11.744  19.798  0.00  0.00    +0.000 C 
ATOM      2  C   UNL     1      -0.831  11.306  21.203  0.00  0.00    +0.000 C 
ATOM      3  C   UNL     1       0.121  10.268  21.796  0.00  0.00    +0.000 C 
ATOM      4  N   UNL     1       0.355   9.113  20.907  0.00  0.00    +0.000 NA
ATOM      5  C   UNL     1       0.816   9.551  19.582  0.00  0.00    +0.000 C 
ATOM      6  C   UNL     1      -0.170  10.518  18.927  0.00  0.00    +0.000 C 
ENDROOT
BRANCH   1   9
ATOM      7  O   UNL     1      -0.210  14.211  18.462  0.00  0.00    +0.000 OA
ATOM      8  C   UNL     1       0.750  13.815  19.129  0.00  0.00    +0.000 C 
ATOM      9  N   UNL     1       0.745  12.627  19.802  0.00  0.00    +0.000 N 
ATOM     10  N   UNL     1       1.931  14.507  19.174  0.00  0.00    +0.000 N 
ATOM     11  C   UNL     1       3.149  14.161  19.887  0.00  0.00    +0.000 C 
ATOM     12  C   UNL     1       4.054  15.371  19.715  0.00  0.00    +0.000 C 
ATOM     13  C   UNL     1       3.646  15.917  18.352  0.00  0.00    +0.000 C 
ATOM     14  C   UNL     1       2.139  15.651  18.295  0.00  0.00    +0.000 C 
ATOM     15  H   UNL     1       1.448  12.485  20.507  0.00  0.00    +0.000 HD
BRANCH  13  16
ATOM     16  O   UNL     1       4.349  15.207  17.331  0.00  0.00    +0.000 OA
ATOM     17  H   UNL     1       4.965  15.825  16.899  0.00  0.00    +0.000 HD
ENDBRANCH  13  16
ENDBRANCH   1   9
BRANCH   4  18
ATOM     18  C   UNL     1       1.321   8.210  21.566  0.00  0.00    +0.000 C 
BRANCH  18  19
ATOM     19  C   UNL     1       1.745   7.068  20.703  0.00  0.00    +0.000 A 
ATOM     20  C   UNL     1       1.202   5.756  20.702  0.00  0.00    +0.000 A 
ATOM     21  C   UNL     1       1.839   5.036  19.721  0.00  0.00    +0.000 A 
ATOM     22  N   UNL     1       2.736   5.860  19.071  0.00  0.00    +0.000 N 
ATOM     23  C   UNL     1       2.702   7.084  19.704  0.00  0.00    +0.000 A 
BRANCH  22  24
ATOM     24  C   UNL     1       3.516   5.516  17.937  0.00  0.00    +0.000 A 
ATOM     25  C   UNL     1       4.192   6.511  17.221  0.00  0.00    +0.000 A 
ATOM     26  C   UNL     1       5.000   6.170  16.140  0.00  0.00    +0.000 A 
ATOM     27  C   UNL     1       5.134   4.834  15.750  0.00  0.00    +0.000 A 
ATOM     28  C   UNL     1       4.440   3.842  16.451  0.00  0.00    +0.000 A 
ATOM     29  C   UNL     1       3.641   4.176  17.545  0.00  0.00    +0.000 A 
BRANCH  27  30
ATOM     30  C   UNL     1       6.032   4.469  14.598  0.00  0.00    +0.000 C 
ATOM     31  F   UNL     1       6.892   3.451  14.887  0.00  0.00    +0.000 F 
ATOM     32  F   UNL     1       5.333   4.064  13.502  0.00  0.00    +0.000 F 
ATOM     33  F   UNL     1       6.809   5.508  14.188  0.00  0.00    +0.000 F 
ENDBRANCH  27  30
ENDBRANCH  22  24
ENDBRANCH  18  19
ENDBRANCH   4  18
TORSDOF 6
ENDMDL
MODEL 7
REMARK VINA RESULT:      -7.5      3.325      4.459
REMARK  Name = 
REMARK  6 active torsions:
REMARK  status: ('A' for Active; 'I' for Inactive)
REMARK    1  A    between atoms: N_3  and  C_4
REMARK    2  A    between atoms: N_7  and  C_8
REMARK    3  A    between atoms: C_8  and  C_9
REMARK    4  A    between atoms: N_12  and  C_13
REMARK    5  A    between atoms: C_16  and  C_17
REMARK    6  A    between atoms: C_29  and  O_30
REMARK                            x       y       z     vdW  Elec       q    Type
REMARK                         _______ _______ _______ _____ _____    ______ ____
ROOT
ATOM      1  C   UNL     1      -1.414  12.242  23.107  0.00  0.00    +0.000 C 
ATOM      2  C   UNL     1      -0.527  13.313  22.473  0.00  0.00    +0.000 C 
ATOM      3  C   UNL     1      -0.265  13.056  20.990  0.00  0.00    +0.000 C 
ATOM      4  N   UNL     1       0.233  11.694  20.711  0.00  0.00    +0.000 NA
ATOM      5  C   UNL     1      -0.671  10.677  21.267  0.00  0.00    +0.000 C 
ATOM      6  C   UNL     1      -0.872  10.858  22.772  0.00  0.00    +0.000 C 
ENDROOT
BRANCH   1   9
ATOM      7  O   UNL     1      -3.487  13.344  24.657  0.00  0.00    +0.000 OA
ATOM      8  C   UNL     1      -3.752  12.924  23.527  0.00  0.00    +0.000 C 
ATOM      9  N   UNL     1      -2.815  12.365  22.706  0.00  0.00    +0.000 N 
ATOM     10  N   UNL     1      -5.033  12.917  23.042  0.00  0.00    +0.000 N 
ATOM     11  C   UNL     1      -5.503  12.438  21.754  0.00  0.00    +0.000 C 
ATOM     12  C   UNL     1      -6.970  12.840  21.706  0.00  0.00    +0.000 C 
ATOM     13  C   UNL     1      -7.393  12.781  23.168  0.00  0.00    +0.000 C 
ATOM     14  C   UNL     1      -6.146  13.252  23.922  0.00  0.00    +0.000 C 
ATOM     15  H   UNL     1      -3.042  12.273  21.731  0.00  0.00    +0.000 HD
BRANCH  13  16
ATOM     16  O   UNL     1      -7.740  11.437  23.504  0.00  0.00    +0.000 OA
ATOM     17  H   UNL     1      -8.694  11.407  23.696  0.00  0.00    +0.000 HD
ENDBRANCH  13  16
ENDBRANCH   1   9
BRANCH   4  18
ATOM     18  C   UNL     1       0.402  11.554  19.250  0.00  0.00    +0.000 C 
BRANCH  18  19
ATOM     19  C   UNL     1       1.110  10.300  18.856  0.00  0.00    +0.000 A 
ATOM     20  C   UNL     1       2.158  10.178  17.905  0.00  0.00    +0.000 A 
ATOM     21  C   UNL     1       2.561   8.865  17.886  0.00  0.00    +0.000 A 
ATOM     22  N   UNL     1       1.834   8.161  18.825  0.00  0.00    +0.000 N 
ATOM     23  C   UNL     1       0.925   9.033  19.380  0.00  0.00    +0.000 A 
BRANCH  22  24
ATOM     24  C   UNL     1       2.023   6.798  19.176  0.00  0.00    +0.000 A 
ATOM     25  C   UNL     1       2.417   5.871  18.205  0.00  0.00    +0.000 A 
ATOM     26  C   UNL     1       2.654   4.545  18.556  0.00  0.00    +0.000 A 
ATOM     27  C   UNL     1       2.486   4.123  19.880  0.00  0.00    +0.000 A 
ATOM     28  C   UNL     1       2.070   5.045  20.846  0.00  0.00    +0.000 A 
ATOM     29  C   UNL     1       1.847   6.379  20.502  0.00  0.00    +0.000 A 
BRANCH  27  30
ATOM     30  C   UNL     1       2.772   2.694  20.259  0.00  0.00    +0.000 C 
ATOM     31  F   UNL     1       1.881   2.187  21.158  0.00  0.00    +0.000 F 
ATOM     32  F   UNL     1       2.736   1.855  19.187  0.00  0.00    +0.000 F 
ATOM     33  F   UNL     1       4.001   2.536  20.823  0.00  0.00    +0.000 F 
ENDBRANCH  27  30
ENDBRANCH  22  24
ENDBRANCH  18  19
ENDBRANCH   4  18
TORSDOF 6
ENDMDL
MODEL 8
REMARK VINA RESULT:      -7.5      2.481      3.283
REMARK  Name = 
REMARK  6 active torsions:
REMARK  status: ('A' for Active; 'I' for Inactive)
REMARK    1  A    between atoms: N_3  and  C_4
REMARK    2  A    between atoms: N_7  and  C_8
REMARK    3  A    between atoms: C_8  and  C_9
REMARK    4  A    between atoms: N_12  and  C_13
REMARK    5  A    between atoms: C_16  and  C_17
REMARK    6  A    between atoms: C_29  and  O_30
REMARK                            x       y       z     vdW  Elec       q    Type
REMARK                         _______ _______ _______ _____ _____    ______ ____
ROOT
ATOM      1  C   UNL     1      -2.573  13.067  19.614  0.00  0.00    +0.000 C 
ATOM      2  C   UNL     1      -2.350  11.728  18.913  0.00  0.00    +0.000 C 
ATOM      3  C   UNL     1      -1.213  10.920  19.539  0.00  0.00    +0.000 C 
ATOM      4  N   UNL     1       0.042  11.686  19.676  0.00  0.00    +0.000 NA
ATOM      5  C   UNL     1      -0.180  12.938  20.414  0.00  0.00    +0.000 C 
ATOM      6  C   UNL     1      -1.248  13.808  19.750  0.00  0.00    +0.000 C 
ENDROOT
BRANCH   1   9
ATOM      7  O   UNL     1      -5.340  12.825  20.061  0.00  0.00    +0.000 OA
ATOM      8  C   UNL     1      -4.579  12.798  21.032  0.00  0.00    +0.000 C 
ATOM      9  N   UNL     1      -3.224  12.918  20.914  0.00  0.00    +0.000 N 
ATOM     10  N   UNL     1      -5.050  12.726  22.316  0.00  0.00    +0.000 N 
ATOM     11  C   UNL     1      -4.288  12.710  23.553  0.00  0.00    +0.000 C 
ATOM     12  C   UNL     1      -5.322  12.446  24.638  0.00  0.00    +0.000 C 
ATOM     13  C   UNL     1      -6.581  13.098  24.083  0.00  0.00    +0.000 C 
ATOM     14  C   UNL     1      -6.480  12.850  22.575  0.00  0.00    +0.000 C 
ATOM     15  H   UNL     1      -2.660  12.647  21.702  0.00  0.00    +0.000 HD
BRANCH  13  16
ATOM     16  O   UNL     1      -6.567  14.492  24.394  0.00  0.00    +0.000 OA
ATOM     17  H   UNL     1      -6.641  14.590  25.359  0.00  0.00    +0.000 HD
ENDBRANCH  13  16
ENDBRANCH   1   9
BRANCH   4  18
ATOM     18  C   UNL     1       1.043  10.820  20.332  0.00  0.00    +0.000 C 
BRANCH  18  19
ATOM     19  C   UNL     1       1.489   9.681  19.475  0.00  0.00    +0.000 A 
ATOM     20  C   UNL     1       1.931   9.754  18.127  0.00  0.00    +0.000 A 
ATOM     21  C   UNL     1       2.298   8.490  17.734  0.00  0.00    +0.000 A 
ATOM     22  N   UNL     1       2.145   7.628  18.801  0.00  0.00    +0.000 N 
ATOM     23  C   UNL     1       1.612   8.354  19.843  0.00  0.00    +0.000 A 
BRANCH  22  24
ATOM     24  C   UNL     1       2.509   6.256  18.824  0.00  0.00    +0.000 A 
ATOM     25  C   UNL     1       2.160   5.455  19.917  0.00  0.00    +0.000 A 
ATOM     26  C   UNL     1       2.469   4.098  19.920  0.00  0.00    +0.000 A 
ATOM     27  C   UNL     1       3.143   3.524  18.837  0.00  0.00    +0.000 A 
ATOM     28  C   UNL     1       3.512   4.329  17.754  0.00  0.00    +0.000 A 
ATOM     29  C   UNL     1       3.190   5.687  17.740  0.00  0.00    +0.000 A 
BRANCH  27  30
ATOM     30  C   UNL     1       3.449   2.049  18.832  0.00  0.00    +0.000 C 
ATOM     31  F   UNL     1       2.386   1.277  19.199  0.00  0.00    +0.000 F 
ATOM     32  F   UNL     1       3.826   1.601  17.603  0.00  0.00    +0.000 F 
ATOM     33  F   UNL     1       4.459   1.719  19.682  0.00  0.00    +0.000 F 
ENDBRANCH  27  30
ENDBRANCH  22  24
ENDBRANCH  18  19
ENDBRANCH   4  18
TORSDOF 6
ENDMDL
MODEL 9
REMARK VINA RESULT:      -7.5      2.335      2.873
REMARK  Name = 
REMARK  6 active torsions:
REMARK  status: ('A' for Active; 'I' for Inactive)
REMARK    1  A    between atoms: N_3  and  C_4
REMARK    2  A    between atoms: N_7  and  C_8
REMARK    3  A    between atoms: C_8  and  C_9
REMARK    4  A    between atoms: N_12  and  C_13
REMARK    5  A    between atoms: C_16  and  C_17
REMARK    6  A    between atoms: C_29  and  O_30
REMARK                            x       y       z     vdW  Elec       q    Type
REMARK                         _______ _______ _______ _____ _____    ______ ____
ROOT
ATOM      1  C   UNL     1      -0.191  12.305  19.434  0.00  0.00    +0.000 C 
ATOM      2  C   UNL     1      -0.310  11.045  18.577  0.00  0.00    +0.000 C 
ATOM      3  C   UNL     1      -0.294   9.764  19.412  0.00  0.00    +0.000 C 
ATOM      4  N   UNL     1       0.847   9.689  20.346  0.00  0.00    +0.000 NA
ATOM      5  C   UNL     1       0.903  10.878  21.209  0.00  0.00    +0.000 C 
ATOM      6  C   UNL     1       0.984  12.169  20.394  0.00  0.00    +0.000 C 
ENDROOT
BRANCH   1   9
ATOM      7  O   UNL     1      -1.069  14.865  20.204  0.00  0.00    +0.000 OA
ATOM      8  C   UNL     1      -1.772  13.889  20.482  0.00  0.00    +0.000 C 
ATOM      9  N   UNL     1      -1.424  12.609  20.159  0.00  0.00    +0.000 N 
ATOM     10  N   UNL     1      -2.923  14.015  21.213  0.00  0.00    +0.000 N 
ATOM     11  C   UNL     1      -3.837  12.969  21.638  0.00  0.00    +0.000 C 
ATOM     12  C   UNL     1      -5.011  13.712  22.258  0.00  0.00    +0.000 C 
ATOM     13  C   UNL     1      -4.362  14.963  22.836  0.00  0.00    +0.000 C 
ATOM     14  C   UNL     1      -3.259  15.294  21.828  0.00  0.00    +0.000 C 
ATOM     15  H   UNL     1      -2.142  11.906  20.196  0.00  0.00    +0.000 HD
BRANCH  13  16
ATOM     16  O   UNL     1      -3.829  14.664  24.127  0.00  0.00    +0.000 OA
ATOM     17  H   UNL     1      -3.050  15.229  24.274  0.00  0.00    +0.000 HD
ENDBRANCH  13  16
ENDBRANCH   1   9
BRANCH   4  18
ATOM     18  C   UNL     1       0.727   8.438  21.123  0.00  0.00    +0.000 C 
BRANCH  18  19
ATOM     19  C   UNL     1       1.506   7.306  20.541  0.00  0.00    +0.000 A 
ATOM     20  C   UNL     1       1.457   5.944  20.944  0.00  0.00    +0.000 A 
ATOM     21  C   UNL     1       2.286   5.229  20.115  0.00  0.00    +0.000 A 
ATOM     22  N   UNL     1       2.825   6.084  19.174  0.00  0.00    +0.000 N 
ATOM     23  C   UNL     1       2.377   7.353  19.468  0.00  0.00    +0.000 A 
BRANCH  22  24
ATOM     24  C   UNL     1       3.654   5.710  18.084  0.00  0.00    +0.000 A 
ATOM     25  C   UNL     1       4.415   6.677  17.417  0.00  0.00    +0.000 A 
ATOM     26  C   UNL     1       5.269   6.306  16.383  0.00  0.00    +0.000 A 
ATOM     27  C   UNL     1       5.365   4.967  15.990  0.00  0.00    +0.000 A 
ATOM     28  C   UNL     1       4.587   4.003  16.641  0.00  0.00    +0.000 A 
ATOM     29  C   UNL     1       3.741   4.368  17.690  0.00  0.00    +0.000 A 
BRANCH  27  30
ATOM     30  C   UNL     1       6.312   4.567  14.889  0.00  0.00    +0.000 C 
ATOM     31  F   UNL     1       5.958   3.406  14.269  0.00  0.00    +0.000 F 
ATOM     32  F   UNL     1       6.389   5.506  13.905  0.00  0.00    +0.000 F 
ATOM     33  F   UNL     1       7.584   4.380  15.333  0.00  0.00    +0.000 F 
ENDBRANCH  27  30
ENDBRANCH  22  24
ENDBRANCH  18  19
ENDBRANCH   4  18
TORSDOF 6
ENDMDL
