MODEL 1
REMARK VINA RESULT:      -8.3      0.000      0.000
REMARK  Name = 
REMARK  10 active torsions:
REMARK  status: ('A' for Active; 'I' for Inactive)
REMARK    1  A    between atoms: C_1  and  O_2
REMARK    2  A    between atoms: O_2  and  C_3
REMARK    3  A    between atoms: C_5  and  C_6
REMARK    4  A    between atoms: C_12  and  C_13
REMARK    5  A    between atoms: C_17  and  N_18
REMARK    6  A    between atoms: C_19  and  C_20
REMARK    7  A    between atoms: C_26  and  O_27
REMARK    8  A    between atoms: O_27  and  C_28
REMARK    9  A    between atoms: C_29  and  O_30
REMARK   10  A    between atoms: O_30  and  C_31
REMARK                            x       y       z     vdW  Elec       q    Type
REMARK                         _______ _______ _______ _____ _____    ______ ____
ROOT
ATOM      1  C   UNL     1       1.246   8.456  21.037  0.00  0.00    +0.000 A 
ATOM      2  C   UNL     1       1.697   9.048  22.211  0.00  0.00    +0.000 A 
ATOM      3  N   UNL     1       1.031  10.217  22.501  0.00  0.00    +0.000 NA
ATOM      4  C   UNL     1       0.200  10.361  21.497  0.00  0.00    +0.000 A 
ATOM      5  C   UNL     1      -0.733  11.426  21.264  0.00  0.00    +0.000 A 
ATOM      6  N   UNL     1      -1.500  11.458  20.203  0.00  0.00    +0.000 NA
ATOM      7  C   UNL     1      -1.369  10.438  19.266  0.00  0.00    +0.000 A 
ATOM      8  C   UNL     1      -0.501   9.413  19.433  0.00  0.00    +0.000 A 
ATOM      9  N   UNL     1       0.287   9.354  20.571  0.00  0.00    +0.000 N 
ENDROOT
BRANCH   1  12
ATOM     10  C   UNL     1       1.549   4.836  19.994  0.00  0.00    +0.000 A 
ATOM     11  C   UNL     1       1.359   5.976  20.791  0.00  0.00    +0.000 A 
ATOM     12  C   UNL     1       1.706   7.247  20.341  0.00  0.00    +0.000 A 
ATOM     13  C   UNL     1       2.459   7.329  19.169  0.00  0.00    +0.000 A 
ATOM     14  C   UNL     1       2.789   6.184  18.417  0.00  0.00    +0.000 A 
ATOM     15  C   UNL     1       2.304   4.916  18.808  0.00  0.00    +0.000 A 
BRANCH  10  17
ATOM     16  C   UNL     1       1.731   2.967  21.432  0.00  0.00    +0.000 C 
ATOM     17  O   UNL     1       1.005   3.643  20.401  0.00  0.00    +0.000 OA
ENDBRANCH  10  17
BRANCH  14  18
ATOM     18  O   UNL     1       3.551   6.510  17.320  0.00  0.00    +0.000 OA
ATOM     19  C   UNL     1       4.965   6.556  17.436  0.00  0.00    +0.000 C 
ENDBRANCH  14  18
BRANCH  15  20
ATOM     20  O   UNL     1       2.619   3.867  17.990  0.00  0.00    +0.000 OA
ATOM     21  C   UNL     1       3.776   3.083  18.227  0.00  0.00    +0.000 C 
ENDBRANCH  15  20
ENDBRANCH   1  12
BRANCH   7  22
ATOM     22  C   UNL     1      -2.219  10.518  18.044  0.00  0.00    +0.000 A 
ATOM     23  C   UNL     1      -1.910   9.816  16.868  0.00  0.00    +0.000 A 
ATOM     24  C   UNL     1      -2.684   9.973  15.719  0.00  0.00    +0.000 A 
ATOM     25  C   UNL     1      -3.772  10.847  15.718  0.00  0.00    +0.000 A 
ATOM     26  C   UNL     1      -4.107  11.563  16.867  0.00  0.00    +0.000 A 
ATOM     27  C   UNL     1      -3.334  11.381  18.026  0.00  0.00    +0.000 A 
BRANCH  26  28
ATOM     28  N   UNL     1      -5.154  12.510  16.912  0.00  0.00    +0.000 N 
ATOM     29  C   UNL     1      -6.435  12.306  17.393  0.00  0.00    +0.000 C 
ATOM     30  C   UNL     1      -7.362  13.465  17.133  0.00  0.00    +0.000 C 
ATOM     31  O   UNL     1      -6.840  11.320  18.003  0.00  0.00    +0.000 OA
ATOM     32  H   UNL     1      -4.934  13.434  16.560  0.00  0.00    +0.000 HD
ENDBRANCH  26  28
ENDBRANCH   7  22
TORSDOF 6
ENDMDL
MODEL 2
REMARK VINA RESULT:      -8.1      0.425      2.225
REMARK  Name = 
REMARK  10 active torsions:
REMARK  status: ('A' for Active; 'I' for Inactive)
REMARK    1  A    between atoms: C_1  and  O_2
REMARK    2  A    between atoms: O_2  and  C_3
REMARK    3  A    between atoms: C_5  and  C_6
REMARK    4  A    between atoms: C_12  and  C_13
REMARK    5  A    between atoms: C_17  and  N_18
REMARK    6  A    between atoms: C_19  and  C_20
REMARK    7  A    between atoms: C_26  and  O_27
REMARK    8  A    between atoms: O_27  and  C_28
REMARK    9  A    between atoms: C_29  and  O_30
REMARK   10  A    between atoms: O_30  and  C_31
REMARK                            x       y       z     vdW  Elec       q    Type
REMARK                         _______ _______ _______ _____ _____    ______ ____
ROOT
ATOM      1  C   UNL     1       1.320   8.373  20.885  0.00  0.00    +0.000 A 
ATOM      2  C   UNL     1       1.847   8.941  22.040  0.00  0.00    +0.000 A 
ATOM      3  N   UNL     1       1.232  10.128  22.370  0.00  0.00    +0.000 NA
ATOM      4  C   UNL     1       0.357  10.305  21.409  0.00  0.00    +0.000 A 
ATOM      5  C   UNL     1      -0.553  11.400  21.230  0.00  0.00    +0.000 A 
ATOM      6  N   UNL     1      -1.370  11.464  20.210  0.00  0.00    +0.000 NA
ATOM      7  C   UNL     1      -1.317  10.447  19.260  0.00  0.00    +0.000 A 
ATOM      8  C   UNL     1      -0.473   9.395  19.377  0.00  0.00    +0.000 A 
ATOM      9  N   UNL     1       0.367   9.303  20.474  0.00  0.00    +0.000 N 
ENDROOT
BRANCH   1  12
ATOM     10  C   UNL     1       3.036   6.085  18.414  0.00  0.00    +0.000 A 
ATOM     11  C   UNL     1       2.422   7.220  18.966  0.00  0.00    +0.000 A 
ATOM     12  C   UNL     1       1.708   7.156  20.159  0.00  0.00    +0.000 A 
ATOM     13  C   UNL     1       1.424   5.889  20.670  0.00  0.00    +0.000 A 
ATOM     14  C   UNL     1       1.910   4.716  20.057  0.00  0.00    +0.000 A 
ATOM     15  C   UNL     1       2.756   4.804  18.930  0.00  0.00    +0.000 A 
BRANCH  10  17
ATOM     16  C   UNL     1       5.234   6.596  17.706  0.00  0.00    +0.000 C 
ATOM     17  O   UNL     1       3.893   6.242  17.353  0.00  0.00    +0.000 OA
ENDBRANCH  10  17
BRANCH  14  18
ATOM     18  O   UNL     1       1.485   3.592  20.725  0.00  0.00    +0.000 OA
ATOM     19  C   UNL     1       2.315   3.009  21.718  0.00  0.00    +0.000 C 
ENDBRANCH  14  18
BRANCH  15  20
ATOM     20  O   UNL     1       3.231   3.622  18.433  0.00  0.00    +0.000 OA
ATOM     21  C   UNL     1       2.485   2.881  17.484  0.00  0.00    +0.000 C 
ENDBRANCH  15  20
ENDBRANCH   1  12
BRANCH   7  22
ATOM     22  C   UNL     1      -2.224  10.563  18.083  0.00  0.00    +0.000 A 
ATOM     23  C   UNL     1      -1.933   9.960  16.849  0.00  0.00    +0.000 A 
ATOM     24  C   UNL     1      -2.764  10.152  15.747  0.00  0.00    +0.000 A 
ATOM     25  C   UNL     1      -3.894  10.964  15.851  0.00  0.00    +0.000 A 
ATOM     26  C   UNL     1      -4.214  11.581  17.060  0.00  0.00    +0.000 A 
ATOM     27  C   UNL     1      -3.382  11.364  18.170  0.00  0.00    +0.000 A 
BRANCH  26  28
ATOM     28  N   UNL     1      -5.305  12.465  17.213  0.00  0.00    +0.000 N 
ATOM     29  C   UNL     1      -6.572  12.145  17.669  0.00  0.00    +0.000 C 
ATOM     30  C   UNL     1      -7.555  13.281  17.544  0.00  0.00    +0.000 C 
ATOM     31  O   UNL     1      -6.924  11.078  18.164  0.00  0.00    +0.000 OA
ATOM     32  H   UNL     1      -5.132  13.433  16.969  0.00  0.00    +0.000 HD
ENDBRANCH  26  28
ENDBRANCH   7  22
TORSDOF 6
ENDMDL
MODEL 3
REMARK VINA RESULT:      -7.6      3.992      6.364
REMARK  Name = 
REMARK  10 active torsions:
REMARK  status: ('A' for Active; 'I' for Inactive)
REMARK    1  A    between atoms: C_1  and  O_2
REMARK    2  A    between atoms: O_2  and  C_3
REMARK    3  A    between atoms: C_5  and  C_6
REMARK    4  A    between atoms: C_12  and  C_13
REMARK    5  A    between atoms: C_17  and  N_18
REMARK    6  A    between atoms: C_19  and  C_20
REMARK    7  A    between atoms: C_26  and  O_27
REMARK    8  A    between atoms: O_27  and  C_28
REMARK    9  A    between atoms: C_29  and  O_30
REMARK   10  A    between atoms: O_30  and  C_31
REMARK                            x       y       z     vdW  Elec       q    Type
REMARK                         _______ _______ _______ _____ _____    ______ ____
ROOT
ATOM      1  C   UNL     1       4.393   4.219  18.264  0.00  0.00    +0.000 A 
ATOM      2  C   UNL     1       4.327   3.028  18.978  0.00  0.00    +0.000 A 
ATOM      3  N   UNL     1       3.388   3.068  19.984  0.00  0.00    +0.000 NA
ATOM      4  C   UNL     1       2.903   4.285  19.911  0.00  0.00    +0.000 A 
ATOM      5  C   UNL     1       1.901   4.890  20.740  0.00  0.00    +0.000 A 
ATOM      6  N   UNL     1       1.515   6.130  20.570  0.00  0.00    +0.000 NA
ATOM      7  C   UNL     1       2.131   6.879  19.572  0.00  0.00    +0.000 A 
ATOM      8  C   UNL     1       3.087   6.359  18.766  0.00  0.00    +0.000 A 
ATOM      9  N   UNL     1       3.472   5.037  18.917  0.00  0.00    +0.000 N 
ENDROOT
BRANCH   1  12
ATOM     10  C   UNL     1       7.119   5.997  16.342  0.00  0.00    +0.000 A 
ATOM     11  C   UNL     1       6.078   5.756  17.253  0.00  0.00    +0.000 A 
ATOM     12  C   UNL     1       5.276   4.622  17.162  0.00  0.00    +0.000 A 
ATOM     13  C   UNL     1       5.386   3.850  16.005  0.00  0.00    +0.000 A 
ATOM     14  C   UNL     1       6.329   4.148  15.000  0.00  0.00    +0.000 A 
ATOM     15  C   UNL     1       7.237   5.216  15.176  0.00  0.00    +0.000 A 
BRANCH  10  17
ATOM     16  C   UNL     1       7.546   7.993  17.537  0.00  0.00    +0.000 C 
ATOM     17  O   UNL     1       8.003   7.015  16.597  0.00  0.00    +0.000 OA
ENDBRANCH  10  17
BRANCH  14  18
ATOM     18  O   UNL     1       6.236   3.264  13.952  0.00  0.00    +0.000 OA
ATOM     19  C   UNL     1       5.213   3.430  12.981  0.00  0.00    +0.000 C 
ENDBRANCH  14  18
BRANCH  15  20
ATOM     20  O   UNL     1       8.157   5.400  14.182  0.00  0.00    +0.000 OA
ATOM     21  C   UNL     1       7.748   5.595  12.839  0.00  0.00    +0.000 C 
ENDBRANCH  15  20
ENDBRANCH   1  12
BRANCH   7  22
ATOM     22  C   UNL     1       1.710   8.301  19.426  0.00  0.00    +0.000 A 
ATOM     23  C   UNL     1       2.009   9.059  18.282  0.00  0.00    +0.000 A 
ATOM     24  C   UNL     1       1.666  10.408  18.210  0.00  0.00    +0.000 A 
ATOM     25  C   UNL     1       1.033  11.032  19.286  0.00  0.00    +0.000 A 
ATOM     26  C   UNL     1       0.722  10.311  20.439  0.00  0.00    +0.000 A 
ATOM     27  C   UNL     1       1.052   8.947  20.493  0.00  0.00    +0.000 A 
BRANCH  26  28
ATOM     28  N   UNL     1       0.141  10.898  21.585  0.00  0.00    +0.000 N 
ATOM     29  C   UNL     1      -1.002  11.678  21.628  0.00  0.00    +0.000 C 
ATOM     30  C   UNL     1      -1.252  12.296  22.979  0.00  0.00    +0.000 C 
ATOM     31  O   UNL     1      -1.793  11.868  20.708  0.00  0.00    +0.000 OA
ATOM     32  H   UNL     1       0.611  10.718  22.464  0.00  0.00    +0.000 HD
ENDBRANCH  26  28
ENDBRANCH   7  22
TORSDOF 6
ENDMDL
MODEL 4
REMARK VINA RESULT:      -7.5      4.005      6.378
REMARK  Name = 
REMARK  10 active torsions:
REMARK  status: ('A' for Active; 'I' for Inactive)
REMARK    1  A    between atoms: C_1  and  O_2
REMARK    2  A    between atoms: O_2  and  C_3
REMARK    3  A    between atoms: C_5  and  C_6
REMARK    4  A    between atoms: C_12  and  C_13
REMARK    5  A    between atoms: C_17  and  N_18
REMARK    6  A    between atoms: C_19  and  C_20
REMARK    7  A    between atoms: C_26  and  O_27
REMARK    8  A    between atoms: O_27  and  C_28
REMARK    9  A    between atoms: C_29  and  O_30
REMARK   10  A    between atoms: O_30  and  C_31
REMARK                            x       y       z     vdW  Elec       q    Type
REMARK                         _______ _______ _______ _____ _____    ______ ____
ROOT
ATOM      1  C   UNL     1       4.621   3.923  18.389  0.00  0.00    +0.000 A 
ATOM      2  C   UNL     1       4.521   2.765  19.152  0.00  0.00    +0.000 A 
ATOM      3  N   UNL     1       3.542   2.853  20.116  0.00  0.00    +0.000 NA
ATOM      4  C   UNL     1       3.065   4.066  19.969  0.00  0.00    +0.000 A 
ATOM      5  C   UNL     1       2.033   4.711  20.728  0.00  0.00    +0.000 A 
ATOM      6  N   UNL     1       1.659   5.942  20.488  0.00  0.00    +0.000 NA
ATOM      7  C   UNL     1       2.319   6.645  19.483  0.00  0.00    +0.000 A 
ATOM      8  C   UNL     1       3.304   6.087  18.741  0.00  0.00    +0.000 A 
ATOM      9  N   UNL     1       3.677   4.772  18.966  0.00  0.00    +0.000 N 
ENDROOT
BRANCH   1  12
ATOM     10  C   UNL     1       6.274   4.004  14.991  0.00  0.00    +0.000 A 
ATOM     11  C   UNL     1       5.609   3.529  16.132  0.00  0.00    +0.000 A 
ATOM     12  C   UNL     1       5.549   4.274  17.306  0.00  0.00    +0.000 A 
ATOM     13  C   UNL     1       6.364   5.404  17.391  0.00  0.00    +0.000 A 
ATOM     14  C   UNL     1       7.156   5.830  16.305  0.00  0.00    +0.000 A 
ATOM     15  C   UNL     1       7.094   5.146  15.071  0.00  0.00    +0.000 A 
BRANCH  10  17
ATOM     16  C   UNL     1       4.932   3.624  13.080  0.00  0.00    +0.000 C 
ATOM     17  O   UNL     1       6.129   3.325  13.807  0.00  0.00    +0.000 OA
ENDBRANCH  10  17
BRANCH  14  18
ATOM     18  O   UNL     1       7.887   6.948  16.631  0.00  0.00    +0.000 OA
ATOM     19  C   UNL     1       7.533   7.709  17.776  0.00  0.00    +0.000 C 
ENDBRANCH  14  18
BRANCH  15  20
ATOM     20  O   UNL     1       7.848   5.660  14.053  0.00  0.00    +0.000 OA
ATOM     21  C   UNL     1       7.819   5.078  12.762  0.00  0.00    +0.000 C 
ENDBRANCH  15  20
ENDBRANCH   1  12
BRANCH   7  22
ATOM     22  C   UNL     1       1.909   8.060  19.257  0.00  0.00    +0.000 A 
ATOM     23  C   UNL     1       2.199   8.742  18.064  0.00  0.00    +0.000 A 
ATOM     24  C   UNL     1       1.869  10.089  17.915  0.00  0.00    +0.000 A 
ATOM     25  C   UNL     1       1.257  10.783  18.959  0.00  0.00    +0.000 A 
ATOM     26  C   UNL     1       0.957  10.138  20.158  0.00  0.00    +0.000 A 
ATOM     27  C   UNL     1       1.274   8.776  20.291  0.00  0.00    +0.000 A 
BRANCH  26  28
ATOM     28  N   UNL     1       0.398  10.799  21.275  0.00  0.00    +0.000 N 
ATOM     29  C   UNL     1      -0.781  11.522  21.305  0.00  0.00    +0.000 C 
ATOM     30  C   UNL     1      -1.001  12.251  22.605  0.00  0.00    +0.000 C 
ATOM     31  O   UNL     1      -1.624  11.586  20.414  0.00  0.00    +0.000 OA
ATOM     32  H   UNL     1       0.918  10.726  22.142  0.00  0.00    +0.000 HD
ENDBRANCH  26  28
ENDBRANCH   7  22
TORSDOF 6
ENDMDL
MODEL 5
REMARK VINA RESULT:      -7.5      4.682      9.456
REMARK  Name = 
REMARK  10 active torsions:
REMARK  status: ('A' for Active; 'I' for Inactive)
REMARK    1  A    between atoms: C_1  and  O_2
REMARK    2  A    between atoms: O_2  and  C_3
REMARK    3  A    between atoms: C_5  and  C_6
REMARK    4  A    between atoms: C_12  and  C_13
REMARK    5  A    between atoms: C_17  and  N_18
REMARK    6  A    between atoms: C_19  and  C_20
REMARK    7  A    between atoms: C_26  and  O_27
REMARK    8  A    between atoms: O_27  and  C_28
REMARK    9  A    between atoms: C_29  and  O_30
REMARK   10  A    between atoms: O_30  and  C_31
REMARK                            x       y       z     vdW  Elec       q    Type
REMARK                         _______ _______ _______ _____ _____    ______ ____
ROOT
ATOM      1  C   UNL     1       1.854   5.458  20.042  0.00  0.00    +0.000 A 
ATOM      2  C   UNL     1       1.098   4.476  20.673  0.00  0.00    +0.000 A 
ATOM      3  N   UNL     1       1.454   3.205  20.283  0.00  0.00    +0.000 NA
ATOM      4  C   UNL     1       2.398   3.404  19.394  0.00  0.00    +0.000 A 
ATOM      5  C   UNL     1       3.122   2.425  18.636  0.00  0.00    +0.000 A 
ATOM      6  N   UNL     1       4.037   2.760  17.761  0.00  0.00    +0.000 NA
ATOM      7  C   UNL     1       4.278   4.114  17.548  0.00  0.00    +0.000 A 
ATOM      8  C   UNL     1       3.619   5.080  18.232  0.00  0.00    +0.000 A 
ATOM      9  N   UNL     1       2.677   4.730  19.185  0.00  0.00    +0.000 N 
ENDROOT
BRANCH   1  12
ATOM     10  C   UNL     1       1.565   9.081  19.005  0.00  0.00    +0.000 A 
ATOM     11  C   UNL     1       1.913   7.721  18.993  0.00  0.00    +0.000 A 
ATOM     12  C   UNL     1       1.774   6.923  20.125  0.00  0.00    +0.000 A 
ATOM     13  C   UNL     1       1.498   7.564  21.333  0.00  0.00    +0.000 A 
ATOM     14  C   UNL     1       1.282   8.956  21.401  0.00  0.00    +0.000 A 
ATOM     15  C   UNL     1       1.281   9.731  20.221  0.00  0.00    +0.000 A 
BRANCH  10  17
ATOM     16  C   UNL     1       2.392  10.906  17.747  0.00  0.00    +0.000 C 
ATOM     17  O   UNL     1       1.528   9.767  17.816  0.00  0.00    +0.000 OA
ENDBRANCH  10  17
BRANCH  14  18
ATOM     18  O   UNL     1       1.050   9.361  22.695  0.00  0.00    +0.000 OA
ATOM     19  C   UNL     1      -0.285   9.489  23.161  0.00  0.00    +0.000 C 
ENDBRANCH  14  18
BRANCH  15  20
ATOM     20  O   UNL     1       1.003  11.062  20.369  0.00  0.00    +0.000 OA
ATOM     21  C   UNL     1      -0.312  11.555  20.183  0.00  0.00    +0.000 C 
ENDBRANCH  15  20
ENDBRANCH   1  12
BRANCH   7  22
ATOM     22  C   UNL     1       5.290   4.475  16.516  0.00  0.00    +0.000 A 
ATOM     23  C   UNL     1       6.019   5.674  16.566  0.00  0.00    +0.000 A 
ATOM     24  C   UNL     1       6.903   6.015  15.543  0.00  0.00    +0.000 A 
ATOM     25  C   UNL     1       7.064   5.173  14.443  0.00  0.00    +0.000 A 
ATOM     26  C   UNL     1       6.355   3.975  14.358  0.00  0.00    +0.000 A 
ATOM     27  C   UNL     1       5.484   3.630  15.403  0.00  0.00    +0.000 A 
BRANCH  26  28
ATOM     28  N   UNL     1       6.425   3.112  13.242  0.00  0.00    +0.000 N 
ATOM     29  C   UNL     1       5.481   2.979  12.238  0.00  0.00    +0.000 C 
ATOM     30  C   UNL     1       5.774   1.843  11.291  0.00  0.00    +0.000 C 
ATOM     31  O   UNL     1       4.499   3.692  12.057  0.00  0.00    +0.000 OA
ATOM     32  H   UNL     1       7.258   2.539  13.173  0.00  0.00    +0.000 HD
ENDBRANCH  26  28
ENDBRANCH   7  22
TORSDOF 6
ENDMDL
MODEL 6
REMARK VINA RESULT:      -7.4      4.325      6.867
REMARK  Name = 
REMARK  10 active torsions:
REMARK  status: ('A' for Active; 'I' for Inactive)
REMARK    1  A    between atoms: C_1  and  O_2
REMARK    2  A    between atoms: O_2  and  C_3
REMARK    3  A    between atoms: C_5  and  C_6
REMARK    4  A    between atoms: C_12  and  C_13
REMARK    5  A    between atoms: C_17  and  N_18
REMARK    6  A    between atoms: C_19  and  C_20
REMARK    7  A    between atoms: C_26  and  O_27
REMARK    8  A    between atoms: O_27  and  C_28
REMARK    9  A    between atoms: C_29  and  O_30
REMARK   10  A    between atoms: O_30  and  C_31
REMARK                            x       y       z     vdW  Elec       q    Type
REMARK                         _______ _______ _______ _____ _____    ______ ____
ROOT
ATOM      1  C   UNL     1       4.394   3.611  17.626  0.00  0.00    +0.000 A 
ATOM      2  C   UNL     1       4.175   2.373  18.221  0.00  0.00    +0.000 A 
ATOM      3  N   UNL     1       3.135   2.399  19.123  0.00  0.00    +0.000 NA
ATOM      4  C   UNL     1       2.739   3.650  19.108  0.00  0.00    +0.000 A 
ATOM      5  C   UNL     1       1.693   4.257  19.878  0.00  0.00    +0.000 A 
ATOM      6  N   UNL     1       1.407   5.531  19.780  0.00  0.00    +0.000 NA
ATOM      7  C   UNL     1       2.176   6.313  18.922  0.00  0.00    +0.000 A 
ATOM      8  C   UNL     1       3.179   5.792  18.177  0.00  0.00    +0.000 A 
ATOM      9  N   UNL     1       3.461   4.438  18.249  0.00  0.00    +0.000 N 
ENDROOT
BRANCH   1  12
ATOM     10  C   UNL     1       6.326   3.970  14.398  0.00  0.00    +0.000 A 
ATOM     11  C   UNL     1       5.558   3.407  15.429  0.00  0.00    +0.000 A 
ATOM     12  C   UNL     1       5.417   4.037  16.662  0.00  0.00    +0.000 A 
ATOM     13  C   UNL     1       6.246   5.129  16.923  0.00  0.00    +0.000 A 
ATOM     14  C   UNL     1       7.134   5.635  15.952  0.00  0.00    +0.000 A 
ATOM     15  C   UNL     1       7.160   5.075  14.655  0.00  0.00    +0.000 A 
BRANCH  10  17
ATOM     16  C   UNL     1       4.956   3.360  12.567  0.00  0.00    +0.000 C 
ATOM     17  O   UNL     1       6.265   3.413  13.144  0.00  0.00    +0.000 OA
ENDBRANCH  10  17
BRANCH  14  18
ATOM     18  O   UNL     1       7.858   6.695  16.443  0.00  0.00    +0.000 OA
ATOM     19  C   UNL     1       7.568   7.205  17.736  0.00  0.00    +0.000 C 
ENDBRANCH  14  18
BRANCH  15  20
ATOM     20  O   UNL     1       8.007   5.663  13.757  0.00  0.00    +0.000 OA
ATOM     21  C   UNL     1       7.811   5.504  12.363  0.00  0.00    +0.000 C 
ENDBRANCH  15  20
ENDBRANCH   1  12
BRANCH   7  22
ATOM     22  C   UNL     1       1.863   7.769  18.860  0.00  0.00    +0.000 A 
ATOM     23  C   UNL     1       2.442   8.619  17.904  0.00  0.00    +0.000 A 
ATOM     24  C   UNL     1       2.187   9.990  17.922  0.00  0.00    +0.000 A 
ATOM     25  C   UNL     1       1.363  10.540  18.904  0.00  0.00    +0.000 A 
ATOM     26  C   UNL     1       0.773   9.726  19.871  0.00  0.00    +0.000 A 
ATOM     27  C   UNL     1       1.018   8.344  19.831  0.00  0.00    +0.000 A 
BRANCH  26  28
ATOM     28  N   UNL     1      -0.018  10.227  20.929  0.00  0.00    +0.000 N 
ATOM     29  C   UNL     1       0.210  10.061  22.284  0.00  0.00    +0.000 C 
ATOM     30  C   UNL     1      -0.918  10.569  23.144  0.00  0.00    +0.000 C 
ATOM     31  O   UNL     1       1.214   9.584  22.804  0.00  0.00    +0.000 OA
ATOM     32  H   UNL     1      -0.830  10.771  20.659  0.00  0.00    +0.000 HD
ENDBRANCH  26  28
ENDBRANCH   7  22
TORSDOF 6
ENDMDL
MODEL 7
REMARK VINA RESULT:      -6.9      4.302      8.755
REMARK  Name = 
REMARK  10 active torsions:
REMARK  status: ('A' for Active; 'I' for Inactive)
REMARK    1  A    between atoms: C_1  and  O_2
REMARK    2  A    between atoms: O_2  and  C_3
REMARK    3  A    between atoms: C_5  and  C_6
REMARK    4  A    between atoms: C_12  and  C_13
REMARK    5  A    between atoms: C_17  and  N_18
REMARK    6  A    between atoms: C_19  and  C_20
REMARK    7  A    between atoms: C_26  and  O_27
REMARK    8  A    between atoms: O_27  and  C_28
REMARK    9  A    between atoms: C_29  and  O_30
REMARK   10  A    between atoms: O_30  and  C_31
REMARK                            x       y       z     vdW  Elec       q    Type
REMARK                         _______ _______ _______ _____ _____    ______ ____
ROOT
ATOM      1  C   UNL     1       0.069  12.680  21.555  0.00  0.00    +0.000 A 
ATOM      2  C   UNL     1      -0.843  12.808  22.597  0.00  0.00    +0.000 A 
ATOM      3  N   UNL     1      -1.189  11.594  23.146  0.00  0.00    +0.000 NA
ATOM      4  C   UNL     1      -0.522  10.723  22.425  0.00  0.00    +0.000 A 
ATOM      5  C   UNL     1      -0.521   9.294  22.540  0.00  0.00    +0.000 A 
ATOM      6  N   UNL     1       0.183   8.533  21.740  0.00  0.00    +0.000 NA
ATOM      7  C   UNL     1       0.922   9.145  20.732  0.00  0.00    +0.000 A 
ATOM      8  C   UNL     1       0.951  10.490  20.575  0.00  0.00    +0.000 A 
ATOM      9  N   UNL     1       0.238  11.301  21.442  0.00  0.00    +0.000 N 
ENDROOT
BRANCH   1  12
ATOM     10  C   UNL     1       0.359  15.574  19.140  0.00  0.00    +0.000 A 
ATOM     11  C   UNL     1      -0.127  14.422  19.779  0.00  0.00    +0.000 A 
ATOM     12  C   UNL     1       0.657  13.697  20.673  0.00  0.00    +0.000 A 
ATOM     13  C   UNL     1       2.014  14.015  20.739  0.00  0.00    +0.000 A 
ATOM     14  C   UNL     1       2.563  15.082  20.000  0.00  0.00    +0.000 A 
ATOM     15  C   UNL     1       1.727  15.901  19.210  0.00  0.00    +0.000 A 
BRANCH  10  17
ATOM     16  C   UNL     1      -1.393  17.161  19.231  0.00  0.00    +0.000 C 
ATOM     17  O   UNL     1      -0.516  16.360  18.433  0.00  0.00    +0.000 OA
ENDBRANCH  10  17
BRANCH  14  18
ATOM     18  O   UNL     1       3.918  15.189  20.211  0.00  0.00    +0.000 OA
ATOM     19  C   UNL     1       4.492  14.627  21.382  0.00  0.00    +0.000 C 
ENDBRANCH  14  18
BRANCH  15  20
ATOM     20  O   UNL     1       2.330  16.949  18.573  0.00  0.00    +0.000 OA
ATOM     21  C   UNL     1       2.925  16.780  17.298  0.00  0.00    +0.000 C 
ENDBRANCH  15  20
ENDBRANCH   1  12
BRANCH   7  22
ATOM     22  C   UNL     1       1.680   8.258  19.804  0.00  0.00    +0.000 A 
ATOM     23  C   UNL     1       2.216   8.723  18.593  0.00  0.00    +0.000 A 
ATOM     24  C   UNL     1       2.853   7.849  17.712  0.00  0.00    +0.000 A 
ATOM     25  C   UNL     1       2.953   6.492  18.018  0.00  0.00    +0.000 A 
ATOM     26  C   UNL     1       2.431   5.994  19.212  0.00  0.00    +0.000 A 
ATOM     27  C   UNL     1       1.810   6.886  20.101  0.00  0.00    +0.000 A 
BRANCH  26  28
ATOM     28  N   UNL     1       2.442   4.623  19.550  0.00  0.00    +0.000 N 
ATOM     29  C   UNL     1       1.771   3.603  18.899  0.00  0.00    +0.000 C 
ATOM     30  C   UNL     1       1.849   2.282  19.619  0.00  0.00    +0.000 C 
ATOM     31  O   UNL     1       1.176   3.686  17.828  0.00  0.00    +0.000 OA
ATOM     32  H   UNL     1       3.009   4.366  20.350  0.00  0.00    +0.000 HD
ENDBRANCH  26  28
ENDBRANCH   7  22
TORSDOF 6
ENDMDL
MODEL 8
REMARK VINA RESULT:      -6.8      4.417      9.055
REMARK  Name = 
REMARK  10 active torsions:
REMARK  status: ('A' for Active; 'I' for Inactive)
REMARK    1  A    between atoms: C_1  and  O_2
REMARK    2  A    between atoms: O_2  and  C_3
REMARK    3  A    between atoms: C_5  and  C_6
REMARK    4  A    between atoms: C_12  and  C_13
REMARK    5  A    between atoms: C_17  and  N_18
REMARK    6  A    between atoms: C_19  and  C_20
REMARK    7  A    between atoms: C_26  and  O_27
REMARK    8  A    between atoms: O_27  and  C_28
REMARK    9  A    between atoms: C_29  and  O_30
REMARK   10  A    between atoms: O_30  and  C_31
REMARK                            x       y       z     vdW  Elec       q    Type
REMARK                         _______ _______ _______ _____ _____    ______ ____
ROOT
ATOM      1  C   UNL     1       0.087  12.722  21.638  0.00  0.00    +0.000 A 
ATOM      2  C   UNL     1      -0.814  12.824  22.693  0.00  0.00    +0.000 A 
ATOM      3  N   UNL     1      -1.151  11.597  23.218  0.00  0.00    +0.000 NA
ATOM      4  C   UNL     1      -0.489  10.745  22.472  0.00  0.00    +0.000 A 
ATOM      5  C   UNL     1      -0.484   9.313  22.555  0.00  0.00    +0.000 A 
ATOM      6  N   UNL     1       0.214   8.572  21.732  0.00  0.00    +0.000 NA
ATOM      7  C   UNL     1       0.939   9.208  20.728  0.00  0.00    +0.000 A 
ATOM      8  C   UNL     1       0.964  10.555  20.601  0.00  0.00    +0.000 A 
ATOM      9  N   UNL     1       0.258  11.346  21.493  0.00  0.00    +0.000 N 
ENDROOT
BRANCH   1  12
ATOM     10  C   UNL     1       0.341  15.573  19.170  0.00  0.00    +0.000 A 
ATOM     11  C   UNL     1      -0.105  14.403  19.805  0.00  0.00    +0.000 A 
ATOM     12  C   UNL     1       0.662  13.759  20.771  0.00  0.00    +0.000 A 
ATOM     13  C   UNL     1       1.984  14.178  20.925  0.00  0.00    +0.000 A 
ATOM     14  C   UNL     1       2.507  15.265  20.197  0.00  0.00    +0.000 A 
ATOM     15  C   UNL     1       1.673  16.003  19.327  0.00  0.00    +0.000 A 
BRANCH  10  17
ATOM     16  C   UNL     1      -1.258  17.312  19.053  0.00  0.00    +0.000 C 
ATOM     17  O   UNL     1      -0.535  16.277  18.381  0.00  0.00    +0.000 OA
ENDBRANCH  10  17
BRANCH  14  18
ATOM     18  O   UNL     1       3.832  15.477  20.500  0.00  0.00    +0.000 OA
ATOM     19  C   UNL     1       4.839  15.001  19.619  0.00  0.00    +0.000 C 
ENDBRANCH  14  18
BRANCH  15  20
ATOM     20  O   UNL     1       2.244  17.078  18.705  0.00  0.00    +0.000 OA
ATOM     21  C   UNL     1       2.734  16.975  17.380  0.00  0.00    +0.000 C 
ENDBRANCH  15  20
ENDBRANCH   1  12
BRANCH   7  22
ATOM     22  C   UNL     1       1.689   8.343  19.774  0.00  0.00    +0.000 A 
ATOM     23  C   UNL     1       2.020   8.769  18.478  0.00  0.00    +0.000 A 
ATOM     24  C   UNL     1       2.655   7.908  17.584  0.00  0.00    +0.000 A 
ATOM     25  C   UNL     1       2.957   6.599  17.962  0.00  0.00    +0.000 A 
ATOM     26  C   UNL     1       2.641   6.141  19.241  0.00  0.00    +0.000 A 
ATOM     27  C   UNL     1       2.022   7.023  20.141  0.00  0.00    +0.000 A 
BRANCH  26  28
ATOM     28  N   UNL     1       2.861   4.811  19.664  0.00  0.00    +0.000 N 
ATOM     29  C   UNL     1       4.053   4.110  19.606  0.00  0.00    +0.000 C 
ATOM     30  C   UNL     1       3.908   2.655  19.970  0.00  0.00    +0.000 C 
ATOM     31  O   UNL     1       5.158   4.566  19.324  0.00  0.00    +0.000 OA
ATOM     32  H   UNL     1       2.060   4.330  20.055  0.00  0.00    +0.000 HD
ENDBRANCH  26  28
ENDBRANCH   7  22
TORSDOF 6
ENDMDL
MODEL 9
REMARK VINA RESULT:      -6.7      4.235      8.941
REMARK  Name = 
REMARK  10 active torsions:
REMARK  status: ('A' for Active; 'I' for Inactive)
REMARK    1  A    between atoms: C_1  and  O_2
REMARK    2  A    between atoms: O_2  and  C_3
REMARK    3  A    between atoms: C_5  and  C_6
REMARK    4  A    between atoms: C_12  and  C_13
REMARK    5  A    between atoms: C_17  and  N_18
REMARK    6  A    between atoms: C_19  and  C_20
REMARK    7  A    between atoms: C_26  and  O_27
REMARK    8  A    between atoms: O_27  and  C_28
REMARK    9  A    between atoms: C_29  and  O_30
REMARK   10  A    between atoms: O_30  and  C_31
REMARK                            x       y       z     vdW  Elec       q    Type
REMARK                         _______ _______ _______ _____ _____    ______ ____
ROOT
ATOM      1  C   UNL     1      -0.402  12.957  21.729  0.00  0.00    +0.000 A 
ATOM      2  C   UNL     1      -1.213  13.068  22.854  0.00  0.00    +0.000 A 
ATOM      3  N   UNL     1      -1.384  11.865  23.501  0.00  0.00    +0.000 NA
ATOM      4  C   UNL     1      -0.712  11.014  22.762  0.00  0.00    +0.000 A 
ATOM      5  C   UNL     1      -0.563   9.600  22.952  0.00  0.00    +0.000 A 
ATOM      6  N   UNL     1       0.127   8.857  22.125  0.00  0.00    +0.000 NA
ATOM      7  C   UNL     1       0.698   9.468  21.012  0.00  0.00    +0.000 A 
ATOM      8  C   UNL     1       0.583  10.797  20.781  0.00  0.00    +0.000 A 
ATOM      9  N   UNL     1      -0.114  11.594  21.674  0.00  0.00    +0.000 N 
ENDROOT
BRANCH   1  12
ATOM     10  C   UNL     1      -0.568  15.923  19.393  0.00  0.00    +0.000 A 
ATOM     11  C   UNL     1      -0.948  14.784  20.120  0.00  0.00    +0.000 A 
ATOM     12  C   UNL     1      -0.006  13.964  20.736  0.00  0.00    +0.000 A 
ATOM     13  C   UNL     1       1.335  14.176  20.417  0.00  0.00    +0.000 A 
ATOM     14  C   UNL     1       1.740  15.230  19.572  0.00  0.00    +0.000 A 
ATOM     15  C   UNL     1       0.785  16.143  19.073  0.00  0.00    +0.000 A 
BRANCH  10  17
ATOM     16  C   UNL     1      -1.979  17.729  19.982  0.00  0.00    +0.000 C 
ATOM     17  O   UNL     1      -1.539  16.803  18.983  0.00  0.00    +0.000 OA
ENDBRANCH  10  17
BRANCH  14  18
ATOM     18  O   UNL     1       3.102  15.225  19.388  0.00  0.00    +0.000 OA
ATOM     19  C   UNL     1       3.662  14.489  18.310  0.00  0.00    +0.000 C 
ENDBRANCH  14  18
BRANCH  15  20
ATOM     20  O   UNL     1       1.269  17.170  18.311  0.00  0.00    +0.000 OA
ATOM     21  C   UNL     1       1.476  18.455  18.870  0.00  0.00    +0.000 C 
ENDBRANCH  15  20
ENDBRANCH   1  12
BRANCH   7  22
ATOM     22  C   UNL     1       1.441   8.595  20.059  0.00  0.00    +0.000 A 
ATOM     23  C   UNL     1       1.669   8.967  18.725  0.00  0.00    +0.000 A 
ATOM     24  C   UNL     1       2.301   8.094  17.839  0.00  0.00    +0.000 A 
ATOM     25  C   UNL     1       2.701   6.827  18.265  0.00  0.00    +0.000 A 
ATOM     26  C   UNL     1       2.488   6.424  19.583  0.00  0.00    +0.000 A 
ATOM     27  C   UNL     1       1.871   7.318  20.472  0.00  0.00    +0.000 A 
BRANCH  26  28
ATOM     28  N   UNL     1       2.811   5.133  20.059  0.00  0.00    +0.000 N 
ATOM     29  C   UNL     1       1.922   4.162  20.486  0.00  0.00    +0.000 C 
ATOM     30  C   UNL     1       2.599   2.963  21.100  0.00  0.00    +0.000 C 
ATOM     31  O   UNL     1       0.700   4.192  20.382  0.00  0.00    +0.000 OA
ATOM     32  H   UNL     1       3.797   4.900  20.080  0.00  0.00    +0.000 HD
ENDBRANCH  26  28
ENDBRANCH   7  22
TORSDOF 6
ENDMDL
