MODEL 1
REMARK VINA RESULT:      -7.9      0.000      0.000
REMARK  Name = 
REMARK  8 active torsions:
REMARK  status: ('A' for Active; 'I' for Inactive)
REMARK    1  A    between atoms: C_1  and  N_2
REMARK    2  A    between atoms: C_3  and  C_5
REMARK    3  A    between atoms: C_5  and  N_6
REMARK    4  A    between atoms: C_9  and  O_10
REMARK    5  A    between atoms: O_10  and  C_11
REMARK    6  A    between atoms: N_15  and  C_16
REMARK    7  A    between atoms: C_29  and  O_30
REMARK    8  A    between atoms: O_30  and  C_31
REMARK                            x       y       z     vdW  Elec       q    Type
REMARK                         _______ _______ _______ _____ _____    ______ ____
ROOT
ATOM      1  C   UNL     1       2.362   7.237  19.011  0.00  0.00    +0.000 A 
ATOM      2  C   UNL     1       1.889   8.538  18.847  0.00  0.00    +0.000 A 
ATOM      3  C   UNL     1       1.065   9.173  19.818  0.00  0.00    +0.000 A 
ATOM      4  C   UNL     1       0.613  10.498  19.714  0.00  0.00    +0.000 A 
ATOM      5  N   UNL     1       0.943  11.249  18.562  0.00  0.00    +0.000 N 
ATOM      6  N   UNL     1      -0.125  11.083  20.676  0.00  0.00    +0.000 NA
ATOM      7  C   UNL     1      -0.437  10.319  21.724  0.00  0.00    +0.000 A 
ATOM      8  N   UNL     1      -0.062   9.046  21.920  0.00  0.00    +0.000 NA
ATOM      9  C   UNL     1       0.703   8.488  20.975  0.00  0.00    +0.000 A 
ATOM     10  C   UNL     1       1.183   7.196  21.144  0.00  0.00    +0.000 A 
ATOM     11  C   UNL     1       2.030   6.581  20.203  0.00  0.00    +0.000 A 
ATOM     12  H   UNL     1       0.509  10.863  17.727  0.00  0.00    +0.000 HD
ENDROOT
BRANCH   5  13
ATOM     13  C   UNL     1       1.211  12.630  18.462  0.00  0.00    +0.000 A 
ATOM     14  C   UNL     1       0.252  13.595  18.798  0.00  0.00    +0.000 A 
ATOM     15  C   UNL     1       0.585  14.951  18.858  0.00  0.00    +0.000 A 
ATOM     16  C   UNL     1       1.889  15.364  18.584  0.00  0.00    +0.000 A 
ATOM     17  C   UNL     1       2.850  14.419  18.229  0.00  0.00    +0.000 A 
ATOM     18 CL   UNL     1       4.458  14.939  17.890  0.00  0.00    +0.000 Cl
ATOM     19  C   UNL     1       2.512  13.067  18.175  0.00  0.00    +0.000 A 
ATOM     20  F   UNL     1       3.443  12.150  17.858  0.00  0.00    +0.000 F 
ENDBRANCH   5  13
BRANCH  11  21
ATOM     21  O   UNL     1       2.458   5.327  20.569  0.00  0.00    +0.000 OA
ATOM     22  C   UNL     1       1.414   4.352  20.583  0.00  0.00    +0.000 C 
ENDBRANCH  11  21
BRANCH   1  23
ATOM     23  O   UNL     1       3.088   6.558  18.055  0.00  0.00    +0.000 OA
BRANCH  23  27
ATOM     24  N   UNL     1       5.516   4.902  15.873  0.00  0.00    +0.000 NA
ATOM     25  C   UNL     1       5.305   6.363  15.821  0.00  0.00    +0.000 C 
ATOM     26  C   UNL     1       5.321   7.067  17.178  0.00  0.00    +0.000 C 
ATOM     27  C   UNL     1       4.502   6.375  18.266  0.00  0.00    +0.000 C 
ATOM     28  C   UNL     1       4.837   4.889  18.291  0.00  0.00    +0.000 C 
ATOM     29  C   UNL     1       4.674   4.269  16.906  0.00  0.00    +0.000 C 
BRANCH  24  30
ATOM     30  C   UNL     1       5.119   4.292  14.562  0.00  0.00    +0.000 C 
BRANCH  30  33
ATOM     31  C   UNL     1       7.035   2.845  11.603  0.00  0.00    +0.000 C 
ATOM     32  N   UNL     1       6.084   3.078  12.657  0.00  0.00    +0.000 N 
ATOM     33  C   UNL     1       6.272   4.080  13.580  0.00  0.00    +0.000 C 
ATOM     34  O   UNL     1       7.255   4.820  13.573  0.00  0.00    +0.000 OA
ATOM     35  H   UNL     1       5.235   2.527  12.739  0.00  0.00    +0.000 HD
ENDBRANCH  30  33
ENDBRANCH  24  30
ENDBRANCH  23  27
ENDBRANCH   1  23
TORSDOF 6
ENDMDL
MODEL 2
REMARK VINA RESULT:      -7.8      1.254      1.506
REMARK  Name = 
REMARK  8 active torsions:
REMARK  status: ('A' for Active; 'I' for Inactive)
REMARK    1  A    between atoms: C_1  and  N_2
REMARK    2  A    between atoms: C_3  and  C_5
REMARK    3  A    between atoms: C_5  and  N_6
REMARK    4  A    between atoms: C_9  and  O_10
REMARK    5  A    between atoms: O_10  and  C_11
REMARK    6  A    between atoms: N_15  and  C_16
REMARK    7  A    between atoms: C_29  and  O_30
REMARK    8  A    between atoms: O_30  and  C_31
REMARK                            x       y       z     vdW  Elec       q    Type
REMARK                         _______ _______ _______ _____ _____    ______ ____
ROOT
ATOM      1  C   UNL     1       2.641   6.907  18.709  0.00  0.00    +0.000 A 
ATOM      2  C   UNL     1       2.219   8.235  18.656  0.00  0.00    +0.000 A 
ATOM      3  C   UNL     1       1.423   8.819  19.679  0.00  0.00    +0.000 A 
ATOM      4  C   UNL     1       1.024  10.165  19.688  0.00  0.00    +0.000 A 
ATOM      5  N   UNL     1       1.381  10.995  18.600  0.00  0.00    +0.000 N 
ATOM      6  N   UNL     1       0.311  10.697  20.699  0.00  0.00    +0.000 NA
ATOM      7  C   UNL     1      -0.029   9.862  21.682  0.00  0.00    +0.000 A 
ATOM      8  N   UNL     1       0.297   8.564  21.770  0.00  0.00    +0.000 NA
ATOM      9  C   UNL     1       1.037   8.056  20.779  0.00  0.00    +0.000 A 
ATOM     10  C   UNL     1       1.466   6.737  20.838  0.00  0.00    +0.000 A 
ATOM     11  C   UNL     1       2.287   6.169  19.845  0.00  0.00    +0.000 A 
ATOM     12  H   UNL     1       0.931  10.697  17.738  0.00  0.00    +0.000 HD
ENDROOT
BRANCH   5  13
ATOM     13  C   UNL     1       1.702  12.368  18.613  0.00  0.00    +0.000 A 
ATOM     14  C   UNL     1       3.011  12.822  18.402  0.00  0.00    +0.000 A 
ATOM     15  C   UNL     1       3.283  14.185  18.246  0.00  0.00    +0.000 A 
ATOM     16  C   UNL     1       2.247  15.117  18.299  0.00  0.00    +0.000 A 
ATOM     17  C   UNL     1       0.943  14.683  18.529  0.00  0.00    +0.000 A 
ATOM     18 CL   UNL     1      -0.331  15.842  18.594  0.00  0.00    +0.000 Cl
ATOM     19  C   UNL     1       0.676  13.322  18.678  0.00  0.00    +0.000 A 
ATOM     20  F   UNL     1      -0.585  12.898  18.875  0.00  0.00    +0.000 F 
ENDBRANCH   5  13
BRANCH  11  21
ATOM     21  O   UNL     1       2.665   4.873  20.105  0.00  0.00    +0.000 OA
ATOM     22  C   UNL     1       1.570   4.015  20.428  0.00  0.00    +0.000 C 
ENDBRANCH  11  21
BRANCH   1  23
ATOM     23  O   UNL     1       3.339   6.282  17.697  0.00  0.00    +0.000 OA
BRANCH  23  27
ATOM     24  N   UNL     1       5.698   4.741  15.361  0.00  0.00    +0.000 NA
ATOM     25  C   UNL     1       5.446   6.196  15.353  0.00  0.00    +0.000 C 
ATOM     26  C   UNL     1       5.511   6.871  16.723  0.00  0.00    +0.000 C 
ATOM     27  C   UNL     1       4.766   6.133  17.834  0.00  0.00    +0.000 C 
ATOM     28  C   UNL     1       5.141   4.657  17.808  0.00  0.00    +0.000 C 
ATOM     29  C   UNL     1       4.925   4.063  16.419  0.00  0.00    +0.000 C 
BRANCH  24  30
ATOM     30  C   UNL     1       5.252   4.149  14.057  0.00  0.00    +0.000 C 
BRANCH  30  33
ATOM     31  C   UNL     1       7.162   2.323  11.312  0.00  0.00    +0.000 C 
ATOM     32  N   UNL     1       6.234   2.680  12.351  0.00  0.00    +0.000 N 
ATOM     33  C   UNL     1       6.383   3.839  13.075  0.00  0.00    +0.000 C 
ATOM     34  O   UNL     1       7.312   4.625  12.895  0.00  0.00    +0.000 OA
ATOM     35  H   UNL     1       5.428   2.100  12.567  0.00  0.00    +0.000 HD
ENDBRANCH  30  33
ENDBRANCH  24  30
ENDBRANCH  23  27
ENDBRANCH   1  23
TORSDOF 6
ENDMDL
MODEL 3
REMARK VINA RESULT:      -7.8      4.944      9.565
REMARK  Name = 
REMARK  8 active torsions:
REMARK  status: ('A' for Active; 'I' for Inactive)
REMARK    1  A    between atoms: C_1  and  N_2
REMARK    2  A    between atoms: C_3  and  C_5
REMARK    3  A    between atoms: C_5  and  N_6
REMARK    4  A    between atoms: C_9  and  O_10
REMARK    5  A    between atoms: O_10  and  C_11
REMARK    6  A    between atoms: N_15  and  C_16
REMARK    7  A    between atoms: C_29  and  O_30
REMARK    8  A    between atoms: O_30  and  C_31
REMARK                            x       y       z     vdW  Elec       q    Type
REMARK                         _______ _______ _______ _____ _____    ______ ____
ROOT
ATOM      1  C   UNL     1      -0.958  10.789  18.785  0.00  0.00    +0.000 A 
ATOM      2  C   UNL     1      -0.019   9.809  19.104  0.00  0.00    +0.000 A 
ATOM      3  C   UNL     1       0.473   9.633  20.426  0.00  0.00    +0.000 A 
ATOM      4  C   UNL     1       1.377   8.624  20.796  0.00  0.00    +0.000 A 
ATOM      5  N   UNL     1       1.879   7.752  19.804  0.00  0.00    +0.000 N 
ATOM      6  N   UNL     1       1.784   8.456  22.069  0.00  0.00    +0.000 NA
ATOM      7  C   UNL     1       1.308   9.327  22.959  0.00  0.00    +0.000 A 
ATOM      8  N   UNL     1       0.446  10.325  22.712  0.00  0.00    +0.000 NA
ATOM      9  C   UNL     1       0.019  10.459  21.451  0.00  0.00    +0.000 A 
ATOM     10  C   UNL     1      -0.924  11.428  21.137  0.00  0.00    +0.000 A 
ATOM     11  C   UNL     1      -1.441  11.578  19.836  0.00  0.00    +0.000 A 
ATOM     12  H   UNL     1       2.455   8.247  19.127  0.00  0.00    +0.000 HD
ENDROOT
BRANCH   5  13
ATOM     13  C   UNL     1       2.210   6.386  19.921  0.00  0.00    +0.000 A 
ATOM     14  C   UNL     1       1.449   5.507  20.702  0.00  0.00    +0.000 A 
ATOM     15  C   UNL     1       1.685   4.129  20.671  0.00  0.00    +0.000 A 
ATOM     16  C   UNL     1       2.690   3.609  19.856  0.00  0.00    +0.000 A 
ATOM     17  C   UNL     1       3.470   4.472  19.089  0.00  0.00    +0.000 A 
ATOM     18 CL   UNL     1       4.710   3.821  18.086  0.00  0.00    +0.000 Cl
ATOM     19  C   UNL     1       3.226   5.846  19.119  0.00  0.00    +0.000 A 
ATOM     20  F   UNL     1       3.960   6.679  18.361  0.00  0.00    +0.000 F 
ENDBRANCH   5  13
BRANCH  11  21
ATOM     21  O   UNL     1      -2.413  12.545  19.728  0.00  0.00    +0.000 OA
ATOM     22  C   UNL     1      -2.118  13.732  20.464  0.00  0.00    +0.000 C 
ENDBRANCH  11  21
BRANCH   1  23
ATOM     23  O   UNL     1      -1.393  11.048  17.501  0.00  0.00    +0.000 OA
BRANCH  23  27
ATOM     24  N   UNL     1      -4.951  11.156  16.651  0.00  0.00    +0.000 NA
ATOM     25  C   UNL     1      -3.915  11.567  15.682  0.00  0.00    +0.000 C 
ATOM     26  C   UNL     1      -2.757  10.582  15.517  0.00  0.00    +0.000 C 
ATOM     27  C   UNL     1      -2.183  10.048  16.828  0.00  0.00    +0.000 C 
ATOM     28  C   UNL     1      -3.317   9.584  17.732  0.00  0.00    +0.000 C 
ATOM     29  C   UNL     1      -4.354  10.689  17.917  0.00  0.00    +0.000 C 
BRANCH  24  30
ATOM     30  C   UNL     1      -5.813  12.335  16.991  0.00  0.00    +0.000 C 
BRANCH  30  33
ATOM     31  C   UNL     1      -5.862  13.632  20.573  0.00  0.00    +0.000 C 
ATOM     32  N   UNL     1      -5.514  13.355  19.205  0.00  0.00    +0.000 N 
ATOM     33  C   UNL     1      -6.213  12.432  18.463  0.00  0.00    +0.000 C 
ATOM     34  O   UNL     1      -7.154  11.784  18.918  0.00  0.00    +0.000 OA
ATOM     35  H   UNL     1      -4.758  13.848  18.738  0.00  0.00    +0.000 HD
ENDBRANCH  30  33
ENDBRANCH  24  30
ENDBRANCH  23  27
ENDBRANCH   1  23
TORSDOF 6
ENDMDL
MODEL 4
REMARK VINA RESULT:      -7.6      5.160      8.453
REMARK  Name = 
REMARK  8 active torsions:
REMARK  status: ('A' for Active; 'I' for Inactive)
REMARK    1  A    between atoms: C_1  and  N_2
REMARK    2  A    between atoms: C_3  and  C_5
REMARK    3  A    between atoms: C_5  and  N_6
REMARK    4  A    between atoms: C_9  and  O_10
REMARK    5  A    between atoms: O_10  and  C_11
REMARK    6  A    between atoms: N_15  and  C_16
REMARK    7  A    between atoms: C_29  and  O_30
REMARK    8  A    between atoms: O_30  and  C_31
REMARK                            x       y       z     vdW  Elec       q    Type
REMARK                         _______ _______ _______ _____ _____    ______ ____
ROOT
ATOM      1  C   UNL     1      -1.653  11.091  19.405  0.00  0.00    +0.000 A 
ATOM      2  C   UNL     1      -0.587  10.195  19.473  0.00  0.00    +0.000 A 
ATOM      3  C   UNL     1       0.117   9.945  20.683  0.00  0.00    +0.000 A 
ATOM      4  C   UNL     1       1.160   9.012  20.802  0.00  0.00    +0.000 A 
ATOM      5  N   UNL     1       1.586   8.305  19.654  0.00  0.00    +0.000 N 
ATOM      6  N   UNL     1       1.772   8.765  21.976  0.00  0.00    +0.000 NA
ATOM      7  C   UNL     1       1.357   9.485  23.019  0.00  0.00    +0.000 A 
ATOM      8  N   UNL     1       0.375  10.399  23.013  0.00  0.00    +0.000 NA
ATOM      9  C   UNL     1      -0.251  10.608  21.850  0.00  0.00    +0.000 A 
ATOM     10  C   UNL     1      -1.320  11.492  21.787  0.00  0.00    +0.000 A 
ATOM     11  C   UNL     1      -2.043  11.711  20.598  0.00  0.00    +0.000 A 
ATOM     12  H   UNL     1       2.001   8.926  18.964  0.00  0.00    +0.000 HD
ENDROOT
BRANCH   5  13
ATOM     13  C   UNL     1       2.061   6.980  19.566  0.00  0.00    +0.000 A 
ATOM     14  C   UNL     1       1.671   5.993  20.481  0.00  0.00    +0.000 A 
ATOM     15  C   UNL     1       2.011   4.652  20.281  0.00  0.00    +0.000 A 
ATOM     16  C   UNL     1       2.748   4.276  19.158  0.00  0.00    +0.000 A 
ATOM     17  C   UNL     1       3.160   5.248  18.248  0.00  0.00    +0.000 A 
ATOM     18 CL   UNL     1       4.071   4.775  16.865  0.00  0.00    +0.000 Cl
ATOM     19  C   UNL     1       2.814   6.585  18.450  0.00  0.00    +0.000 A 
ATOM     20  F   UNL     1       3.188   7.522  17.562  0.00  0.00    +0.000 F 
ENDBRANCH   5  13
BRANCH  11  21
ATOM     21  O   UNL     1      -3.108  12.569  20.741  0.00  0.00    +0.000 OA
ATOM     22  C   UNL     1      -2.855  13.644  21.646  0.00  0.00    +0.000 C 
ENDBRANCH  11  21
BRANCH   1  23
ATOM     23  O   UNL     1      -2.303  11.425  18.235  0.00  0.00    +0.000 OA
BRANCH  23  27
ATOM     24  N   UNL     1      -3.783  10.115  15.154  0.00  0.00    +0.000 NA
ATOM     25  C   UNL     1      -3.178   9.218  16.160  0.00  0.00    +0.000 C 
ATOM     26  C   UNL     1      -3.630   9.463  17.600  0.00  0.00    +0.000 C 
ATOM     27  C   UNL     1      -3.640  10.930  18.025  0.00  0.00    +0.000 C 
ATOM     28  C   UNL     1      -4.344  11.765  16.963  0.00  0.00    +0.000 C 
ATOM     29  C   UNL     1      -3.732  11.525  15.586  0.00  0.00    +0.000 C 
BRANCH  24  30
ATOM     30  C   UNL     1      -3.006  10.028  13.875  0.00  0.00    +0.000 C 
BRANCH  30  33
ATOM     31  C   UNL     1      -6.105   9.356  11.762  0.00  0.00    +0.000 C 
ATOM     32  N   UNL     1      -5.194   9.579  12.853  0.00  0.00    +0.000 N 
ATOM     33  C   UNL     1      -3.838   9.662  12.645  0.00  0.00    +0.000 C 
ATOM     34  O   UNL     1      -3.322   9.536  11.535  0.00  0.00    +0.000 OA
ATOM     35  H   UNL     1      -5.525   9.706  13.805  0.00  0.00    +0.000 HD
ENDBRANCH  30  33
ENDBRANCH  24  30
ENDBRANCH  23  27
ENDBRANCH   1  23
TORSDOF 6
ENDMDL
MODEL 5
REMARK VINA RESULT:      -7.5      5.158      9.576
REMARK  Name = 
REMARK  8 active torsions:
REMARK  status: ('A' for Active; 'I' for Inactive)
REMARK    1  A    between atoms: C_1  and  N_2
REMARK    2  A    between atoms: C_3  and  C_5
REMARK    3  A    between atoms: C_5  and  N_6
REMARK    4  A    between atoms: C_9  and  O_10
REMARK    5  A    between atoms: O_10  and  C_11
REMARK    6  A    between atoms: N_15  and  C_16
REMARK    7  A    between atoms: C_29  and  O_30
REMARK    8  A    between atoms: O_30  and  C_31
REMARK                            x       y       z     vdW  Elec       q    Type
REMARK                         _______ _______ _______ _____ _____    ______ ____
ROOT
ATOM      1  C   UNL     1      -1.388  11.309  19.040  0.00  0.00    +0.000 A 
ATOM      2  C   UNL     1      -0.349  10.390  19.180  0.00  0.00    +0.000 A 
ATOM      3  C   UNL     1       0.201  10.055  20.448  0.00  0.00    +0.000 A 
ATOM      4  C   UNL     1       1.210   9.097  20.635  0.00  0.00    +0.000 A 
ATOM      5  N   UNL     1       1.762   8.449  19.505  0.00  0.00    +0.000 N 
ATOM      6  N   UNL     1       1.674   8.769  21.856  0.00  0.00    +0.000 NA
ATOM      7  C   UNL     1       1.145   9.435  22.884  0.00  0.00    +0.000 A 
ATOM      8  N   UNL     1       0.183  10.368  22.816  0.00  0.00    +0.000 NA
ATOM      9  C   UNL     1      -0.296  10.657  21.601  0.00  0.00    +0.000 A 
ATOM     10  C   UNL     1      -1.338  11.564  21.464  0.00  0.00    +0.000 A 
ATOM     11  C   UNL     1      -1.910  11.867  20.213  0.00  0.00    +0.000 A 
ATOM     12  H   UNL     1       2.265   9.101  18.908  0.00  0.00    +0.000 HD
ENDROOT
BRANCH   5  13
ATOM     13  C   UNL     1       2.226   7.122  19.394  0.00  0.00    +0.000 A 
ATOM     14  C   UNL     1       3.331   6.791  18.600  0.00  0.00    +0.000 A 
ATOM     15  C   UNL     1       3.884   5.507  18.635  0.00  0.00    +0.000 A 
ATOM     16  C   UNL     1       3.337   4.532  19.469  0.00  0.00    +0.000 A 
ATOM     17  C   UNL     1       2.225   4.840  20.251  0.00  0.00    +0.000 A 
ATOM     18 CL   UNL     1       1.556   3.629  21.277  0.00  0.00    +0.000 Cl
ATOM     19  C   UNL     1       1.681   6.124  20.215  0.00  0.00    +0.000 A 
ATOM     20  F   UNL     1       0.624   6.432  20.987  0.00  0.00    +0.000 F 
ENDBRANCH   5  13
BRANCH  11  21
ATOM     21  O   UNL     1      -2.973  12.736  20.279  0.00  0.00    +0.000 OA
ATOM     22  C   UNL     1      -2.734  13.864  21.121  0.00  0.00    +0.000 C 
ENDBRANCH  11  21
BRANCH   1  23
ATOM     23  O   UNL     1      -1.888  11.724  17.823  0.00  0.00    +0.000 OA
BRANCH  23  27
ATOM     24  N   UNL     1      -5.395  10.747  17.447  0.00  0.00    +0.000 NA
ATOM     25  C   UNL     1      -4.781  11.765  16.572  0.00  0.00    +0.000 C 
ATOM     26  C   UNL     1      -3.439  11.367  15.958  0.00  0.00    +0.000 C 
ATOM     27  C   UNL     1      -2.452  10.736  16.938  0.00  0.00    +0.000 C 
ATOM     28  C   UNL     1      -3.154   9.653  17.746  0.00  0.00    +0.000 C 
ATOM     29  C   UNL     1      -4.417  10.197  18.406  0.00  0.00    +0.000 C 
BRANCH  24  30
ATOM     30  C   UNL     1      -6.486  11.377  18.260  0.00  0.00    +0.000 C 
BRANCH  30  33
ATOM     31  C   UNL     1      -7.642   8.440  20.393  0.00  0.00    +0.000 C 
ATOM     32  N   UNL     1      -7.344   9.324  19.298  0.00  0.00    +0.000 N 
ATOM     33  C   UNL     1      -6.880  10.599  19.515  0.00  0.00    +0.000 C 
ATOM     34  O   UNL     1      -6.708  11.065  20.641  0.00  0.00    +0.000 OA
ATOM     35  H   UNL     1      -7.444   9.026  18.331  0.00  0.00    +0.000 HD
ENDBRANCH  30  33
ENDBRANCH  24  30
ENDBRANCH  23  27
ENDBRANCH   1  23
TORSDOF 6
ENDMDL
MODEL 6
REMARK VINA RESULT:      -7.4      5.094      9.684
REMARK  Name = 
REMARK  8 active torsions:
REMARK  status: ('A' for Active; 'I' for Inactive)
REMARK    1  A    between atoms: C_1  and  N_2
REMARK    2  A    between atoms: C_3  and  C_5
REMARK    3  A    between atoms: C_5  and  N_6
REMARK    4  A    between atoms: C_9  and  O_10
REMARK    5  A    between atoms: O_10  and  C_11
REMARK    6  A    between atoms: N_15  and  C_16
REMARK    7  A    between atoms: C_29  and  O_30
REMARK    8  A    between atoms: O_30  and  C_31
REMARK                            x       y       z     vdW  Elec       q    Type
REMARK                         _______ _______ _______ _____ _____    ______ ____
ROOT
ATOM      1  C   UNL     1      -0.929  10.742  18.886  0.00  0.00    +0.000 A 
ATOM      2  C   UNL     1       0.063   9.787  19.106  0.00  0.00    +0.000 A 
ATOM      3  C   UNL     1       0.620   9.556  20.394  0.00  0.00    +0.000 A 
ATOM      4  C   UNL     1       1.580   8.569  20.665  0.00  0.00    +0.000 A 
ATOM      5  N   UNL     1       2.074   7.779  19.602  0.00  0.00    +0.000 N 
ATOM      6  N   UNL     1       2.050   8.345  21.907  0.00  0.00    +0.000 NA
ATOM      7  C   UNL     1       1.577   9.141  22.867  0.00  0.00    +0.000 A 
ATOM      8  N   UNL     1       0.665  10.112  22.717  0.00  0.00    +0.000 NA
ATOM      9  C   UNL     1       0.178  10.300  21.485  0.00  0.00    +0.000 A 
ATOM     10  C   UNL     1      -0.818  11.243  21.269  0.00  0.00    +0.000 A 
ATOM     11  C   UNL     1      -1.398  11.446  20.002  0.00  0.00    +0.000 A 
ATOM     12  H   UNL     1       2.599   8.338  18.933  0.00  0.00    +0.000 HD
ENDROOT
BRANCH   5  13
ATOM     13  C   UNL     1       2.466   6.424  19.623  0.00  0.00    +0.000 A 
ATOM     14  C   UNL     1       3.704   6.006  19.117  0.00  0.00    +0.000 A 
ATOM     15  C   UNL     1       4.149   4.693  19.300  0.00  0.00    +0.000 A 
ATOM     16  C   UNL     1       3.361   3.777  19.995  0.00  0.00    +0.000 A 
ATOM     17  C   UNL     1       2.118   4.172  20.488  0.00  0.00    +0.000 A 
ATOM     18 CL   UNL     1       1.150   3.032  21.344  0.00  0.00    +0.000 Cl
ATOM     19  C   UNL     1       1.681   5.484  20.306  0.00  0.00    +0.000 A 
ATOM     20  F   UNL     1       0.494   5.876  20.801  0.00  0.00    +0.000 F 
ENDBRANCH   5  13
BRANCH  11  21
ATOM     21  O   UNL     1      -2.413  12.373  19.992  0.00  0.00    +0.000 OA
ATOM     22  C   UNL     1      -1.963  13.710  20.215  0.00  0.00    +0.000 C 
ENDBRANCH  11  21
BRANCH   1  23
ATOM     23  O   UNL     1      -1.431  11.055  17.640  0.00  0.00    +0.000 OA
BRANCH  23  27
ATOM     24  N   UNL     1      -4.959  11.169  16.673  0.00  0.00    +0.000 NA
ATOM     25  C   UNL     1      -3.892  11.583  15.741  0.00  0.00    +0.000 C 
ATOM     26  C   UNL     1      -2.729  10.599  15.610  0.00  0.00    +0.000 C 
ATOM     27  C   UNL     1      -2.199  10.059  16.936  0.00  0.00    +0.000 C 
ATOM     28  C   UNL     1      -3.362   9.591  17.801  0.00  0.00    +0.000 C 
ATOM     29  C   UNL     1      -4.404  10.696  17.956  0.00  0.00    +0.000 C 
BRANCH  24  30
ATOM     30  C   UNL     1      -5.832  12.346  16.990  0.00  0.00    +0.000 C 
BRANCH  30  33
ATOM     31  C   UNL     1      -5.763  13.701  20.551  0.00  0.00    +0.000 C 
ATOM     32  N   UNL     1      -5.449  13.385  19.183  0.00  0.00    +0.000 N 
ATOM     33  C   UNL     1      -6.205  12.487  18.466  0.00  0.00    +0.000 C 
ATOM     34  O   UNL     1      -7.172  11.896  18.944  0.00  0.00    +0.000 OA
ATOM     35  H   UNL     1      -4.676  13.830  18.697  0.00  0.00    +0.000 HD
ENDBRANCH  30  33
ENDBRANCH  24  30
ENDBRANCH  23  27
ENDBRANCH   1  23
TORSDOF 6
ENDMDL
MODEL 7
REMARK VINA RESULT:      -7.3      5.194      8.825
REMARK  Name = 
REMARK  8 active torsions:
REMARK  status: ('A' for Active; 'I' for Inactive)
REMARK    1  A    between atoms: C_1  and  N_2
REMARK    2  A    between atoms: C_3  and  C_5
REMARK    3  A    between atoms: C_5  and  N_6
REMARK    4  A    between atoms: C_9  and  O_10
REMARK    5  A    between atoms: O_10  and  C_11
REMARK    6  A    between atoms: N_15  and  C_16
REMARK    7  A    between atoms: C_29  and  O_30
REMARK    8  A    between atoms: O_30  and  C_31
REMARK                            x       y       z     vdW  Elec       q    Type
REMARK                         _______ _______ _______ _____ _____    ______ ____
ROOT
ATOM      1  C   UNL     1      -0.634  10.436  18.563  0.00  0.00    +0.000 A 
ATOM      2  C   UNL     1      -1.144  10.881  19.781  0.00  0.00    +0.000 A 
ATOM      3  C   UNL     1      -0.589  10.480  21.028  0.00  0.00    +0.000 A 
ATOM      4  C   UNL     1      -1.041  10.947  22.272  0.00  0.00    +0.000 A 
ATOM      5  N   UNL     1      -2.143  11.832  22.316  0.00  0.00    +0.000 N 
ATOM      6  N   UNL     1      -0.460  10.584  23.431  0.00  0.00    +0.000 NA
ATOM      7  C   UNL     1       0.553   9.720  23.335  0.00  0.00    +0.000 A 
ATOM      8  N   UNL     1       1.059   9.211  22.202  0.00  0.00    +0.000 NA
ATOM      9  C   UNL     1       0.498   9.610  21.055  0.00  0.00    +0.000 A 
ATOM     10  C   UNL     1       1.014   9.175  19.842  0.00  0.00    +0.000 A 
ATOM     11  C   UNL     1       0.490   9.602  18.607  0.00  0.00    +0.000 A 
ATOM     12  H   UNL     1      -2.996  11.384  21.991  0.00  0.00    +0.000 HD
ENDROOT
BRANCH   5  13
ATOM     13  C   UNL     1      -2.380  12.895  23.213  0.00  0.00    +0.000 A 
ATOM     14  C   UNL     1      -3.478  12.895  24.083  0.00  0.00    +0.000 A 
ATOM     15  C   UNL     1      -3.605  13.866  25.081  0.00  0.00    +0.000 A 
ATOM     16  C   UNL     1      -2.631  14.855  25.223  0.00  0.00    +0.000 A 
ATOM     17  C   UNL     1      -1.543  14.880  24.353  0.00  0.00    +0.000 A 
ATOM     18 CL   UNL     1      -0.346  16.106  24.536  0.00  0.00    +0.000 Cl
ATOM     19  C   UNL     1      -1.419  13.906  23.362  0.00  0.00    +0.000 A 
ATOM     20  F   UNL     1      -0.358  13.912  22.536  0.00  0.00    +0.000 F 
ENDBRANCH   5  13
BRANCH  11  21
ATOM     21  O   UNL     1       1.169   9.119  17.513  0.00  0.00    +0.000 OA
ATOM     22  C   UNL     1       2.334   8.368  17.854  0.00  0.00    +0.000 C 
ENDBRANCH  11  21
BRANCH   1  23
ATOM     23  O   UNL     1      -1.198  10.733  17.339  0.00  0.00    +0.000 OA
BRANCH  23  27
ATOM     24  N   UNL     1      -4.756  11.147  16.588  0.00  0.00    +0.000 NA
ATOM     25  C   UNL     1      -3.719  11.398  15.567  0.00  0.00    +0.000 C 
ATOM     26  C   UNL     1      -2.669  10.296  15.427  0.00  0.00    +0.000 C 
ATOM     27  C   UNL     1      -2.105   9.781  16.749  0.00  0.00    +0.000 C 
ATOM     28  C   UNL     1      -3.247   9.484  17.712  0.00  0.00    +0.000 C 
ATOM     29  C   UNL     1      -4.163  10.695  17.861  0.00  0.00    +0.000 C 
BRANCH  24  30
ATOM     30  C   UNL     1      -5.486  12.423  16.883  0.00  0.00    +0.000 C 
BRANCH  30  33
ATOM     31  C   UNL     1      -6.415  13.618  20.380  0.00  0.00    +0.000 C 
ATOM     32  N   UNL     1      -5.757  13.403  19.119  0.00  0.00    +0.000 N 
ATOM     33  C   UNL     1      -6.204  12.452  18.232  0.00  0.00    +0.000 C 
ATOM     34  O   UNL     1      -7.171  11.726  18.462  0.00  0.00    +0.000 OA
ATOM     35  H   UNL     1      -4.956  13.960  18.834  0.00  0.00    +0.000 HD
ENDBRANCH  30  33
ENDBRANCH  24  30
ENDBRANCH  23  27
ENDBRANCH   1  23
TORSDOF 6
ENDMDL
MODEL 8
REMARK VINA RESULT:      -7.3      6.131     10.249
REMARK  Name = 
REMARK  8 active torsions:
REMARK  status: ('A' for Active; 'I' for Inactive)
REMARK    1  A    between atoms: C_1  and  N_2
REMARK    2  A    between atoms: C_3  and  C_5
REMARK    3  A    between atoms: C_5  and  N_6
REMARK    4  A    between atoms: C_9  and  O_10
REMARK    5  A    between atoms: O_10  and  C_11
REMARK    6  A    between atoms: N_15  and  C_16
REMARK    7  A    between atoms: C_29  and  O_30
REMARK    8  A    between atoms: O_30  and  C_31
REMARK                            x       y       z     vdW  Elec       q    Type
REMARK                         _______ _______ _______ _____ _____    ______ ____
ROOT
ATOM      1  C   UNL     1      -3.062  12.852  22.860  0.00  0.00    +0.000 A 
ATOM      2  C   UNL     1      -2.204  12.357  21.879  0.00  0.00    +0.000 A 
ATOM      3  C   UNL     1      -0.893  12.873  21.688  0.00  0.00    +0.000 A 
ATOM      4  C   UNL     1       0.018  12.366  20.747  0.00  0.00    +0.000 A 
ATOM      5  N   UNL     1      -0.388  11.314  19.895  0.00  0.00    +0.000 N 
ATOM      6  N   UNL     1       1.269  12.847  20.627  0.00  0.00    +0.000 NA
ATOM      7  C   UNL     1       1.589  13.863  21.431  0.00  0.00    +0.000 A 
ATOM      8  N   UNL     1       0.797  14.423  22.358  0.00  0.00    +0.000 NA
ATOM      9  C   UNL     1      -0.431  13.911  22.494  0.00  0.00    +0.000 A 
ATOM     10  C   UNL     1      -1.281  14.397  23.479  0.00  0.00    +0.000 A 
ATOM     11  C   UNL     1      -2.564  13.860  23.695  0.00  0.00    +0.000 A 
ATOM     12  H   UNL     1      -1.128  11.608  19.263  0.00  0.00    +0.000 HD
ENDROOT
BRANCH   5  13
ATOM     13  C   UNL     1       0.384  10.248  19.388  0.00  0.00    +0.000 A 
ATOM     14  C   UNL     1       1.051  10.337  18.160  0.00  0.00    +0.000 A 
ATOM     15  C   UNL     1       1.947   9.344  17.754  0.00  0.00    +0.000 A 
ATOM     16  C   UNL     1       2.192   8.243  18.574  0.00  0.00    +0.000 A 
ATOM     17  C   UNL     1       1.521   8.129  19.790  0.00  0.00    +0.000 A 
ATOM     18 CL   UNL     1       1.828   6.764  20.796  0.00  0.00    +0.000 Cl
ATOM     19  C   UNL     1       0.631   9.125  20.193  0.00  0.00    +0.000 A 
ATOM     20  F   UNL     1       0.002   9.031  21.377  0.00  0.00    +0.000 F 
ENDBRANCH   5  13
BRANCH  11  21
ATOM     21  O   UNL     1      -3.235  14.423  24.755  0.00  0.00    +0.000 OA
ATOM     22  C   UNL     1      -2.407  15.237  25.585  0.00  0.00    +0.000 C 
ENDBRANCH  11  21
BRANCH   1  23
ATOM     23  O   UNL     1      -4.369  12.438  23.019  0.00  0.00    +0.000 OA
BRANCH  23  27
ATOM     24  N   UNL     1      -6.931  12.413  20.405  0.00  0.00    +0.000 NA
ATOM     25  C   UNL     1      -7.189  11.840  21.742  0.00  0.00    +0.000 C 
ATOM     26  C   UNL     1      -6.800  12.738  22.917  0.00  0.00    +0.000 C 
ATOM     27  C   UNL     1      -5.426  13.392  22.792  0.00  0.00    +0.000 C 
ATOM     28  C   UNL     1      -5.278  14.014  21.410  0.00  0.00    +0.000 C 
ATOM     29  C   UNL     1      -5.577  12.993  20.317  0.00  0.00    +0.000 C 
BRANCH  24  30
ATOM     30  C   UNL     1      -7.002  11.327  19.374  0.00  0.00    +0.000 C 
BRANCH  30  33
ATOM     31  C   UNL     1      -4.493  11.225  16.508  0.00  0.00    +0.000 C 
ATOM     32  N   UNL     1      -5.152  11.075  17.778  0.00  0.00    +0.000 N 
ATOM     33  C   UNL     1      -6.362  11.678  18.031  0.00  0.00    +0.000 C 
ATOM     34  O   UNL     1      -6.942  12.384  17.207  0.00  0.00    +0.000 OA
ATOM     35  H   UNL     1      -4.758  10.502  18.518  0.00  0.00    +0.000 HD
ENDBRANCH  30  33
ENDBRANCH  24  30
ENDBRANCH  23  27
ENDBRANCH   1  23
TORSDOF 6
ENDMDL
MODEL 9
REMARK VINA RESULT:      -7.2      4.548      7.030
REMARK  Name = 
REMARK  8 active torsions:
REMARK  status: ('A' for Active; 'I' for Inactive)
REMARK    1  A    between atoms: C_1  and  N_2
REMARK    2  A    between atoms: C_3  and  C_5
REMARK    3  A    between atoms: C_5  and  N_6
REMARK    4  A    between atoms: C_9  and  O_10
REMARK    5  A    between atoms: O_10  and  C_11
REMARK    6  A    between atoms: N_15  and  C_16
REMARK    7  A    between atoms: C_29  and  O_30
REMARK    8  A    between atoms: O_30  and  C_31
REMARK                            x       y       z     vdW  Elec       q    Type
REMARK                         _______ _______ _______ _____ _____    ______ ____
ROOT
ATOM      1  C   UNL     1       1.109  12.285  20.635  0.00  0.00    +0.000 A 
ATOM      2  C   UNL     1      -0.020  12.333  21.451  0.00  0.00    +0.000 A 
ATOM      3  C   UNL     1      -0.322  13.461  22.262  0.00  0.00    +0.000 A 
ATOM      4  C   UNL     1      -1.475  13.568  23.056  0.00  0.00    +0.000 A 
ATOM      5  N   UNL     1      -2.379  12.482  23.107  0.00  0.00    +0.000 N 
ATOM      6  N   UNL     1      -1.754  14.673  23.774  0.00  0.00    +0.000 NA
ATOM      7  C   UNL     1      -0.851  15.653  23.719  0.00  0.00    +0.000 A 
ATOM      8  N   UNL     1       0.280  15.652  22.998  0.00  0.00    +0.000 NA
ATOM      9  C   UNL     1       0.527  14.565  22.259  0.00  0.00    +0.000 A 
ATOM     10  C   UNL     1       1.645  14.523  21.437  0.00  0.00    +0.000 A 
ATOM     11  C   UNL     1       1.924  13.423  20.605  0.00  0.00    +0.000 A 
ATOM     12  H   UNL     1      -1.957  11.664  23.541  0.00  0.00    +0.000 HD
ENDROOT
BRANCH   5  13
ATOM     13  C   UNL     1      -3.784  12.514  23.229  0.00  0.00    +0.000 A 
ATOM     14  C   UNL     1      -4.420  12.402  24.472  0.00  0.00    +0.000 A 
ATOM     15  C   UNL     1      -5.797  12.607  24.597  0.00  0.00    +0.000 A 
ATOM     16  C   UNL     1      -6.561  12.930  23.476  0.00  0.00    +0.000 A 
ATOM     17  C   UNL     1      -5.947  13.026  22.228  0.00  0.00    +0.000 A 
ATOM     18 CL   UNL     1      -6.899  13.424  20.849  0.00  0.00    +0.000 Cl
ATOM     19  C   UNL     1      -4.571  12.825  22.111  0.00  0.00    +0.000 A 
ATOM     20  F   UNL     1      -3.971  12.941  20.913  0.00  0.00    +0.000 F 
ENDBRANCH   5  13
BRANCH  11  21
ATOM     21  O   UNL     1       3.037  13.586  19.814  0.00  0.00    +0.000 OA
ATOM     22  C   UNL     1       3.518  14.930  19.781  0.00  0.00    +0.000 C 
ENDBRANCH  11  21
BRANCH   1  23
ATOM     23  O   UNL     1       1.480  11.177  19.902  0.00  0.00    +0.000 OA
BRANCH  23  27
ATOM     24  N   UNL     1       1.984   7.811  18.555  0.00  0.00    +0.000 NA
ATOM     25  C   UNL     1       1.932   8.058  20.010  0.00  0.00    +0.000 C 
ATOM     26  C   UNL     1       0.751   8.908  20.480  0.00  0.00    +0.000 C 
ATOM     27  C   UNL     1       0.493  10.159  19.643  0.00  0.00    +0.000 C 
ATOM     28  C   UNL     1       0.495   9.796  18.164  0.00  0.00    +0.000 C 
ATOM     29  C   UNL     1       1.774   9.053  17.787  0.00  0.00    +0.000 C 
BRANCH  24  30
ATOM     30  C   UNL     1       3.344   7.300  18.183  0.00  0.00    +0.000 C 
BRANCH  30  33
ATOM     31  C   UNL     1       2.112   3.739  17.615  0.00  0.00    +0.000 C 
ATOM     32  N   UNL     1       2.262   5.098  18.063  0.00  0.00    +0.000 N 
ATOM     33  C   UNL     1       3.380   5.834  17.750  0.00  0.00    +0.000 C 
ATOM     34  O   UNL     1       4.316   5.381  17.092  0.00  0.00    +0.000 OA
ATOM     35  H   UNL     1       1.538   5.564  18.602  0.00  0.00    +0.000 HD
ENDBRANCH  30  33
ENDBRANCH  24  30
ENDBRANCH  23  27
ENDBRANCH   1  23
TORSDOF 6
ENDMDL
