MODEL 1
REMARK VINA RESULT:      -7.4      0.000      0.000
REMARK  Name = 
REMARK  8 active torsions:
REMARK  status: ('A' for Active; 'I' for Inactive)
REMARK    1  A    between atoms: C_1  and  C_2
REMARK    2  A    between atoms: C_2  and  N_3
REMARK    3  A    between atoms: N_3  and  C_4
REMARK    4  A    between atoms: N_3  and  C_6
REMARK    5  A    between atoms: C_4  and  C_5
REMARK    6  A    between atoms: C_9  and  N_10
REMARK    7  A    between atoms: N_14  and  C_15
REMARK    8  A    between atoms: C_24  and  C_25
REMARK                            x       y       z     vdW  Elec       q    Type
REMARK                         _______ _______ _______ _____ _____    ______ ____
ROOT
ATOM      1  N   UNL     1       7.476   6.599  18.593  0.00  0.00    +0.000 N 
ATOM      2  C   UNL     1       7.044   5.752  17.610  0.00  0.00    +0.000 A 
ATOM      3  N   UNL     1       6.092   4.840  18.020  0.00  0.00    +0.000 NA
ATOM      4  C   UNL     1       5.555   4.020  17.157  0.00  0.00    +0.000 A 
ATOM      5  N   UNL     1       4.608   3.063  17.466  0.00  0.00    +0.000 N 
ATOM      6  N   UNL     1       5.985   4.106  15.825  0.00  0.00    +0.000 N 
ATOM      7  N   UNL     1       5.483   3.375  14.798  0.00  0.00    +0.000 NA
ATOM      8  C   UNL     1       6.158   3.861  13.743  0.00  0.00    +0.000 A 
ATOM      9  C   UNL     1       7.087   4.862  14.095  0.00  0.00    +0.000 A 
ATOM     10  C   UNL     1       6.943   5.003  15.455  0.00  0.00    +0.000 A 
ATOM     11  N   UNL     1       7.483   5.819  16.384  0.00  0.00    +0.000 NA
ATOM     12  H   UNL     1       6.965   6.469  19.459  0.00  0.00    +0.000 HD
ATOM     13  H   UNL     1       4.349   2.436  16.704  0.00  0.00    +0.000 HD
ENDROOT
BRANCH   1  17
ATOM     14  C   UNL     1       8.852  10.635  18.142  0.00  0.00    +0.000 A 
ATOM     15  C   UNL     1       9.380   9.746  19.097  0.00  0.00    +0.000 A 
ATOM     16  C   UNL     1       8.953   8.413  19.216  0.00  0.00    +0.000 A 
ATOM     17  C   UNL     1       7.952   7.909  18.387  0.00  0.00    +0.000 A 
ATOM     18  C   UNL     1       7.479   8.753  17.386  0.00  0.00    +0.000 A 
ATOM     19  C   UNL     1       7.909  10.081  17.274  0.00  0.00    +0.000 A 
BRANCH  14  20
ATOM     20  N   UNL     1       9.256  11.974  18.047  0.00  0.00    +0.000 N 
BRANCH  20  22
ATOM     21  C   UNL     1       7.952  14.124  18.403  0.00  0.00    +0.000 C 
ATOM     22  C   UNL     1       8.280  12.938  17.516  0.00  0.00    +0.000 C 
ENDBRANCH  20  22
BRANCH  20  23
ATOM     23  C   UNL     1      10.686  12.319  18.146  0.00  0.00    +0.000 C 
ATOM     24  C   UNL     1      11.215  13.055  16.919  0.00  0.00    +0.000 C 
ENDBRANCH  20  23
ENDBRANCH  14  20
ENDBRANCH   1  17
BRANCH   5  25
ATOM     25  C   UNL     1       3.611   3.180  18.457  0.00  0.00    +0.000 A 
ATOM     26  C   UNL     1       3.753   2.647  19.745  0.00  0.00    +0.000 A 
ATOM     27  C   UNL     1       2.748   2.803  20.705  0.00  0.00    +0.000 A 
ATOM     28  C   UNL     1       1.570   3.471  20.380  0.00  0.00    +0.000 A 
ATOM     29  C   UNL     1       1.396   3.976  19.095  0.00  0.00    +0.000 A 
ATOM     30  C   UNL     1       2.411   3.835  18.142  0.00  0.00    +0.000 A 
ENDBRANCH   5  25
BRANCH   9  31
ATOM     31  C   UNL     1       7.967   5.593  13.248  0.00  0.00    +0.000 C 
ATOM     32  N   UNL     1       8.707   6.210  12.598  0.00  0.00    +0.000 NA
ENDBRANCH   9  31
TORSDOF 6
ENDMDL
MODEL 2
REMARK VINA RESULT:      -7.3      0.268      1.216
REMARK  Name = 
REMARK  8 active torsions:
REMARK  status: ('A' for Active; 'I' for Inactive)
REMARK    1  A    between atoms: C_1  and  C_2
REMARK    2  A    between atoms: C_2  and  N_3
REMARK    3  A    between atoms: N_3  and  C_4
REMARK    4  A    between atoms: N_3  and  C_6
REMARK    5  A    between atoms: C_4  and  C_5
REMARK    6  A    between atoms: C_9  and  N_10
REMARK    7  A    between atoms: N_14  and  C_15
REMARK    8  A    between atoms: C_24  and  C_25
REMARK                            x       y       z     vdW  Elec       q    Type
REMARK                         _______ _______ _______ _____ _____    ______ ____
ROOT
ATOM      1  N   UNL     1       7.451   6.570  18.550  0.00  0.00    +0.000 N 
ATOM      2  C   UNL     1       7.024   5.729  17.559  0.00  0.00    +0.000 A 
ATOM      3  N   UNL     1       6.074   4.812  17.960  0.00  0.00    +0.000 NA
ATOM      4  C   UNL     1       5.540   3.996  17.091  0.00  0.00    +0.000 A 
ATOM      5  N   UNL     1       4.596   3.035  17.390  0.00  0.00    +0.000 N 
ATOM      6  N   UNL     1       5.974   4.093  15.760  0.00  0.00    +0.000 N 
ATOM      7  N   UNL     1       5.477   3.368  14.727  0.00  0.00    +0.000 NA
ATOM      8  C   UNL     1       6.154   3.862  13.677  0.00  0.00    +0.000 A 
ATOM      9  C   UNL     1       7.080   4.864  14.039  0.00  0.00    +0.000 A 
ATOM     10  C   UNL     1       6.931   4.994  15.399  0.00  0.00    +0.000 A 
ATOM     11  N   UNL     1       7.466   5.806  16.335  0.00  0.00    +0.000 NA
ATOM     12  H   UNL     1       6.938   6.433  19.413  0.00  0.00    +0.000 HD
ATOM     13  H   UNL     1       4.340   2.413  16.623  0.00  0.00    +0.000 HD
ENDROOT
BRANCH   1  17
ATOM     14  C   UNL     1       8.823  10.611  18.133  0.00  0.00    +0.000 A 
ATOM     15  C   UNL     1       9.368   9.708  19.063  0.00  0.00    +0.000 A 
ATOM     16  C   UNL     1       8.942   8.374  19.171  0.00  0.00    +0.000 A 
ATOM     17  C   UNL     1       7.924   7.883  18.355  0.00  0.00    +0.000 A 
ATOM     18  C   UNL     1       7.433   8.742  17.375  0.00  0.00    +0.000 A 
ATOM     19  C   UNL     1       7.862  10.071  17.275  0.00  0.00    +0.000 A 
BRANCH  14  20
ATOM     20  N   UNL     1       9.227  11.952  18.050  0.00  0.00    +0.000 N 
BRANCH  20  22
ATOM     21  C   UNL     1      11.723  12.362  17.825  0.00  0.00    +0.000 C 
ATOM     22  C   UNL     1      10.490  12.318  18.708  0.00  0.00    +0.000 C 
ENDBRANCH  20  22
BRANCH  20  23
ATOM     23  C   UNL     1       8.263  12.984  17.628  0.00  0.00    +0.000 C 
ATOM     24  C   UNL     1       8.178  14.160  18.596  0.00  0.00    +0.000 C 
ENDBRANCH  20  23
ENDBRANCH  14  20
ENDBRANCH   1  17
BRANCH   5  25
ATOM     25  C   UNL     1       3.595   3.142  18.379  0.00  0.00    +0.000 A 
ATOM     26  C   UNL     1       3.749   2.632  19.675  0.00  0.00    +0.000 A 
ATOM     27  C   UNL     1       2.740   2.778  20.632  0.00  0.00    +0.000 A 
ATOM     28  C   UNL     1       1.547   3.412  20.297  0.00  0.00    +0.000 A 
ATOM     29  C   UNL     1       1.362   3.894  19.005  0.00  0.00    +0.000 A 
ATOM     30  C   UNL     1       2.380   3.763  18.054  0.00  0.00    +0.000 A 
ENDBRANCH   5  25
BRANCH   9  31
ATOM     31  C   UNL     1       7.960   5.603  13.199  0.00  0.00    +0.000 C 
ATOM     32  N   UNL     1       8.690   6.163  12.490  0.00  0.00    +0.000 NA
ENDBRANCH   9  31
TORSDOF 6
ENDMDL
MODEL 3
REMARK VINA RESULT:      -6.9      0.436      1.012
REMARK  Name = 
REMARK  8 active torsions:
REMARK  status: ('A' for Active; 'I' for Inactive)
REMARK    1  A    between atoms: C_1  and  C_2
REMARK    2  A    between atoms: C_2  and  N_3
REMARK    3  A    between atoms: N_3  and  C_4
REMARK    4  A    between atoms: N_3  and  C_6
REMARK    5  A    between atoms: C_4  and  C_5
REMARK    6  A    between atoms: C_9  and  N_10
REMARK    7  A    between atoms: N_14  and  C_15
REMARK    8  A    between atoms: C_24  and  C_25
REMARK                            x       y       z     vdW  Elec       q    Type
REMARK                         _______ _______ _______ _____ _____    ______ ____
ROOT
ATOM      1  N   UNL     1       7.391   6.409  18.601  0.00  0.00    +0.000 N 
ATOM      2  C   UNL     1       6.997   5.618  17.557  0.00  0.00    +0.000 A 
ATOM      3  N   UNL     1       6.030   4.688  17.879  0.00  0.00    +0.000 NA
ATOM      4  C   UNL     1       5.525   3.918  16.953  0.00  0.00    +0.000 A 
ATOM      5  N   UNL     1       4.567   2.948  17.172  0.00  0.00    +0.000 N 
ATOM      6  N   UNL     1       6.007   4.075  15.646  0.00  0.00    +0.000 N 
ATOM      7  N   UNL     1       5.545   3.402  14.562  0.00  0.00    +0.000 NA
ATOM      8  C   UNL     1       6.262   3.942  13.561  0.00  0.00    +0.000 A 
ATOM      9  C   UNL     1       7.177   4.920  14.003  0.00  0.00    +0.000 A 
ATOM     10  C   UNL     1       6.980   4.987  15.362  0.00  0.00    +0.000 A 
ATOM     11  N   UNL     1       7.484   5.750  16.354  0.00  0.00    +0.000 NA
ATOM     12  H   UNL     1       6.846   6.234  19.438  0.00  0.00    +0.000 HD
ATOM     13  H   UNL     1       4.337   2.364  16.368  0.00  0.00    +0.000 HD
ENDROOT
BRANCH   1  17
ATOM     14  C   UNL     1       8.945  10.371  18.075  0.00  0.00    +0.000 A 
ATOM     15  C   UNL     1       7.927   9.832  17.267  0.00  0.00    +0.000 A 
ATOM     16  C   UNL     1       7.394   8.548  17.467  0.00  0.00    +0.000 A 
ATOM     17  C   UNL     1       7.876   7.727  18.485  0.00  0.00    +0.000 A 
ATOM     18  C   UNL     1       8.825   8.278  19.342  0.00  0.00    +0.000 A 
ATOM     19  C   UNL     1       9.352   9.559  19.136  0.00  0.00    +0.000 A 
BRANCH  14  20
ATOM     20  N   UNL     1       9.499  11.640  17.854  0.00  0.00    +0.000 N 
BRANCH  20  22
ATOM     21  C   UNL     1       8.420  13.778  18.702  0.00  0.00    +0.000 C 
ATOM     22  C   UNL     1       8.567  12.748  17.597  0.00  0.00    +0.000 C 
ENDBRANCH  20  22
BRANCH  20  23
ATOM     23  C   UNL     1      10.936  11.772  17.553  0.00  0.00    +0.000 C 
ATOM     24  C   UNL     1      11.781  12.092  18.782  0.00  0.00    +0.000 C 
ENDBRANCH  20  23
ENDBRANCH  14  20
ENDBRANCH   1  17
BRANCH   5  25
ATOM     25  C   UNL     1       3.532   3.014  18.128  0.00  0.00    +0.000 A 
ATOM     26  C   UNL     1       3.683   2.560  19.445  0.00  0.00    +0.000 A 
ATOM     27  C   UNL     1       2.637   2.662  20.368  0.00  0.00    +0.000 A 
ATOM     28  C   UNL     1       1.412   3.195  19.978  0.00  0.00    +0.000 A 
ATOM     29  C   UNL     1       1.231   3.619  18.665  0.00  0.00    +0.000 A 
ATOM     30  C   UNL     1       2.285   3.533  17.749  0.00  0.00    +0.000 A 
ENDBRANCH   5  25
BRANCH   9  31
ATOM     31  C   UNL     1       8.090   5.693  13.232  0.00  0.00    +0.000 C 
ATOM     32  N   UNL     1       8.864   6.283  12.598  0.00  0.00    +0.000 NA
ENDBRANCH   9  31
TORSDOF 6
ENDMDL
MODEL 4
REMARK VINA RESULT:      -6.7      0.585      1.715
REMARK  Name = 
REMARK  8 active torsions:
REMARK  status: ('A' for Active; 'I' for Inactive)
REMARK    1  A    between atoms: C_1  and  C_2
REMARK    2  A    between atoms: C_2  and  N_3
REMARK    3  A    between atoms: N_3  and  C_4
REMARK    4  A    between atoms: N_3  and  C_6
REMARK    5  A    between atoms: C_4  and  C_5
REMARK    6  A    between atoms: C_9  and  N_10
REMARK    7  A    between atoms: N_14  and  C_15
REMARK    8  A    between atoms: C_24  and  C_25
REMARK                            x       y       z     vdW  Elec       q    Type
REMARK                         _______ _______ _______ _____ _____    ______ ____
ROOT
ATOM      1  N   UNL     1       7.330   6.380  18.534  0.00  0.00    +0.000 N 
ATOM      2  C   UNL     1       6.952   5.602  17.474  0.00  0.00    +0.000 A 
ATOM      3  N   UNL     1       5.970   4.677  17.766  0.00  0.00    +0.000 NA
ATOM      4  C   UNL     1       5.480   3.920  16.822  0.00  0.00    +0.000 A 
ATOM      5  N   UNL     1       4.508   2.957  17.011  0.00  0.00    +0.000 N 
ATOM      6  N   UNL     1       5.992   4.085  15.527  0.00  0.00    +0.000 N 
ATOM      7  N   UNL     1       5.548   3.426  14.427  0.00  0.00    +0.000 NA
ATOM      8  C   UNL     1       6.291   3.969  13.447  0.00  0.00    +0.000 A 
ATOM      9  C   UNL     1       7.205   4.934  13.919  0.00  0.00    +0.000 A 
ATOM     10  C   UNL     1       6.978   4.991  15.273  0.00  0.00    +0.000 A 
ATOM     11  N   UNL     1       7.467   5.740  16.284  0.00  0.00    +0.000 NA
ATOM     12  H   UNL     1       6.766   6.201  19.356  0.00  0.00    +0.000 HD
ATOM     13  H   UNL     1       4.291   2.383  16.196  0.00  0.00    +0.000 HD
ENDROOT
BRANCH   1  17
ATOM     14  C   UNL     1       8.922  10.334  18.075  0.00  0.00    +0.000 A 
ATOM     15  C   UNL     1       7.874   9.832  17.282  0.00  0.00    +0.000 A 
ATOM     16  C   UNL     1       7.330   8.549  17.460  0.00  0.00    +0.000 A 
ATOM     17  C   UNL     1       7.829   7.694  18.441  0.00  0.00    +0.000 A 
ATOM     18  C   UNL     1       8.809   8.209  19.285  0.00  0.00    +0.000 A 
ATOM     19  C   UNL     1       9.348   9.487  19.100  0.00  0.00    +0.000 A 
BRANCH  14  20
ATOM     20  N   UNL     1       9.486  11.603  17.873  0.00  0.00    +0.000 N 
BRANCH  20  22
ATOM     21  C   UNL     1      11.827  11.766  18.844  0.00  0.00    +0.000 C 
ATOM     22  C   UNL     1      10.934  11.665  17.621  0.00  0.00    +0.000 C 
ENDBRANCH  20  22
BRANCH  20  23
ATOM     23  C   UNL     1       8.726  12.811  18.241  0.00  0.00    +0.000 C 
ATOM     24  C   UNL     1       9.427  14.107  17.844  0.00  0.00    +0.000 C 
ENDBRANCH  20  23
ENDBRANCH  14  20
ENDBRANCH   1  17
BRANCH   5  25
ATOM     25  C   UNL     1       3.452   3.023  17.944  0.00  0.00    +0.000 A 
ATOM     26  C   UNL     1       2.227   3.642  17.663  0.00  0.00    +0.000 A 
ATOM     27  C   UNL     1       1.198   3.668  18.610  0.00  0.00    +0.000 A 
ATOM     28  C   UNL     1       1.391   3.100  19.866  0.00  0.00    +0.000 A 
ATOM     29  C   UNL     1       2.613   2.512  20.176  0.00  0.00    +0.000 A 
ATOM     30  C   UNL     1       3.635   2.471  19.220  0.00  0.00    +0.000 A 
ENDBRANCH   5  25
BRANCH   9  31
ATOM     31  C   UNL     1       8.142   5.706  13.175  0.00  0.00    +0.000 C 
ATOM     32  N   UNL     1       8.943   6.310  12.590  0.00  0.00    +0.000 NA
ENDBRANCH   9  31
TORSDOF 6
ENDMDL
MODEL 5
REMARK VINA RESULT:      -6.7      7.932     10.850
REMARK  Name = 
REMARK  8 active torsions:
REMARK  status: ('A' for Active; 'I' for Inactive)
REMARK    1  A    between atoms: C_1  and  C_2
REMARK    2  A    between atoms: C_2  and  N_3
REMARK    3  A    between atoms: N_3  and  C_4
REMARK    4  A    between atoms: N_3  and  C_6
REMARK    5  A    between atoms: C_4  and  C_5
REMARK    6  A    between atoms: C_9  and  N_10
REMARK    7  A    between atoms: N_14  and  C_15
REMARK    8  A    between atoms: C_24  and  C_25
REMARK                            x       y       z     vdW  Elec       q    Type
REMARK                         _______ _______ _______ _____ _____    ______ ____
ROOT
ATOM      1  N   UNL     1      -0.371  10.521  19.178  0.00  0.00    +0.000 N 
ATOM      2  C   UNL     1      -0.167  11.849  19.434  0.00  0.00    +0.000 A 
ATOM      3  N   UNL     1      -1.203  12.466  20.105  0.00  0.00    +0.000 NA
ATOM      4  C   UNL     1      -1.099  13.718  20.464  0.00  0.00    +0.000 A 
ATOM      5  N   UNL     1      -2.081  14.431  21.124  0.00  0.00    +0.000 N 
ATOM      6  N   UNL     1       0.087  14.390  20.136  0.00  0.00    +0.000 N 
ATOM      7  N   UNL     1       0.379  15.667  20.490  0.00  0.00    +0.000 NA
ATOM      8  C   UNL     1       1.625  15.820  20.011  0.00  0.00    +0.000 A 
ATOM      9  C   UNL     1       2.105  14.673  19.345  0.00  0.00    +0.000 A 
ATOM     10  C   UNL     1       1.084  13.760  19.452  0.00  0.00    +0.000 A 
ATOM     11  N   UNL     1       0.926  12.470  19.087  0.00  0.00    +0.000 NA
ATOM     12  H   UNL     1      -1.229  10.180  19.597  0.00  0.00    +0.000 HD
ATOM     13  H   UNL     1      -1.891  15.424  21.256  0.00  0.00    +0.000 HD
ENDROOT
BRANCH   1  17
ATOM     14  C   UNL     1       2.602   7.471  18.682  0.00  0.00    +0.000 A 
ATOM     15  C   UNL     1       2.213   8.340  17.646  0.00  0.00    +0.000 A 
ATOM     16  C   UNL     1       1.267   9.362  17.823  0.00  0.00    +0.000 A 
ATOM     17  C   UNL     1       0.644   9.551  19.056  0.00  0.00    +0.000 A 
ATOM     18  C   UNL     1       1.079   8.751  20.109  0.00  0.00    +0.000 A 
ATOM     19  C   UNL     1       2.022   7.733  19.925  0.00  0.00    +0.000 A 
BRANCH  14  20
ATOM     20  N   UNL     1       3.522   6.429  18.494  0.00  0.00    +0.000 N 
BRANCH  20  22
ATOM     21  C   UNL     1       4.912   6.078  16.397  0.00  0.00    +0.000 C 
ATOM     22  C   UNL     1       4.753   6.742  17.753  0.00  0.00    +0.000 C 
ENDBRANCH  20  22
BRANCH  20  23
ATOM     23  C   UNL     1       3.109   5.033  18.725  0.00  0.00    +0.000 C 
ATOM     24  C   UNL     1       1.899   4.618  17.894  0.00  0.00    +0.000 C 
ENDBRANCH  20  23
ENDBRANCH  14  20
ENDBRANCH   1  17
BRANCH   5  25
ATOM     25  C   UNL     1      -2.987  13.905  22.068  0.00  0.00    +0.000 A 
ATOM     26  C   UNL     1      -2.618  13.588  23.382  0.00  0.00    +0.000 A 
ATOM     27  C   UNL     1      -3.553  13.087  24.294  0.00  0.00    +0.000 A 
ATOM     28  C   UNL     1      -4.868  12.867  23.895  0.00  0.00    +0.000 A 
ATOM     29  C   UNL     1      -5.246  13.144  22.584  0.00  0.00    +0.000 A 
ATOM     30  C   UNL     1      -4.313  13.662  21.679  0.00  0.00    +0.000 A 
ENDBRANCH   5  25
BRANCH   9  31
ATOM     31  C   UNL     1       3.368  14.475  18.720  0.00  0.00    +0.000 C 
ATOM     32  N   UNL     1       4.395  14.360  18.190  0.00  0.00    +0.000 NA
ENDBRANCH   9  31
TORSDOF 6
ENDMDL
MODEL 6
REMARK VINA RESULT:      -6.6      4.128      7.414
REMARK  Name = 
REMARK  8 active torsions:
REMARK  status: ('A' for Active; 'I' for Inactive)
REMARK    1  A    between atoms: C_1  and  C_2
REMARK    2  A    between atoms: C_2  and  N_3
REMARK    3  A    between atoms: N_3  and  C_4
REMARK    4  A    between atoms: N_3  and  C_6
REMARK    5  A    between atoms: C_4  and  C_5
REMARK    6  A    between atoms: C_9  and  N_10
REMARK    7  A    between atoms: N_14  and  C_15
REMARK    8  A    between atoms: C_24  and  C_25
REMARK                            x       y       z     vdW  Elec       q    Type
REMARK                         _______ _______ _______ _____ _____    ______ ____
ROOT
ATOM      1  N   UNL     1       5.074   6.586  17.859  0.00  0.00    +0.000 N 
ATOM      2  C   UNL     1       4.126   6.017  18.664  0.00  0.00    +0.000 A 
ATOM      3  N   UNL     1       3.363   6.922  19.375  0.00  0.00    +0.000 NA
ATOM      4  C   UNL     1       2.383   6.505  20.129  0.00  0.00    +0.000 A 
ATOM      5  N   UNL     1       1.571   7.324  20.890  0.00  0.00    +0.000 N 
ATOM      6  N   UNL     1       2.150   5.123  20.185  0.00  0.00    +0.000 N 
ATOM      7  N   UNL     1       1.136   4.533  20.867  0.00  0.00    +0.000 NA
ATOM      8  C   UNL     1       1.300   3.235  20.559  0.00  0.00    +0.000 A 
ATOM      9  C   UNL     1       2.409   3.002  19.720  0.00  0.00    +0.000 A 
ATOM     10  C   UNL     1       2.935   4.251  19.489  0.00  0.00    +0.000 A 
ATOM     11  N   UNL     1       3.948   4.727  18.736  0.00  0.00    +0.000 NA
ATOM     12  H   UNL     1       5.013   7.597  17.855  0.00  0.00    +0.000 HD
ATOM     13  H   UNL     1       0.907   6.846  21.497  0.00  0.00    +0.000 HD
ENDROOT
BRANCH   1  17
ATOM     14  C   UNL     1       6.404   4.794  14.198  0.00  0.00    +0.000 A 
ATOM     15  C   UNL     1       5.407   5.785  14.249  0.00  0.00    +0.000 A 
ATOM     16  C   UNL     1       5.001   6.397  15.447  0.00  0.00    +0.000 A 
ATOM     17  C   UNL     1       5.568   6.026  16.665  0.00  0.00    +0.000 A 
ATOM     18  C   UNL     1       6.613   5.106  16.618  0.00  0.00    +0.000 A 
ATOM     19  C   UNL     1       7.011   4.500  15.420  0.00  0.00    +0.000 A 
BRANCH  14  20
ATOM     20  N   UNL     1       6.785   4.161  13.005  0.00  0.00    +0.000 N 
BRANCH  20  22
ATOM     21  C   UNL     1       8.570   5.950  12.748  0.00  0.00    +0.000 C 
ATOM     22  C   UNL     1       7.681   4.902  12.104  0.00  0.00    +0.000 C 
ENDBRANCH  20  22
BRANCH  20  23
ATOM     23  C   UNL     1       6.047   2.975  12.535  0.00  0.00    +0.000 C 
ATOM     24  C   UNL     1       4.784   3.323  11.754  0.00  0.00    +0.000 C 
ENDBRANCH  20  23
ENDBRANCH  14  20
ENDBRANCH   1  17
BRANCH   5  25
ATOM     25  C   UNL     1       1.175   8.635  20.551  0.00  0.00    +0.000 A 
ATOM     26  C   UNL     1       1.232   9.132  19.243  0.00  0.00    +0.000 A 
ATOM     27  C   UNL     1       0.810  10.432  18.946  0.00  0.00    +0.000 A 
ATOM     28  C   UNL     1       0.352  11.266  19.962  0.00  0.00    +0.000 A 
ATOM     29  C   UNL     1       0.321  10.801  21.274  0.00  0.00    +0.000 A 
ATOM     30  C   UNL     1       0.726   9.494  21.565  0.00  0.00    +0.000 A 
ENDBRANCH   5  25
BRANCH   9  31
ATOM     31  C   UNL     1       2.882   1.766  19.196  0.00  0.00    +0.000 C 
ATOM     32  N   UNL     1       3.314   0.768  18.787  0.00  0.00    +0.000 NA
ENDBRANCH   9  31
TORSDOF 6
ENDMDL
MODEL 7
REMARK VINA RESULT:      -6.6      8.404     11.410
REMARK  Name = 
REMARK  8 active torsions:
REMARK  status: ('A' for Active; 'I' for Inactive)
REMARK    1  A    between atoms: C_1  and  C_2
REMARK    2  A    between atoms: C_2  and  N_3
REMARK    3  A    between atoms: N_3  and  C_4
REMARK    4  A    between atoms: N_3  and  C_6
REMARK    5  A    between atoms: C_4  and  C_5
REMARK    6  A    between atoms: C_9  and  N_10
REMARK    7  A    between atoms: N_14  and  C_15
REMARK    8  A    between atoms: C_24  and  C_25
REMARK                            x       y       z     vdW  Elec       q    Type
REMARK                         _______ _______ _______ _____ _____    ______ ____
ROOT
ATOM      1  N   UNL     1      -0.657  10.862  19.879  0.00  0.00    +0.000 N 
ATOM      2  C   UNL     1      -0.450  12.070  20.486  0.00  0.00    +0.000 A 
ATOM      3  N   UNL     1      -1.567  12.597  21.103  0.00  0.00    +0.000 NA
ATOM      4  C   UNL     1      -1.481  13.716  21.771  0.00  0.00    +0.000 A 
ATOM      5  N   UNL     1      -2.538  14.334  22.411  0.00  0.00    +0.000 N 
ATOM      6  N   UNL     1      -0.228  14.343  21.828  0.00  0.00    +0.000 N 
ATOM      7  N   UNL     1       0.045  15.471  22.531  0.00  0.00    +0.000 NA
ATOM      8  C   UNL     1       1.364  15.626  22.324  0.00  0.00    +0.000 A 
ATOM      9  C   UNL     1       1.912  14.632  21.488  0.00  0.00    +0.000 A 
ATOM     10  C   UNL     1       0.852  13.809  21.189  0.00  0.00    +0.000 A 
ATOM     11  N   UNL     1       0.712  12.660  20.496  0.00  0.00    +0.000 NA
ATOM     12  H   UNL     1      -1.591  10.507  20.048  0.00  0.00    +0.000 HD
ATOM     13  H   UNL     1      -2.336  15.248  22.815  0.00  0.00    +0.000 HD
ENDROOT
BRANCH   1  17
ATOM     14  C   UNL     1       2.203   7.742  19.192  0.00  0.00    +0.000 A 
ATOM     15  C   UNL     1       1.837   8.678  18.208  0.00  0.00    +0.000 A 
ATOM     16  C   UNL     1       0.928   9.722  18.448  0.00  0.00    +0.000 A 
ATOM     17  C   UNL     1       0.322   9.866  19.695  0.00  0.00    +0.000 A 
ATOM     18  C   UNL     1       0.737   8.996  20.700  0.00  0.00    +0.000 A 
ATOM     19  C   UNL     1       1.642   7.958  20.453  0.00  0.00    +0.000 A 
BRANCH  14  20
ATOM     20  N   UNL     1       3.085   6.681  18.941  0.00  0.00    +0.000 N 
BRANCH  20  22
ATOM     21  C   UNL     1       5.187   5.973  17.703  0.00  0.00    +0.000 C 
ATOM     22  C   UNL     1       3.879   6.742  17.704  0.00  0.00    +0.000 C 
ENDBRANCH  20  22
BRANCH  20  23
ATOM     23  C   UNL     1       2.957   5.424  19.700  0.00  0.00    +0.000 C 
ATOM     24  C   UNL     1       1.960   4.447  19.083  0.00  0.00    +0.000 C 
ENDBRANCH  20  23
ENDBRANCH  14  20
ENDBRANCH   1  17
BRANCH   5  25
ATOM     25  C   UNL     1      -3.625  13.679  23.026  0.00  0.00    +0.000 A 
ATOM     26  C   UNL     1      -3.483  12.882  24.170  0.00  0.00    +0.000 A 
ATOM     27  C   UNL     1      -4.591  12.266  24.762  0.00  0.00    +0.000 A 
ATOM     28  C   UNL     1      -5.856  12.415  24.200  0.00  0.00    +0.000 A 
ATOM     29  C   UNL     1      -6.011  13.174  23.044  0.00  0.00    +0.000 A 
ATOM     30  C   UNL     1      -4.904  13.804  22.464  0.00  0.00    +0.000 A 
ENDBRANCH   5  25
BRANCH   9  31
ATOM     31  C   UNL     1       3.261  14.480  21.057  0.00  0.00    +0.000 C 
ATOM     32  N   UNL     1       4.344  14.352  20.658  0.00  0.00    +0.000 NA
ENDBRANCH   9  31
TORSDOF 6
ENDMDL
MODEL 8
REMARK VINA RESULT:      -6.5      7.989     10.905
REMARK  Name = 
REMARK  8 active torsions:
REMARK  status: ('A' for Active; 'I' for Inactive)
REMARK    1  A    between atoms: C_1  and  C_2
REMARK    2  A    between atoms: C_2  and  N_3
REMARK    3  A    between atoms: N_3  and  C_4
REMARK    4  A    between atoms: N_3  and  C_6
REMARK    5  A    between atoms: C_4  and  C_5
REMARK    6  A    between atoms: C_9  and  N_10
REMARK    7  A    between atoms: N_14  and  C_15
REMARK    8  A    between atoms: C_24  and  C_25
REMARK                            x       y       z     vdW  Elec       q    Type
REMARK                         _______ _______ _______ _____ _____    ______ ____
ROOT
ATOM      1  N   UNL     1      -0.426  10.545  19.146  0.00  0.00    +0.000 N 
ATOM      2  C   UNL     1      -0.224  11.879  19.374  0.00  0.00    +0.000 A 
ATOM      3  N   UNL     1      -1.273  12.514  20.009  0.00  0.00    +0.000 NA
ATOM      4  C   UNL     1      -1.175  13.773  20.339  0.00  0.00    +0.000 A 
ATOM      5  N   UNL     1      -2.168  14.503  20.962  0.00  0.00    +0.000 N 
ATOM      6  N   UNL     1       0.019  14.436  20.020  0.00  0.00    +0.000 N 
ATOM      7  N   UNL     1       0.306  15.721  20.349  0.00  0.00    +0.000 NA
ATOM      8  C   UNL     1       1.563  15.861  19.893  0.00  0.00    +0.000 A 
ATOM      9  C   UNL     1       2.054  14.697  19.265  0.00  0.00    +0.000 A 
ATOM     10  C   UNL     1       1.029  13.788  19.372  0.00  0.00    +0.000 A 
ATOM     11  N   UNL     1       0.876  12.490  19.035  0.00  0.00    +0.000 NA
ATOM     12  H   UNL     1      -1.293  10.216  19.554  0.00  0.00    +0.000 HD
ATOM     13  H   UNL     1      -1.979  15.499  21.074  0.00  0.00    +0.000 HD
ENDROOT
BRANCH   1  17
ATOM     14  C   UNL     1       2.547   7.475  18.791  0.00  0.00    +0.000 A 
ATOM     15  C   UNL     1       2.142   8.280  17.711  0.00  0.00    +0.000 A 
ATOM     16  C   UNL     1       1.196   9.310  17.839  0.00  0.00    +0.000 A 
ATOM     17  C   UNL     1       0.590   9.572  19.067  0.00  0.00    +0.000 A 
ATOM     18  C   UNL     1       1.041   8.837  20.161  0.00  0.00    +0.000 A 
ATOM     19  C   UNL     1       1.984   7.811  20.025  0.00  0.00    +0.000 A 
BRANCH  14  20
ATOM     20  N   UNL     1       3.467   6.426  18.654  0.00  0.00    +0.000 N 
BRANCH  20  22
ATOM     21  C   UNL     1       2.398   4.278  19.488  0.00  0.00    +0.000 C 
ATOM     22  C   UNL     1       3.440   5.366  19.673  0.00  0.00    +0.000 C 
ENDBRANCH  20  22
BRANCH  20  23
ATOM     23  C   UNL     1       4.614   6.570  17.739  0.00  0.00    +0.000 C 
ATOM     24  C   UNL     1       4.677   5.478  16.676  0.00  0.00    +0.000 C 
ENDBRANCH  20  23
ENDBRANCH  14  20
ENDBRANCH   1  17
BRANCH   5  25
ATOM     25  C   UNL     1      -3.095  14.001  21.899  0.00  0.00    +0.000 A 
ATOM     26  C   UNL     1      -4.429  13.722  21.574  0.00  0.00    +0.000 A 
ATOM     27  C   UNL     1      -5.311  13.205  22.529  0.00  0.00    +0.000 A 
ATOM     28  C   UNL     1      -4.878  12.987  23.834  0.00  0.00    +0.000 A 
ATOM     29  C   UNL     1      -3.565  13.292  24.184  0.00  0.00    +0.000 A 
ATOM     30  C   UNL     1      -2.680  13.791  23.222  0.00  0.00    +0.000 A 
ENDBRANCH   5  25
BRANCH   9  31
ATOM     31  C   UNL     1       3.330  14.482  18.670  0.00  0.00    +0.000 C 
ATOM     32  N   UNL     1       4.370  14.355  18.170  0.00  0.00    +0.000 NA
ENDBRANCH   9  31
TORSDOF 6
ENDMDL
MODEL 9
REMARK VINA RESULT:      -6.5      8.144     11.125
REMARK  Name = 
REMARK  8 active torsions:
REMARK  status: ('A' for Active; 'I' for Inactive)
REMARK    1  A    between atoms: C_1  and  C_2
REMARK    2  A    between atoms: C_2  and  N_3
REMARK    3  A    between atoms: N_3  and  C_4
REMARK    4  A    between atoms: N_3  and  C_6
REMARK    5  A    between atoms: C_4  and  C_5
REMARK    6  A    between atoms: C_9  and  N_10
REMARK    7  A    between atoms: N_14  and  C_15
REMARK    8  A    between atoms: C_24  and  C_25
REMARK                            x       y       z     vdW  Elec       q    Type
REMARK                         _______ _______ _______ _____ _____    ______ ____
ROOT
ATOM      1  N   UNL     1      -0.304  10.495  18.689  0.00  0.00    +0.000 N 
ATOM      2  C   UNL     1      -0.355  11.676  19.377  0.00  0.00    +0.000 A 
ATOM      3  N   UNL     1      -1.625  12.196  19.525  0.00  0.00    +0.000 NA
ATOM      4  C   UNL     1      -1.812  13.286  20.218  0.00  0.00    +0.000 A 
ATOM      5  N   UNL     1      -3.036  13.895  20.414  0.00  0.00    +0.000 N 
ATOM      6  N   UNL     1      -0.683  13.893  20.789  0.00  0.00    +0.000 N 
ATOM      7  N   UNL     1      -0.711  14.989  21.589  0.00  0.00    +0.000 NA
ATOM      8  C   UNL     1       0.582  15.132  21.925  0.00  0.00    +0.000 A 
ATOM      9  C   UNL     1       1.417  14.163  21.333  0.00  0.00    +0.000 A 
ATOM     10  C   UNL     1       0.562  13.368  20.607  0.00  0.00    +0.000 A 
ATOM     11  N   UNL     1       0.709  12.248  19.868  0.00  0.00    +0.000 NA
ATOM     12  H   UNL     1      -1.228  10.147  18.461  0.00  0.00    +0.000 HD
ATOM     13  H   UNL     1      -3.011  14.790  20.902  0.00  0.00    +0.000 HD
ENDROOT
BRANCH   1  17
ATOM     14  C   UNL     1       2.558   7.329  19.103  0.00  0.00    +0.000 A 
ATOM     15  C   UNL     1       2.365   8.037  17.903  0.00  0.00    +0.000 A 
ATOM     16  C   UNL     1       1.454   9.099  17.782  0.00  0.00    +0.000 A 
ATOM     17  C   UNL     1       0.670   9.492  18.866  0.00  0.00    +0.000 A 
ATOM     18  C   UNL     1       0.909   8.854  20.080  0.00  0.00    +0.000 A 
ATOM     19  C   UNL     1       1.819   7.796  20.193  0.00  0.00    +0.000 A 
BRANCH  14  20
ATOM     20  N   UNL     1       3.445   6.248  19.213  0.00  0.00    +0.000 N 
BRANCH  20  22
ATOM     21  C   UNL     1       5.785   5.431  18.661  0.00  0.00    +0.000 C 
ATOM     22  C   UNL     1       4.529   6.161  18.223  0.00  0.00    +0.000 C 
ENDBRANCH  20  22
BRANCH  20  23
ATOM     23  C   UNL     1       3.092   5.092  20.056  0.00  0.00    +0.000 C 
ATOM     24  C   UNL     1       2.049   4.178  19.419  0.00  0.00    +0.000 C 
ENDBRANCH  20  23
ENDBRANCH  14  20
ENDBRANCH   1  17
BRANCH   5  25
ATOM     25  C   UNL     1      -4.277  13.233  20.524  0.00  0.00    +0.000 A 
ATOM     26  C   UNL     1      -4.888  12.581  19.446  0.00  0.00    +0.000 A 
ATOM     27  C   UNL     1      -6.110  11.918  19.603  0.00  0.00    +0.000 A 
ATOM     28  C   UNL     1      -6.754  11.924  20.837  0.00  0.00    +0.000 A 
ATOM     29  C   UNL     1      -6.179  12.597  21.911  0.00  0.00    +0.000 A 
ATOM     30  C   UNL     1      -4.947  13.243  21.756  0.00  0.00    +0.000 A 
ENDBRANCH   5  25
BRANCH   9  31
ATOM     31  C   UNL     1       2.826  14.007  21.462  0.00  0.00    +0.000 C 
ATOM     32  N   UNL     1       3.976  13.853  21.525  0.00  0.00    +0.000 NA
ENDBRANCH   9  31
TORSDOF 6
ENDMDL
