MODEL 1
REMARK VINA RESULT:      -4.9      0.000      0.000
REMARK  Name = 
REMARK  1 active torsions:
REMARK  status: ('A' for Active; 'I' for Inactive)
REMARK    1  A    between atoms: O_1  and  C_2
REMARK                            x       y       z     vdW  Elec       q    Type
REMARK                         _______ _______ _______ _____ _____    ______ ____
ROOT
ATOM      1  C   UNL     1       7.246   4.721  16.995  0.00  0.00    +0.000 A 
ATOM      2  N   UNL     1       7.407   4.765  15.657  0.00  0.00    +0.000 NA
ATOM      3  N   UNL     1       6.482   5.405  14.899  0.00  0.00    +0.000 NA
ATOM      4  C   UNL     1       5.422   5.984  15.505  0.00  0.00    +0.000 A 
ATOM      5  C   UNL     1       5.233   5.953  16.875  0.00  0.00    +0.000 A 
ATOM      6 CL   UNL     1       3.838   6.727  17.532  0.00  0.00    +0.000 Cl
ATOM      7  C   UNL     1       6.177   5.299  17.656  0.00  0.00    +0.000 A 
ATOM      8 CL   UNL     1       6.045   5.198  19.375  0.00  0.00    +0.000 Cl
ENDROOT
BRANCH   1   9
ATOM      9  O   UNL     1       8.232   4.052  17.655  0.00  0.00    +0.000 OA
ATOM     10  H   UNL     1       8.962   4.697  17.645  0.00  0.00    +0.000 HD
ENDBRANCH   1   9
TORSDOF 1
ENDMDL
MODEL 2
REMARK VINA RESULT:      -4.9      2.379      2.850
REMARK  Name = 
REMARK  1 active torsions:
REMARK  status: ('A' for Active; 'I' for Inactive)
REMARK    1  A    between atoms: O_1  and  C_2
REMARK                            x       y       z     vdW  Elec       q    Type
REMARK                         _______ _______ _______ _____ _____    ______ ____
ROOT
ATOM      1  C   UNL     1       6.996   4.668  17.400  0.00  0.00    +0.000 A 
ATOM      2  N   UNL     1       7.397   4.910  18.665  0.00  0.00    +0.000 NA
ATOM      3  N   UNL     1       6.464   5.158  19.618  0.00  0.00    +0.000 NA
ATOM      4  C   UNL     1       5.157   5.156  19.277  0.00  0.00    +0.000 A 
ATOM      5  C   UNL     1       4.720   4.911  17.987  0.00  0.00    +0.000 A 
ATOM      6 CL   UNL     1       3.024   4.936  17.672  0.00  0.00    +0.000 Cl
ATOM      7  C   UNL     1       5.671   4.655  17.007  0.00  0.00    +0.000 A 
ATOM      8 CL   UNL     1       5.242   4.335  15.365  0.00  0.00    +0.000 Cl
ENDROOT
BRANCH   1   9
ATOM      9  O   UNL     1       8.015   4.433  16.527  0.00  0.00    +0.000 OA
ATOM     10  H   UNL     1       8.133   3.469  16.601  0.00  0.00    +0.000 HD
ENDBRANCH   1   9
TORSDOF 1
ENDMDL
MODEL 3
REMARK VINA RESULT:      -4.8      2.924      3.484
REMARK  Name = 
REMARK  1 active torsions:
REMARK  status: ('A' for Active; 'I' for Inactive)
REMARK    1  A    between atoms: O_1  and  C_2
REMARK                            x       y       z     vdW  Elec       q    Type
REMARK                         _______ _______ _______ _____ _____    ______ ____
ROOT
ATOM      1  C   UNL     1       5.451   5.163  19.130  0.00  0.00    +0.000 A 
ATOM      2  N   UNL     1       6.682   5.323  19.658  0.00  0.00    +0.000 NA
ATOM      3  N   UNL     1       7.770   5.053  18.894  0.00  0.00    +0.000 NA
ATOM      4  C   UNL     1       7.593   4.630  17.623  0.00  0.00    +0.000 A 
ATOM      5  C   UNL     1       6.342   4.457  17.058  0.00  0.00    +0.000 A 
ATOM      6 CL   UNL     1       6.243   3.910  15.425  0.00  0.00    +0.000 Cl
ATOM      7  C   UNL     1       5.224   4.733  17.835  0.00  0.00    +0.000 A 
ATOM      8 CL   UNL     1       3.615   4.555  17.236  0.00  0.00    +0.000 Cl
ENDROOT
BRANCH   1   9
ATOM      9  O   UNL     1       4.434   5.462  19.985  0.00  0.00    +0.000 OA
ATOM     10  H   UNL     1       4.230   6.385  19.750  0.00  0.00    +0.000 HD
ENDBRANCH   1   9
TORSDOF 1
ENDMDL
MODEL 4
REMARK VINA RESULT:      -4.7      3.717      3.897
REMARK  Name = 
REMARK  1 active torsions:
REMARK  status: ('A' for Active; 'I' for Inactive)
REMARK    1  A    between atoms: O_1  and  C_2
REMARK                            x       y       z     vdW  Elec       q    Type
REMARK                         _______ _______ _______ _____ _____    ______ ____
ROOT
ATOM      1  C   UNL     1       4.624   3.129  19.374  0.00  0.00    +0.000 A 
ATOM      2  N   UNL     1       5.511   4.138  19.253  0.00  0.00    +0.000 NA
ATOM      3  N   UNL     1       5.134   5.278  18.622  0.00  0.00    +0.000 NA
ATOM      4  C   UNL     1       3.880   5.374  18.130  0.00  0.00    +0.000 A 
ATOM      5  C   UNL     1       2.951   4.354  18.241  0.00  0.00    +0.000 A 
ATOM      6 CL   UNL     1       1.380   4.594  17.571  0.00  0.00    +0.000 Cl
ATOM      7  C   UNL     1       3.331   3.185  18.887  0.00  0.00    +0.000 A 
ATOM      8 CL   UNL     1       2.257   1.848  19.085  0.00  0.00    +0.000 Cl
ENDROOT
BRANCH   1   9
ATOM      9  O   UNL     1       5.109   2.034  20.023  0.00  0.00    +0.000 OA
ATOM     10  H   UNL     1       4.807   1.305  19.453  0.00  0.00    +0.000 HD
ENDBRANCH   1   9
TORSDOF 1
ENDMDL
MODEL 5
REMARK VINA RESULT:      -4.6      2.654      2.782
REMARK  Name = 
REMARK  1 active torsions:
REMARK  status: ('A' for Active; 'I' for Inactive)
REMARK    1  A    between atoms: O_1  and  C_2
REMARK                            x       y       z     vdW  Elec       q    Type
REMARK                         _______ _______ _______ _____ _____    ______ ____
ROOT
ATOM      1  C   UNL     1       6.445   5.209  19.035  0.00  0.00    +0.000 A 
ATOM      2  N   UNL     1       5.620   4.174  19.291  0.00  0.00    +0.000 NA
ATOM      3  N   UNL     1       4.654   3.859  18.391  0.00  0.00    +0.000 NA
ATOM      4  C   UNL     1       4.543   4.591  17.261  0.00  0.00    +0.000 A 
ATOM      5  C   UNL     1       5.377   5.658  16.975  0.00  0.00    +0.000 A 
ATOM      6 CL   UNL     1       5.137   6.518  15.499  0.00  0.00    +0.000 Cl
ATOM      7  C   UNL     1       6.368   5.984  17.892  0.00  0.00    +0.000 A 
ATOM      8 CL   UNL     1       7.465   7.293  17.640  0.00  0.00    +0.000 Cl
ENDROOT
BRANCH   1   9
ATOM      9  O   UNL     1       7.374   5.435  20.005  0.00  0.00    +0.000 OA
ATOM     10  H   UNL     1       7.317   6.400  20.125  0.00  0.00    +0.000 HD
ENDBRANCH   1   9
TORSDOF 1
ENDMDL
MODEL 6
REMARK VINA RESULT:      -4.6      1.825      2.615
REMARK  Name = 
REMARK  1 active torsions:
REMARK  status: ('A' for Active; 'I' for Inactive)
REMARK    1  A    between atoms: O_1  and  C_2
REMARK                            x       y       z     vdW  Elec       q    Type
REMARK                         _______ _______ _______ _____ _____    ______ ____
ROOT
ATOM      1  C   UNL     1       7.106   5.253  16.168  0.00  0.00    +0.000 A 
ATOM      2  N   UNL     1       7.858   4.571  17.055  0.00  0.00    +0.000 NA
ATOM      3  N   UNL     1       7.411   4.422  18.326  0.00  0.00    +0.000 NA
ATOM      4  C   UNL     1       6.221   4.961  18.673  0.00  0.00    +0.000 A 
ATOM      5  C   UNL     1       5.430   5.666  17.783  0.00  0.00    +0.000 A 
ATOM      6 CL   UNL     1       3.931   6.309  18.343  0.00  0.00    +0.000 Cl
ATOM      7  C   UNL     1       5.883   5.820  16.479  0.00  0.00    +0.000 A 
ATOM      8 CL   UNL     1       4.980   6.678  15.283  0.00  0.00    +0.000 Cl
ENDROOT
BRANCH   1   9
ATOM      9  O   UNL     1       7.652   5.341  14.923  0.00  0.00    +0.000 OA
ATOM     10  H   UNL     1       7.551   6.288  14.719  0.00  0.00    +0.000 HD
ENDBRANCH   1   9
TORSDOF 1
ENDMDL
MODEL 7
REMARK VINA RESULT:      -4.6      5.216      5.450
REMARK  Name = 
REMARK  1 active torsions:
REMARK  status: ('A' for Active; 'I' for Inactive)
REMARK    1  A    between atoms: O_1  and  C_2
REMARK                            x       y       z     vdW  Elec       q    Type
REMARK                         _______ _______ _______ _____ _____    ______ ____
ROOT
ATOM      1  C   UNL     1       3.911   2.536  20.107  0.00  0.00    +0.000 A 
ATOM      2  N   UNL     1       3.277   2.525  21.297  0.00  0.00    +0.000 NA
ATOM      3  N   UNL     1       2.054   3.101  21.402  0.00  0.00    +0.000 NA
ATOM      4  C   UNL     1       1.500   3.673  20.310  0.00  0.00    +0.000 A 
ATOM      5  C   UNL     1       2.129   3.699  19.077  0.00  0.00    +0.000 A 
ATOM      6 CL   UNL     1       1.323   4.461  17.757  0.00  0.00    +0.000 Cl
ATOM      7  C   UNL     1       3.381   3.109  18.965  0.00  0.00    +0.000 A 
ATOM      8 CL   UNL     1       4.259   3.081  17.477  0.00  0.00    +0.000 Cl
ENDROOT
BRANCH   1   9
ATOM      9  O   UNL     1       5.131   1.931  20.117  0.00  0.00    +0.000 OA
ATOM     10  H   UNL     1       4.932   1.071  20.528  0.00  0.00    +0.000 HD
ENDBRANCH   1   9
TORSDOF 1
ENDMDL
MODEL 8
REMARK VINA RESULT:      -4.6      2.573      3.108
REMARK  Name = 
REMARK  1 active torsions:
REMARK  status: ('A' for Active; 'I' for Inactive)
REMARK    1  A    between atoms: O_1  and  C_2
REMARK                            x       y       z     vdW  Elec       q    Type
REMARK                         _______ _______ _______ _____ _____    ______ ____
ROOT
ATOM      1  C   UNL     1       7.030   6.456  17.562  0.00  0.00    +0.000 A 
ATOM      2  N   UNL     1       7.609   6.113  18.730  0.00  0.00    +0.000 NA
ATOM      3  N   UNL     1       6.899   5.393  19.635  0.00  0.00    +0.000 NA
ATOM      4  C   UNL     1       5.628   5.038  19.342  0.00  0.00    +0.000 A 
ATOM      5  C   UNL     1       5.011   5.377  18.150  0.00  0.00    +0.000 A 
ATOM      6 CL   UNL     1       3.384   4.867  17.891  0.00  0.00    +0.000 Cl
ATOM      7  C   UNL     1       5.734   6.113  17.221  0.00  0.00    +0.000 A 
ATOM      8 CL   UNL     1       5.068   6.592  15.701  0.00  0.00    +0.000 Cl
ENDROOT
BRANCH   1   9
ATOM      9  O   UNL     1       7.833   7.177  16.731  0.00  0.00    +0.000 OA
ATOM     10  H   UNL     1       7.296   7.234  15.921  0.00  0.00    +0.000 HD
ENDBRANCH   1   9
TORSDOF 1
ENDMDL
MODEL 9
REMARK VINA RESULT:      -4.5      2.000      2.284
REMARK  Name = 
REMARK  1 active torsions:
REMARK  status: ('A' for Active; 'I' for Inactive)
REMARK    1  A    between atoms: O_1  and  C_2
REMARK                            x       y       z     vdW  Elec       q    Type
REMARK                         _______ _______ _______ _____ _____    ______ ____
ROOT
ATOM      1  C   UNL     1       6.368   4.444  15.694  0.00  0.00    +0.000 A 
ATOM      2  N   UNL     1       7.318   5.372  15.463  0.00  0.00    +0.000 NA
ATOM      3  N   UNL     1       7.530   6.346  16.383  0.00  0.00    +0.000 NA
ATOM      4  C   UNL     1       6.783   6.362  17.509  0.00  0.00    +0.000 A 
ATOM      5  C   UNL     1       5.802   5.421  17.770  0.00  0.00    +0.000 A 
ATOM      6 CL   UNL     1       4.912   5.546  19.242  0.00  0.00    +0.000 Cl
ATOM      7  C   UNL     1       5.582   4.421  16.832  0.00  0.00    +0.000 A 
ATOM      8 CL   UNL     1       4.387   3.195  17.052  0.00  0.00    +0.000 Cl
ENDROOT
BRANCH   1   9
ATOM      9  O   UNL     1       6.242   3.516  14.705  0.00  0.00    +0.000 OA
ATOM     10  H   UNL     1       6.343   4.055  13.901  0.00  0.00    +0.000 HD
ENDBRANCH   1   9
TORSDOF 1
ENDMDL
