MODEL 1
REMARK VINA RESULT:      -8.9      0.000      0.000
REMARK  Name = 
REMARK  8 active torsions:
REMARK  status: ('A' for Active; 'I' for Inactive)
REMARK    1  A    between atoms: C_1  and  C_2
REMARK    2  A    between atoms: C_2  and  C_3
REMARK    3  A    between atoms: C_2  and  O_4
REMARK    4  A    between atoms: O_4  and  C_5
REMARK    5  A    between atoms: C_8  and  C_9
REMARK    6  A    between atoms: N_11  and  C_12
REMARK    7  A    between atoms: C_12  and  C_13
REMARK    8  A    between atoms: C_20  and  C_21
REMARK                            x       y       z     vdW  Elec       q    Type
REMARK                         _______ _______ _______ _____ _____    ______ ____
ROOT
ATOM      1  C   UNL     1       2.182   7.855  18.408  0.00  0.00    +0.000 C 
ATOM      2  C   UNL     1       2.015   7.640  19.901  0.00  0.00    +0.000 C 
ATOM      3  C   UNL     1       2.439   6.220  19.877  0.00  0.00    +0.000 A 
ATOM      4  C   UNL     1       1.983   5.180  20.657  0.00  0.00    +0.000 A 
ATOM      5  C   UNL     1       2.513   3.924  20.413  0.00  0.00    +0.000 A 
ATOM      6 CL   UNL     1       1.896   2.560  21.260  0.00  0.00    +0.000 Cl
ATOM      7  C   UNL     1       3.536   3.753  19.468  0.00  0.00    +0.000 A 
ATOM      8  C   UNL     1       4.027   4.817  18.657  0.00  0.00    +0.000 A 
ATOM      9  C   UNL     1       3.381   6.040  18.845  0.00  0.00    +0.000 A 
ATOM     10  O   UNL     1       3.446   7.195  18.061  0.00  0.00    +0.000 OA
ENDROOT
BRANCH   8  11
ATOM     11  C   UNL     1       5.128   4.536  17.713  0.00  0.00    +0.000 A 
ATOM     12  N   UNL     1       6.374   4.867  18.131  0.00  0.00    +0.000 NA
ATOM     13  C   UNL     1       7.393   4.677  17.277  0.00  0.00    +0.000 A 
ATOM     14  C   UNL     1       7.223   4.169  16.017  0.00  0.00    +0.000 A 
ATOM     15  C   UNL     1       5.923   3.885  15.667  0.00  0.00    +0.000 A 
ATOM     16  N   UNL     1       4.861   4.060  16.486  0.00  0.00    +0.000 NA
ENDBRANCH   8  11
BRANCH   1  17
ATOM     17  C   UNL     1       2.022   9.318  17.976  0.00  0.00    +0.000 C 
BRANCH  17  20
ATOM     18  C   UNL     1       0.032  10.591  18.749  0.00  0.00    +0.000 C 
ATOM     19  O   UNL     1       0.627  11.048  19.716  0.00  0.00    +0.000 OA
ATOM     20  N   UNL     1       0.653   9.772  17.815  0.00  0.00    +0.000 N 
ATOM     21  H   UNL     1       0.146   9.386  17.040  0.00  0.00    +0.000 HD
BRANCH  18  25
ATOM     22  C   UNL     1      -4.126  11.675  18.202  0.00  0.00    +0.000 A 
ATOM     23  C   UNL     1      -3.373  12.197  19.254  0.00  0.00    +0.000 A 
ATOM     24  C   UNL     1      -2.031  11.821  19.416  0.00  0.00    +0.000 A 
ATOM     25  C   UNL     1      -1.419  10.909  18.541  0.00  0.00    +0.000 A 
ATOM     26  C   UNL     1      -2.190  10.361  17.512  0.00  0.00    +0.000 A 
ATOM     27  C   UNL     1      -3.531  10.743  17.350  0.00  0.00    +0.000 A 
BRANCH  22  28
ATOM     28  O   UNL     1      -5.424  11.980  17.904  0.00  0.00    +0.000 OA
BRANCH  28  30
ATOM     29  C   UNL     1      -7.594  12.730  18.567  0.00  0.00    +0.000 C 
ATOM     30  C   UNL     1      -6.432  11.798  18.905  0.00  0.00    +0.000 C 
ATOM     31  C   UNL     1      -6.909  10.349  18.894  0.00  0.00    +0.000 C 
ENDBRANCH  28  30
ENDBRANCH  22  28
ENDBRANCH  18  25
ENDBRANCH  17  20
ENDBRANCH   1  17
TORSDOF 6
ENDMDL
MODEL 2
REMARK VINA RESULT:      -8.9      1.079      1.679
REMARK  Name = 
REMARK  8 active torsions:
REMARK  status: ('A' for Active; 'I' for Inactive)
REMARK    1  A    between atoms: C_1  and  C_2
REMARK    2  A    between atoms: C_2  and  C_3
REMARK    3  A    between atoms: C_2  and  O_4
REMARK    4  A    between atoms: O_4  and  C_5
REMARK    5  A    between atoms: C_8  and  C_9
REMARK    6  A    between atoms: N_11  and  C_12
REMARK    7  A    between atoms: C_12  and  C_13
REMARK    8  A    between atoms: C_20  and  C_21
REMARK                            x       y       z     vdW  Elec       q    Type
REMARK                         _______ _______ _______ _____ _____    ______ ____
ROOT
ATOM      1  C   UNL     1       2.364   7.848  18.071  0.00  0.00    +0.000 C 
ATOM      2  C   UNL     1       2.221   7.218  19.444  0.00  0.00    +0.000 C 
ATOM      3  C   UNL     1       2.610   5.856  19.005  0.00  0.00    +0.000 A 
ATOM      4  C   UNL     1       2.145   4.645  19.467  0.00  0.00    +0.000 A 
ATOM      5  C   UNL     1       2.640   3.503  18.861  0.00  0.00    +0.000 A 
ATOM      6 CL   UNL     1       2.008   1.964  19.299  0.00  0.00    +0.000 Cl
ATOM      7  C   UNL     1       3.639   3.591  17.879  0.00  0.00    +0.000 A 
ATOM      8  C   UNL     1       4.139   4.834  17.393  0.00  0.00    +0.000 A 
ATOM      9  C   UNL     1       3.527   5.963  17.940  0.00  0.00    +0.000 A 
ATOM     10  O   UNL     1       3.604   7.293  17.517  0.00  0.00    +0.000 OA
ENDROOT
BRANCH   8  11
ATOM     11  C   UNL     1       5.213   4.816  16.380  0.00  0.00    +0.000 A 
ATOM     12  N   UNL     1       4.939   4.159  15.227  0.00  0.00    +0.000 NA
ATOM     13  C   UNL     1       5.913   4.075  14.306  0.00  0.00    +0.000 A 
ATOM     14  C   UNL     1       7.156   4.618  14.486  0.00  0.00    +0.000 A 
ATOM     15  C   UNL     1       7.356   5.244  15.695  0.00  0.00    +0.000 A 
ATOM     16  N   UNL     1       6.412   5.355  16.657  0.00  0.00    +0.000 NA
ENDBRANCH   8  11
BRANCH   1  17
ATOM     17  C   UNL     1       2.230   9.375  18.079  0.00  0.00    +0.000 C 
BRANCH  17  20
ATOM     18  C   UNL     1      -0.050  10.159  18.688  0.00  0.00    +0.000 C 
ATOM     19  O   UNL     1       0.175  10.067  19.888  0.00  0.00    +0.000 OA
ATOM     20  N   UNL     1       0.917   9.887  17.729  0.00  0.00    +0.000 N 
ATOM     21  H   UNL     1       0.711   9.943  16.748  0.00  0.00    +0.000 HD
BRANCH  18  25
ATOM     22  C   UNL     1      -3.998  11.198  17.242  0.00  0.00    +0.000 A 
ATOM     23  C   UNL     1      -3.184  10.303  16.547  0.00  0.00    +0.000 A 
ATOM     24  C   UNL     1      -1.905   9.991  17.031  0.00  0.00    +0.000 A 
ATOM     25  C   UNL     1      -1.408  10.576  18.208  0.00  0.00    +0.000 A 
ATOM     26  C   UNL     1      -2.214  11.501  18.877  0.00  0.00    +0.000 A 
ATOM     27  C   UNL     1      -3.496  11.806  18.393  0.00  0.00    +0.000 A 
BRANCH  22  28
ATOM     28  O   UNL     1      -5.272  11.562  16.909  0.00  0.00    +0.000 OA
BRANCH  28  30
ATOM     29  C   UNL     1      -6.915  13.277  17.177  0.00  0.00    +0.000 C 
ATOM     30  C   UNL     1      -6.095  12.204  17.891  0.00  0.00    +0.000 C 
ATOM     31  C   UNL     1      -7.026  11.178  18.529  0.00  0.00    +0.000 C 
ENDBRANCH  28  30
ENDBRANCH  22  28
ENDBRANCH  18  25
ENDBRANCH  17  20
ENDBRANCH   1  17
TORSDOF 6
ENDMDL
MODEL 3
REMARK VINA RESULT:      -8.9      0.584      1.386
REMARK  Name = 
REMARK  8 active torsions:
REMARK  status: ('A' for Active; 'I' for Inactive)
REMARK    1  A    between atoms: C_1  and  C_2
REMARK    2  A    between atoms: C_2  and  C_3
REMARK    3  A    between atoms: C_2  and  O_4
REMARK    4  A    between atoms: O_4  and  C_5
REMARK    5  A    between atoms: C_8  and  C_9
REMARK    6  A    between atoms: N_11  and  C_12
REMARK    7  A    between atoms: C_12  and  C_13
REMARK    8  A    between atoms: C_20  and  C_21
REMARK                            x       y       z     vdW  Elec       q    Type
REMARK                         _______ _______ _______ _____ _____    ______ ____
ROOT
ATOM      1  C   UNL     1       2.089   7.984  18.459  0.00  0.00    +0.000 C 
ATOM      2  C   UNL     1       1.851   7.770  19.942  0.00  0.00    +0.000 C 
ATOM      3  C   UNL     1       2.354   6.375  19.956  0.00  0.00    +0.000 A 
ATOM      4  C   UNL     1       1.915   5.317  20.719  0.00  0.00    +0.000 A 
ATOM      5  C   UNL     1       2.528   4.092  20.517  0.00  0.00    +0.000 A 
ATOM      6 CL   UNL     1       1.942   2.700  21.342  0.00  0.00    +0.000 Cl
ATOM      7  C   UNL     1       3.610   3.972  19.632  0.00  0.00    +0.000 A 
ATOM      8  C   UNL     1       4.084   5.057  18.838  0.00  0.00    +0.000 A 
ATOM      9  C   UNL     1       3.361   6.243  18.979  0.00  0.00    +0.000 A 
ATOM     10  O   UNL     1       3.405   7.394  18.189  0.00  0.00    +0.000 OA
ENDROOT
BRANCH   8  11
ATOM     11  C   UNL     1       5.250   4.833  17.960  0.00  0.00    +0.000 A 
ATOM     12  N   UNL     1       4.980   4.604  16.652  0.00  0.00    +0.000 NA
ATOM     13  C   UNL     1       6.013   4.341  15.835  0.00  0.00    +0.000 A 
ATOM     14  C   UNL     1       7.311   4.295  16.268  0.00  0.00    +0.000 A 
ATOM     15  C   UNL     1       7.490   4.513  17.614  0.00  0.00    +0.000 A 
ATOM     16  N   UNL     1       6.488   4.779  18.480  0.00  0.00    +0.000 NA
ENDBRANCH   8  11
BRANCH   1  17
ATOM     17  C   UNL     1       1.871   9.432  18.005  0.00  0.00    +0.000 C 
BRANCH  17  20
ATOM     18  C   UNL     1      -0.164  10.746  18.568  0.00  0.00    +0.000 C 
ATOM     19  O   UNL     1       0.411  11.369  19.451  0.00  0.00    +0.000 OA
ATOM     20  N   UNL     1       0.488   9.811  17.774  0.00  0.00    +0.000 N 
ATOM     21  H   UNL     1      -0.002   9.291  17.070  0.00  0.00    +0.000 HD
BRANCH  18  25
ATOM     22  C   UNL     1      -4.393  11.248  17.779  0.00  0.00    +0.000 A 
ATOM     23  C   UNL     1      -3.599  10.427  16.977  0.00  0.00    +0.000 A 
ATOM     24  C   UNL     1      -2.229  10.290  17.247  0.00  0.00    +0.000 A 
ATOM     25  C   UNL     1      -1.623  10.978  18.312  0.00  0.00    +0.000 A 
ATOM     26  C   UNL     1      -2.418  11.828  19.087  0.00  0.00    +0.000 A 
ATOM     27  C   UNL     1      -3.790  11.958  18.816  0.00  0.00    +0.000 A 
BRANCH  22  28
ATOM     28  O   UNL     1      -5.739  11.443  17.655  0.00  0.00    +0.000 OA
BRANCH  28  30
ATOM     29  C   UNL     1      -6.851  13.421  16.902  0.00  0.00    +0.000 C 
ATOM     30  C   UNL     1      -6.313  12.672  18.120  0.00  0.00    +0.000 C 
ATOM     31  C   UNL     1      -7.452  12.370  19.088  0.00  0.00    +0.000 C 
ENDBRANCH  28  30
ENDBRANCH  22  28
ENDBRANCH  18  25
ENDBRANCH  17  20
ENDBRANCH   1  17
TORSDOF 6
ENDMDL
MODEL 4
REMARK VINA RESULT:      -8.6      4.985      9.561
REMARK  Name = 
REMARK  8 active torsions:
REMARK  status: ('A' for Active; 'I' for Inactive)
REMARK    1  A    between atoms: C_1  and  C_2
REMARK    2  A    between atoms: C_2  and  C_3
REMARK    3  A    between atoms: C_2  and  O_4
REMARK    4  A    between atoms: O_4  and  C_5
REMARK    5  A    between atoms: C_8  and  C_9
REMARK    6  A    between atoms: N_11  and  C_12
REMARK    7  A    between atoms: C_12  and  C_13
REMARK    8  A    between atoms: C_20  and  C_21
REMARK                            x       y       z     vdW  Elec       q    Type
REMARK                         _______ _______ _______ _____ _____    ______ ____
ROOT
ATOM      1  C   UNL     1       6.258   5.413  19.152  0.00  0.00    +0.000 C 
ATOM      2  C   UNL     1       5.795   4.015  18.786  0.00  0.00    +0.000 C 
ATOM      3  C   UNL     1       4.423   4.186  19.323  0.00  0.00    +0.000 A 
ATOM      4  C   UNL     1       3.621   3.246  19.930  0.00  0.00    +0.000 A 
ATOM      5  C   UNL     1       2.383   3.667  20.386  0.00  0.00    +0.000 A 
ATOM      6 CL   UNL     1       1.384   2.579  21.268  0.00  0.00    +0.000 Cl
ATOM      7  C   UNL     1       1.945   4.979  20.150  0.00  0.00    +0.000 A 
ATOM      8  C   UNL     1       2.757   5.965  19.517  0.00  0.00    +0.000 A 
ATOM      9  C   UNL     1       4.043   5.536  19.185  0.00  0.00    +0.000 A 
ATOM     10  O   UNL     1       5.145   6.297  18.787  0.00  0.00    +0.000 OA
ENDROOT
BRANCH   8  11
ATOM     11  C   UNL     1       2.188   7.308  19.290  0.00  0.00    +0.000 A 
ATOM     12  N   UNL     1       2.314   7.808  18.036  0.00  0.00    +0.000 NA
ATOM     13  C   UNL     1       1.857   9.050  17.807  0.00  0.00    +0.000 A 
ATOM     14  C   UNL     1       1.278   9.821  18.779  0.00  0.00    +0.000 A 
ATOM     15  C   UNL     1       1.215   9.245  20.027  0.00  0.00    +0.000 A 
ATOM     16  N   UNL     1       1.661   8.001  20.313  0.00  0.00    +0.000 NA
ENDBRANCH   8  11
BRANCH   1  17
ATOM     17  C   UNL     1       7.639   5.770  18.592  0.00  0.00    +0.000 C 
BRANCH  17  20
ATOM     18  C   UNL     1       7.899   8.148  17.913  0.00  0.00    +0.000 C 
ATOM     19  O   UNL     1       7.280   7.979  16.870  0.00  0.00    +0.000 OA
ATOM     20  N   UNL     1       8.080   7.130  18.841  0.00  0.00    +0.000 N 
ATOM     21  H   UNL     1       8.610   7.277  19.681  0.00  0.00    +0.000 HD
BRANCH  18  25
ATOM     22  C   UNL     1       9.458  12.096  18.770  0.00  0.00    +0.000 A 
ATOM     23  C   UNL     1       8.577  11.879  17.711  0.00  0.00    +0.000 A 
ATOM     24  C   UNL     1       8.095  10.589  17.447  0.00  0.00    +0.000 A 
ATOM     25  C   UNL     1       8.492   9.489  18.226  0.00  0.00    +0.000 A 
ATOM     26  C   UNL     1       9.405   9.708  19.262  0.00  0.00    +0.000 A 
ATOM     27  C   UNL     1       9.881  11.002  19.525  0.00  0.00    +0.000 A 
BRANCH  22  28
ATOM     28  O   UNL     1       9.974  13.299  19.163  0.00  0.00    +0.000 OA
BRANCH  28  30
ATOM     29  C   UNL     1      11.024  14.570  17.433  0.00  0.00    +0.000 C 
ATOM     30  C   UNL     1      11.257  13.704  18.669  0.00  0.00    +0.000 C 
ATOM     31  C   UNL     1      11.985  14.511  19.739  0.00  0.00    +0.000 C 
ENDBRANCH  28  30
ENDBRANCH  22  28
ENDBRANCH  18  25
ENDBRANCH  17  20
ENDBRANCH   1  17
TORSDOF 6
ENDMDL
MODEL 5
REMARK VINA RESULT:      -8.5      4.833      9.243
REMARK  Name = 
REMARK  8 active torsions:
REMARK  status: ('A' for Active; 'I' for Inactive)
REMARK    1  A    between atoms: C_1  and  C_2
REMARK    2  A    between atoms: C_2  and  C_3
REMARK    3  A    between atoms: C_2  and  O_4
REMARK    4  A    between atoms: O_4  and  C_5
REMARK    5  A    between atoms: C_8  and  C_9
REMARK    6  A    between atoms: N_11  and  C_12
REMARK    7  A    between atoms: C_12  and  C_13
REMARK    8  A    between atoms: C_20  and  C_21
REMARK                            x       y       z     vdW  Elec       q    Type
REMARK                         _______ _______ _______ _____ _____    ______ ____
ROOT
ATOM      1  C   UNL     1       6.372   5.431  19.118  0.00  0.00    +0.000 C 
ATOM      2  C   UNL     1       5.920   4.049  18.686  0.00  0.00    +0.000 C 
ATOM      3  C   UNL     1       4.541   4.192  19.213  0.00  0.00    +0.000 A 
ATOM      4  C   UNL     1       3.735   3.223  19.768  0.00  0.00    +0.000 A 
ATOM      5  C   UNL     1       2.490   3.620  20.226  0.00  0.00    +0.000 A 
ATOM      6 CL   UNL     1       1.484   2.491  21.048  0.00  0.00    +0.000 Cl
ATOM      7  C   UNL     1       2.049   4.940  20.041  0.00  0.00    +0.000 A 
ATOM      8  C   UNL     1       2.865   5.954  19.462  0.00  0.00    +0.000 A 
ATOM      9  C   UNL     1       4.157   5.545  19.127  0.00  0.00    +0.000 A 
ATOM     10  O   UNL     1       5.260   6.326  18.777  0.00  0.00    +0.000 OA
ENDROOT
BRANCH   8  11
ATOM     11  C   UNL     1       2.293   7.305  19.285  0.00  0.00    +0.000 A 
ATOM     12  N   UNL     1       1.737   7.869  20.385  0.00  0.00    +0.000 NA
ATOM     13  C   UNL     1       1.158   9.073  20.247  0.00  0.00    +0.000 A 
ATOM     14  C   UNL     1       1.108   9.743  19.054  0.00  0.00    +0.000 A 
ATOM     15  C   UNL     1       1.675   9.086  17.986  0.00  0.00    +0.000 A 
ATOM     16  N   UNL     1       2.267   7.873  18.068  0.00  0.00    +0.000 NA
ENDBRANCH   8  11
BRANCH   1  17
ATOM     17  C   UNL     1       7.760   5.816  18.590  0.00  0.00    +0.000 C 
BRANCH  17  20
ATOM     18  C   UNL     1       7.987   8.217  17.984  0.00  0.00    +0.000 C 
ATOM     19  O   UNL     1       7.373   8.071  16.935  0.00  0.00    +0.000 OA
ATOM     20  N   UNL     1       8.181   7.174  18.881  0.00  0.00    +0.000 N 
ATOM     21  H   UNL     1       8.707   7.304  19.726  0.00  0.00    +0.000 HD
BRANCH  18  25
ATOM     22  C   UNL     1       9.500  12.161  18.940  0.00  0.00    +0.000 A 
ATOM     23  C   UNL     1       8.758  11.930  17.781  0.00  0.00    +0.000 A 
ATOM     24  C   UNL     1       8.289  10.641  17.488  0.00  0.00    +0.000 A 
ATOM     25  C   UNL     1       8.562   9.556  18.338  0.00  0.00    +0.000 A 
ATOM     26  C   UNL     1       9.338   9.787  19.477  0.00  0.00    +0.000 A 
ATOM     27  C   UNL     1       9.802  11.080  19.769  0.00  0.00    +0.000 A 
BRANCH  22  28
ATOM     28  O   UNL     1       9.985  13.365  19.366  0.00  0.00    +0.000 OA
BRANCH  28  30
ATOM     29  C   UNL     1      10.115  14.310  21.558  0.00  0.00    +0.000 C 
ATOM     30  C   UNL     1       9.234  14.121  20.324  0.00  0.00    +0.000 C 
ATOM     31  C   UNL     1       8.869  15.478  19.733  0.00  0.00    +0.000 C 
ENDBRANCH  28  30
ENDBRANCH  22  28
ENDBRANCH  18  25
ENDBRANCH  17  20
ENDBRANCH   1  17
TORSDOF 6
ENDMDL
MODEL 6
REMARK VINA RESULT:      -8.5      4.936      9.513
REMARK  Name = 
REMARK  8 active torsions:
REMARK  status: ('A' for Active; 'I' for Inactive)
REMARK    1  A    between atoms: C_1  and  C_2
REMARK    2  A    between atoms: C_2  and  C_3
REMARK    3  A    between atoms: C_2  and  O_4
REMARK    4  A    between atoms: O_4  and  C_5
REMARK    5  A    between atoms: C_8  and  C_9
REMARK    6  A    between atoms: N_11  and  C_12
REMARK    7  A    between atoms: C_12  and  C_13
REMARK    8  A    between atoms: C_20  and  C_21
REMARK                            x       y       z     vdW  Elec       q    Type
REMARK                         _______ _______ _______ _____ _____    ______ ____
ROOT
ATOM      1  C   UNL     1       5.715   6.015  17.856  0.00  0.00    +0.000 C 
ATOM      2  C   UNL     1       5.169   4.624  17.593  0.00  0.00    +0.000 C 
ATOM      3  C   UNL     1       4.090   4.713  18.606  0.00  0.00    +0.000 A 
ATOM      4  C   UNL     1       3.581   3.710  19.400  0.00  0.00    +0.000 A 
ATOM      5  C   UNL     1       2.592   4.058  20.306  0.00  0.00    +0.000 A 
ATOM      6 CL   UNL     1       2.004   2.885  21.418  0.00  0.00    +0.000 Cl
ATOM      7  C   UNL     1       2.080   5.365  20.335  0.00  0.00    +0.000 A 
ATOM      8  C   UNL     1       2.588   6.414  19.516  0.00  0.00    +0.000 A 
ATOM      9  C   UNL     1       3.667   6.053  18.707  0.00  0.00    +0.000 A 
ATOM     10  O   UNL     1       4.534   6.876  17.984  0.00  0.00    +0.000 OA
ENDROOT
BRANCH   8  11
ATOM     11  C   UNL     1       1.957   7.746  19.603  0.00  0.00    +0.000 A 
ATOM     12  N   UNL     1       1.456   8.094  20.814  0.00  0.00    +0.000 NA
ATOM     13  C   UNL     1       0.826   9.276  20.915  0.00  0.00    +0.000 A 
ATOM     14  C   UNL     1       0.671  10.130  19.857  0.00  0.00    +0.000 A 
ATOM     15  C   UNL     1       1.188   9.686  18.661  0.00  0.00    +0.000 A 
ATOM     16  N   UNL     1       1.828   8.506  18.503  0.00  0.00    +0.000 NA
ENDBRANCH   8  11
BRANCH   1  17
ATOM     17  C   UNL     1       6.788   6.454  16.852  0.00  0.00    +0.000 C 
BRANCH  17  20
ATOM     18  C   UNL     1       8.130   8.102  18.143  0.00  0.00    +0.000 C 
ATOM     19  O   UNL     1       8.508   7.255  18.942  0.00  0.00    +0.000 OA
ATOM     20  N   UNL     1       7.323   7.787  17.057  0.00  0.00    +0.000 N 
ATOM     21  H   UNL     1       7.001   8.496  16.423  0.00  0.00    +0.000 HD
BRANCH  18  25
ATOM     22  C   UNL     1       9.460  12.185  18.698  0.00  0.00    +0.000 A 
ATOM     23  C   UNL     1       9.888  11.162  19.546  0.00  0.00    +0.000 A 
ATOM     24  C   UNL     1       9.433   9.849  19.351  0.00  0.00    +0.000 A 
ATOM     25  C   UNL     1       8.535   9.535  18.318  0.00  0.00    +0.000 A 
ATOM     26  C   UNL     1       8.081  10.571  17.497  0.00  0.00    +0.000 A 
ATOM     27  C   UNL     1       8.543  11.883  17.692  0.00  0.00    +0.000 A 
BRANCH  22  28
ATOM     28  O   UNL     1       9.849  13.494  18.748  0.00  0.00    +0.000 OA
BRANCH  28  30
ATOM     29  C   UNL     1      10.486  15.591  17.792  0.00  0.00    +0.000 C 
ATOM     30  C   UNL     1      10.497  14.074  17.608  0.00  0.00    +0.000 C 
ATOM     31  C   UNL     1      11.934  13.572  17.526  0.00  0.00    +0.000 C 
ENDBRANCH  28  30
ENDBRANCH  22  28
ENDBRANCH  18  25
ENDBRANCH  17  20
ENDBRANCH   1  17
TORSDOF 6
ENDMDL
MODEL 7
REMARK VINA RESULT:      -8.5      1.079      1.768
REMARK  Name = 
REMARK  8 active torsions:
REMARK  status: ('A' for Active; 'I' for Inactive)
REMARK    1  A    between atoms: C_1  and  C_2
REMARK    2  A    between atoms: C_2  and  C_3
REMARK    3  A    between atoms: C_2  and  O_4
REMARK    4  A    between atoms: O_4  and  C_5
REMARK    5  A    between atoms: C_8  and  C_9
REMARK    6  A    between atoms: N_11  and  C_12
REMARK    7  A    between atoms: C_12  and  C_13
REMARK    8  A    between atoms: C_20  and  C_21
REMARK                            x       y       z     vdW  Elec       q    Type
REMARK                         _______ _______ _______ _____ _____    ______ ____
ROOT
ATOM      1  C   UNL     1       2.398   7.997  18.011  0.00  0.00    +0.000 C 
ATOM      2  C   UNL     1       2.175   7.357  19.369  0.00  0.00    +0.000 C 
ATOM      3  C   UNL     1       2.504   5.982  18.922  0.00  0.00    +0.000 A 
ATOM      4  C   UNL     1       1.959   4.793  19.351  0.00  0.00    +0.000 A 
ATOM      5  C   UNL     1       2.411   3.633  18.744  0.00  0.00    +0.000 A 
ATOM      6 CL   UNL     1       1.681   2.125  19.139  0.00  0.00    +0.000 Cl
ATOM      7  C   UNL     1       3.446   3.679  17.798  0.00  0.00    +0.000 A 
ATOM      8  C   UNL     1       4.028   4.899  17.346  0.00  0.00    +0.000 A 
ATOM      9  C   UNL     1       3.460   6.053  17.889  0.00  0.00    +0.000 A 
ATOM     10  O   UNL     1       3.623   7.381  17.489  0.00  0.00    +0.000 OA
ENDROOT
BRANCH   8  11
ATOM     11  C   UNL     1       5.133   4.835  16.369  0.00  0.00    +0.000 A 
ATOM     12  N   UNL     1       4.850   4.246  15.181  0.00  0.00    +0.000 NA
ATOM     13  C   UNL     1       5.847   4.122  14.290  0.00  0.00    +0.000 A 
ATOM     14  C   UNL     1       7.121   4.558  14.533  0.00  0.00    +0.000 A 
ATOM     15  C   UNL     1       7.325   5.119  15.772  0.00  0.00    +0.000 A 
ATOM     16  N   UNL     1       6.360   5.267  16.707  0.00  0.00    +0.000 NA
ENDBRANCH   8  11
BRANCH   1  17
ATOM     17  C   UNL     1       2.347   9.529  18.037  0.00  0.00    +0.000 C 
BRANCH  17  20
ATOM     18  C   UNL     1       0.377  10.544  19.164  0.00  0.00    +0.000 C 
ATOM     19  O   UNL     1       0.929  10.547  20.256  0.00  0.00    +0.000 OA
ATOM     20  N   UNL     1       1.016  10.108  18.010  0.00  0.00    +0.000 N 
ATOM     21  H   UNL     1       0.542  10.089  17.126  0.00  0.00    +0.000 HD
BRANCH  18  25
ATOM     22  C   UNL     1      -3.762  11.754  18.763  0.00  0.00    +0.000 A 
ATOM     23  C   UNL     1      -3.218  10.754  17.956  0.00  0.00    +0.000 A 
ATOM     24  C   UNL     1      -1.872  10.388  18.098  0.00  0.00    +0.000 A 
ATOM     25  C   UNL     1      -1.039  11.021  19.037  0.00  0.00    +0.000 A 
ATOM     26  C   UNL     1      -1.582  12.048  19.815  0.00  0.00    +0.000 A 
ATOM     27  C   UNL     1      -2.931  12.408  19.673  0.00  0.00    +0.000 A 
BRANCH  22  28
ATOM     28  O   UNL     1      -5.060  12.183  18.758  0.00  0.00    +0.000 OA
BRANCH  28  30
ATOM     29  C   UNL     1      -6.880  10.639  18.636  0.00  0.00    +0.000 C 
ATOM     30  C   UNL     1      -5.988  11.591  17.841  0.00  0.00    +0.000 C 
ATOM     31  C   UNL     1      -6.838  12.683  17.198  0.00  0.00    +0.000 C 
ENDBRANCH  28  30
ENDBRANCH  22  28
ENDBRANCH  18  25
ENDBRANCH  17  20
ENDBRANCH   1  17
TORSDOF 6
ENDMDL
MODEL 8
REMARK VINA RESULT:      -8.4      0.637      1.208
REMARK  Name = 
REMARK  8 active torsions:
REMARK  status: ('A' for Active; 'I' for Inactive)
REMARK    1  A    between atoms: C_1  and  C_2
REMARK    2  A    between atoms: C_2  and  C_3
REMARK    3  A    between atoms: C_2  and  O_4
REMARK    4  A    between atoms: O_4  and  C_5
REMARK    5  A    between atoms: C_8  and  C_9
REMARK    6  A    between atoms: N_11  and  C_12
REMARK    7  A    between atoms: C_12  and  C_13
REMARK    8  A    between atoms: C_20  and  C_21
REMARK                            x       y       z     vdW  Elec       q    Type
REMARK                         _______ _______ _______ _____ _____    ______ ____
ROOT
ATOM      1  C   UNL     1       2.049   8.220  18.341  0.00  0.00    +0.000 C 
ATOM      2  C   UNL     1       1.864   7.960  19.825  0.00  0.00    +0.000 C 
ATOM      3  C   UNL     1       2.292   6.542  19.764  0.00  0.00    +0.000 A 
ATOM      4  C   UNL     1       1.830   5.479  20.507  0.00  0.00    +0.000 A 
ATOM      5  C   UNL     1       2.366   4.232  20.233  0.00  0.00    +0.000 A 
ATOM      6 CL   UNL     1       1.743   2.841  21.031  0.00  0.00    +0.000 Cl
ATOM      7  C   UNL     1       3.401   4.092  19.295  0.00  0.00    +0.000 A 
ATOM      8  C   UNL     1       3.899   5.181  18.522  0.00  0.00    +0.000 A 
ATOM      9  C   UNL     1       3.247   6.396  18.739  0.00  0.00    +0.000 A 
ATOM     10  O   UNL     1       3.318   7.574  17.991  0.00  0.00    +0.000 OA
ENDROOT
BRANCH   8  11
ATOM     11  C   UNL     1       5.012   4.931  17.585  0.00  0.00    +0.000 A 
ATOM     12  N   UNL     1       4.743   4.112  16.539  0.00  0.00    +0.000 NA
ATOM     13  C   UNL     1       5.748   3.818  15.697  0.00  0.00    +0.000 A 
ATOM     14  C   UNL     1       7.016   4.307  15.854  0.00  0.00    +0.000 A 
ATOM     15  C   UNL     1       7.206   5.109  16.955  0.00  0.00    +0.000 A 
ATOM     16  N   UNL     1       6.232   5.434  17.835  0.00  0.00    +0.000 NA
ENDBRANCH   8  11
BRANCH   1  17
ATOM     17  C   UNL     1       1.889   9.694  17.951  0.00  0.00    +0.000 C 
BRANCH  17  20
ATOM     18  C   UNL     1       0.090  10.967  19.102  0.00  0.00    +0.000 C 
ATOM     19  O   UNL     1       0.833  11.310  20.012  0.00  0.00    +0.000 OA
ATOM     20  N   UNL     1       0.536  10.214  18.023  0.00  0.00    +0.000 N 
ATOM     21  H   UNL     1      -0.091   9.921  17.296  0.00  0.00    +0.000 HD
BRANCH  18  25
ATOM     22  C   UNL     1      -4.043  12.256  19.235  0.00  0.00    +0.000 A 
ATOM     23  C   UNL     1      -3.126  12.660  20.206  0.00  0.00    +0.000 A 
ATOM     24  C   UNL     1      -1.796  12.219  20.147  0.00  0.00    +0.000 A 
ATOM     25  C   UNL     1      -1.358  11.358  19.127  0.00  0.00    +0.000 A 
ATOM     26  C   UNL     1      -2.291  10.927  18.179  0.00  0.00    +0.000 A 
ATOM     27  C   UNL     1      -3.621  11.374  18.239  0.00  0.00    +0.000 A 
BRANCH  22  28
ATOM     28  O   UNL     1      -5.352  12.636  19.148  0.00  0.00    +0.000 OA
BRANCH  28  30
ATOM     29  C   UNL     1      -7.178  11.125  19.462  0.00  0.00    +0.000 C 
ATOM     30  C   UNL     1      -6.276  11.804  18.434  0.00  0.00    +0.000 C 
ATOM     31  C   UNL     1      -7.115  12.663  17.494  0.00  0.00    +0.000 C 
ENDBRANCH  28  30
ENDBRANCH  22  28
ENDBRANCH  18  25
ENDBRANCH  17  20
ENDBRANCH   1  17
TORSDOF 6
ENDMDL
MODEL 9
REMARK VINA RESULT:      -8.4      4.994      9.550
REMARK  Name = 
REMARK  8 active torsions:
REMARK  status: ('A' for Active; 'I' for Inactive)
REMARK    1  A    between atoms: C_1  and  C_2
REMARK    2  A    between atoms: C_2  and  C_3
REMARK    3  A    between atoms: C_2  and  O_4
REMARK    4  A    between atoms: O_4  and  C_5
REMARK    5  A    between atoms: C_8  and  C_9
REMARK    6  A    between atoms: N_11  and  C_12
REMARK    7  A    between atoms: C_12  and  C_13
REMARK    8  A    between atoms: C_20  and  C_21
REMARK                            x       y       z     vdW  Elec       q    Type
REMARK                         _______ _______ _______ _____ _____    ______ ____
ROOT
ATOM      1  C   UNL     1       6.357   5.264  18.767  0.00  0.00    +0.000 C 
ATOM      2  C   UNL     1       5.999   4.134  17.819  0.00  0.00    +0.000 C 
ATOM      3  C   UNL     1       4.542   4.195  18.085  0.00  0.00    +0.000 A 
ATOM      4  C   UNL     1       3.636   3.159  18.118  0.00  0.00    +0.000 A 
ATOM      5  C   UNL     1       2.324   3.472  18.431  0.00  0.00    +0.000 A 
ATOM      6 CL   UNL     1       1.167   2.212  18.617  0.00  0.00    +0.000 Cl
ATOM      7  C   UNL     1       1.934   4.808  18.617  0.00  0.00    +0.000 A 
ATOM      8  C   UNL     1       2.855   5.895  18.579  0.00  0.00    +0.000 A 
ATOM      9  C   UNL     1       4.187   5.526  18.384  0.00  0.00    +0.000 A 
ATOM     10  O   UNL     1       5.341   6.298  18.536  0.00  0.00    +0.000 OA
ENDROOT
BRANCH   8  11
ATOM     11  C   UNL     1       2.336   7.266  18.756  0.00  0.00    +0.000 A 
ATOM     12  N   UNL     1       2.469   8.099  17.695  0.00  0.00    +0.000 NA
ATOM     13  C   UNL     1       2.058   9.370  17.840  0.00  0.00    +0.000 A 
ATOM     14  C   UNL     1       1.519   9.850  19.004  0.00  0.00    +0.000 A 
ATOM     15  C   UNL     1       1.446   8.943  20.036  0.00  0.00    +0.000 A 
ATOM     16  N   UNL     1       1.847   7.655  19.946  0.00  0.00    +0.000 NA
ENDBRANCH   8  11
BRANCH   1  17
ATOM     17  C   UNL     1       7.824   5.699  18.678  0.00  0.00    +0.000 C 
BRANCH  17  20
ATOM     18  C   UNL     1       8.090   8.053  17.923  0.00  0.00    +0.000 C 
ATOM     19  O   UNL     1       7.812   7.775  16.764  0.00  0.00    +0.000 OA
ATOM     20  N   UNL     1       8.072   7.105  18.939  0.00  0.00    +0.000 N 
ATOM     21  H   UNL     1       8.326   7.344  19.880  0.00  0.00    +0.000 HD
BRANCH  18  25
ATOM     22  C   UNL     1       9.334  12.047  19.047  0.00  0.00    +0.000 A 
ATOM     23  C   UNL     1       9.632  10.943  19.847  0.00  0.00    +0.000 A 
ATOM     24  C   UNL     1       9.208   9.661  19.466  0.00  0.00    +0.000 A 
ATOM     25  C   UNL     1       8.468   9.458  18.289  0.00  0.00    +0.000 A 
ATOM     26  C   UNL     1       8.141  10.573  17.513  0.00  0.00    +0.000 A 
ATOM     27  C   UNL     1       8.571  11.854  17.895  0.00  0.00    +0.000 A 
BRANCH  22  28
ATOM     28  O   UNL     1       9.714  13.339  19.275  0.00  0.00    +0.000 OA
BRANCH  28  30
ATOM     29  C   UNL     1      11.731  13.763  18.065  0.00  0.00    +0.000 C 
ATOM     30  C   UNL     1      11.104  13.638  19.452  0.00  0.00    +0.000 C 
ATOM     31  C   UNL     1      11.252  14.954  20.208  0.00  0.00    +0.000 C 
ENDBRANCH  28  30
ENDBRANCH  22  28
ENDBRANCH  18  25
ENDBRANCH  17  20
ENDBRANCH   1  17
TORSDOF 6
ENDMDL
