MODEL 1
REMARK VINA RESULT:      -8.7      0.000      0.000
REMARK  Name = 
REMARK  8 active torsions:
REMARK  status: ('A' for Active; 'I' for Inactive)
REMARK    1  A    between atoms: C_3  and  C_4
REMARK    2  A    between atoms: C_6  and  O_7
REMARK    3  A    between atoms: O_7  and  C_8
REMARK    4  A    between atoms: C_8  and  C_10
REMARK    5  A    between atoms: C_11  and  C_12
REMARK    6  A    between atoms: C_18  and  C_19
REMARK    7  A    between atoms: C_23  and  C_24
REMARK    8  A    between atoms: C_26  and  C_27
REMARK                            x       y       z     vdW  Elec       q    Type
REMARK                         _______ _______ _______ _____ _____    ______ ____
ROOT
ATOM      1  C   UNL     1       1.681   8.048  20.417  0.00  0.00    +0.000 C 
ATOM      2  C   UNL     1       2.055   7.235  19.422  0.00  0.00    +0.000 C 
ATOM      3  C   UNL     1       2.396   7.717  18.040  0.00  0.00    +0.000 C 
ATOM      4  C   UNL     1       2.217   9.163  17.596  0.00  0.00    +0.000 C 
ATOM      5  C   UNL     1       3.837   7.300  17.931  0.00  0.00    +0.000 C 
ATOM      6  C   UNL     1       3.893   5.803  17.505  0.00  0.00    +0.000 C 
ATOM      7  C   UNL     1       3.489   4.914  18.813  0.00  0.00    +0.000 C 
ATOM      8  C   UNL     1       4.814   4.779  19.599  0.00  0.00    +0.000 C 
ATOM      9  C   UNL     1       2.145   5.699  19.453  0.00  0.00    +0.000 C 
ATOM     10  C   UNL     1       1.439   5.046  20.663  0.00  0.00    +0.000 C 
ATOM     11  C   UNL     1       1.105   3.619  20.276  0.00  0.00    +0.000 C 
ATOM     12  C   UNL     1       2.210   2.923  19.926  0.00  0.00    +0.000 C 
ATOM     13  C   UNL     1       2.939   3.401  18.627  0.00  0.00    +0.000 C 
ENDROOT
BRANCH  12  14
ATOM     14  C   UNL     1       3.007   2.511  21.140  0.00  0.00    +0.000 C 
ATOM     15  O   UNL     1       2.506   2.221  22.222  0.00  0.00    +0.000 OA
ENDBRANCH  12  14
BRANCH  13  16
ATOM     16  C   UNL     1       3.901   2.306  18.178  0.00  0.00    +0.000 C 
ATOM     17  O   UNL     1       3.666   1.092  18.174  0.00  0.00    +0.000 OA
ENDBRANCH  13  16
BRANCH   6  18
ATOM     18  O   UNL     1       5.236   5.716  16.937  0.00  0.00    +0.000 OA
BRANCH  18  19
ATOM     19  C   UNL     1       5.217   5.938  15.564  0.00  0.00    +0.000 C 
ATOM     20  O   UNL     1       5.169   7.060  15.064  0.00  0.00    +0.000 OA
BRANCH  19  21
ATOM     21  C   UNL     1       5.639   4.781  14.722  0.00  0.00    +0.000 C 
ATOM     22  C   UNL     1       5.720   4.737  13.380  0.00  0.00    +0.000 C 
BRANCH  22  23
ATOM     23  C   UNL     1       6.015   3.552  12.532  0.00  0.00    +0.000 A 
ATOM     24  C   UNL     1       5.048   2.662  12.039  0.00  0.00    +0.000 A 
ATOM     25  C   UNL     1       5.405   1.599  11.183  0.00  0.00    +0.000 A 
ATOM     26  C   UNL     1       6.730   1.414  10.800  0.00  0.00    +0.000 A 
ATOM     27  C   UNL     1       7.702   2.292  11.272  0.00  0.00    +0.000 A 
ATOM     28  C   UNL     1       7.346   3.351  12.124  0.00  0.00    +0.000 A 
ENDBRANCH  22  23
ENDBRANCH  19  21
ENDBRANCH  18  19
ENDBRANCH   6  18
TORSDOF 6
ENDMDL
MODEL 2
REMARK VINA RESULT:      -7.7      0.886      1.028
REMARK  Name = 
REMARK  8 active torsions:
REMARK  status: ('A' for Active; 'I' for Inactive)
REMARK    1  A    between atoms: C_3  and  C_4
REMARK    2  A    between atoms: C_6  and  O_7
REMARK    3  A    between atoms: O_7  and  C_8
REMARK    4  A    between atoms: C_8  and  C_10
REMARK    5  A    between atoms: C_11  and  C_12
REMARK    6  A    between atoms: C_18  and  C_19
REMARK    7  A    between atoms: C_23  and  C_24
REMARK    8  A    between atoms: C_26  and  C_27
REMARK                            x       y       z     vdW  Elec       q    Type
REMARK                         _______ _______ _______ _____ _____    ______ ____
ROOT
ATOM      1  C   UNL     1       1.809   7.924  20.100  0.00  0.00    +0.000 C 
ATOM      2  C   UNL     1       2.253   6.994  19.245  0.00  0.00    +0.000 C 
ATOM      3  C   UNL     1       2.895   7.320  17.925  0.00  0.00    +0.000 C 
ATOM      4  C   UNL     1       2.978   8.734  17.368  0.00  0.00    +0.000 C 
ATOM      5  C   UNL     1       4.269   6.740  18.117  0.00  0.00    +0.000 C 
ATOM      6  C   UNL     1       4.217   5.216  17.802  0.00  0.00    +0.000 C 
ATOM      7  C   UNL     1       3.477   4.488  19.063  0.00  0.00    +0.000 C 
ATOM      8  C   UNL     1       4.612   4.275  20.092  0.00  0.00    +0.000 C 
ATOM      9  C   UNL     1       2.146   5.466  19.387  0.00  0.00    +0.000 C 
ATOM     10  C   UNL     1       1.159   4.997  20.481  0.00  0.00    +0.000 C 
ATOM     11  C   UNL     1       0.727   3.588  20.126  0.00  0.00    +0.000 C 
ATOM     12  C   UNL     1       1.784   2.749  20.035  0.00  0.00    +0.000 C 
ATOM     13  C   UNL     1       2.788   3.034  18.870  0.00  0.00    +0.000 C 
ENDROOT
BRANCH  12  14
ATOM     14  C   UNL     1       2.292   2.355  21.401  0.00  0.00    +0.000 C 
ATOM     15  O   UNL     1       1.593   2.324  22.408  0.00  0.00    +0.000 OA
ENDBRANCH  12  14
BRANCH  13  16
ATOM     16  C   UNL     1       3.673   1.807  18.679  0.00  0.00    +0.000 C 
ATOM     17  O   UNL     1       4.067   1.357  17.596  0.00  0.00    +0.000 OA
ENDBRANCH  13  16
BRANCH   6  18
ATOM     18  O   UNL     1       5.619   4.935  17.505  0.00  0.00    +0.000 OA
BRANCH  18  19
ATOM     19  C   UNL     1       5.961   5.375  16.231  0.00  0.00    +0.000 C 
ATOM     20  O   UNL     1       6.846   6.201  16.018  0.00  0.00    +0.000 OA
BRANCH  19  21
ATOM     21  C   UNL     1       5.470   4.526  15.107  0.00  0.00    +0.000 C 
ATOM     22  C   UNL     1       6.142   4.181  13.993  0.00  0.00    +0.000 C 
BRANCH  22  23
ATOM     23  C   UNL     1       5.616   3.444  12.814  0.00  0.00    +0.000 A 
ATOM     24  C   UNL     1       4.413   3.744  12.156  0.00  0.00    +0.000 A 
ATOM     25  C   UNL     1       4.019   3.037  11.000  0.00  0.00    +0.000 A 
ATOM     26  C   UNL     1       4.823   2.028  10.480  0.00  0.00    +0.000 A 
ATOM     27  C   UNL     1       6.024   1.721  11.114  0.00  0.00    +0.000 A 
ATOM     28  C   UNL     1       6.416   2.426  12.265  0.00  0.00    +0.000 A 
ENDBRANCH  22  23
ENDBRANCH  19  21
ENDBRANCH  18  19
ENDBRANCH   6  18
TORSDOF 6
ENDMDL
MODEL 3
REMARK VINA RESULT:      -7.6      2.848      8.730
REMARK  Name = 
REMARK  8 active torsions:
REMARK  status: ('A' for Active; 'I' for Inactive)
REMARK    1  A    between atoms: C_3  and  C_4
REMARK    2  A    between atoms: C_6  and  O_7
REMARK    3  A    between atoms: O_7  and  C_8
REMARK    4  A    between atoms: C_8  and  C_10
REMARK    5  A    between atoms: C_11  and  C_12
REMARK    6  A    between atoms: C_18  and  C_19
REMARK    7  A    between atoms: C_23  and  C_24
REMARK    8  A    between atoms: C_26  and  C_27
REMARK                            x       y       z     vdW  Elec       q    Type
REMARK                         _______ _______ _______ _____ _____    ______ ____
ROOT
ATOM      1  C   UNL     1       3.077   1.423  18.161  0.00  0.00    +0.000 C 
ATOM      2  C   UNL     1       2.948   2.744  17.984  0.00  0.00    +0.000 C 
ATOM      3  C   UNL     1       1.697   3.507  18.319  0.00  0.00    +0.000 C 
ATOM      4  C   UNL     1       0.406   2.834  18.763  0.00  0.00    +0.000 C 
ATOM      5  C   UNL     1       2.203   4.446  19.380  0.00  0.00    +0.000 C 
ATOM      6  C   UNL     1       2.860   5.676  18.688  0.00  0.00    +0.000 C 
ATOM      7  C   UNL     1       4.303   5.186  18.101  0.00  0.00    +0.000 C 
ATOM      8  C   UNL     1       5.260   5.307  19.310  0.00  0.00    +0.000 C 
ATOM      9  C   UNL     1       3.974   3.709  17.364  0.00  0.00    +0.000 C 
ATOM     10  C   UNL     1       5.127   3.010  16.608  0.00  0.00    +0.000 C 
ATOM     11  C   UNL     1       5.682   4.006  15.610  0.00  0.00    +0.000 C 
ATOM     12  C   UNL     1       6.114   5.135  16.216  0.00  0.00    +0.000 C 
ATOM     13  C   UNL     1       5.013   6.010  16.901  0.00  0.00    +0.000 C 
ENDROOT
BRANCH  12  14
ATOM     14  C   UNL     1       7.447   4.920  16.891  0.00  0.00    +0.000 C 
ATOM     15  O   UNL     1       7.590   4.315  17.949  0.00  0.00    +0.000 OA
ENDBRANCH  12  14
BRANCH  13  16
ATOM     16  C   UNL     1       5.597   7.391  17.185  0.00  0.00    +0.000 C 
ATOM     17  O   UNL     1       6.707   7.797  16.824  0.00  0.00    +0.000 OA
ENDBRANCH  13  16
BRANCH   6  18
ATOM     18  O   UNL     1       2.795   6.674  19.752  0.00  0.00    +0.000 OA
BRANCH  18  19
ATOM     19  C   UNL     1       2.236   7.862  19.293  0.00  0.00    +0.000 C 
ATOM     20  O   UNL     1       2.189   8.169  18.103  0.00  0.00    +0.000 OA
BRANCH  19  21
ATOM     21  C   UNL     1       1.357   8.575  20.265  0.00  0.00    +0.000 C 
ATOM     22  C   UNL     1       0.472   9.552  19.999  0.00  0.00    +0.000 C 
BRANCH  22  23
ATOM     23  C   UNL     1      -0.311  10.352  20.977  0.00  0.00    +0.000 A 
ATOM     24  C   UNL     1      -0.518   9.994  22.318  0.00  0.00    +0.000 A 
ATOM     25  C   UNL     1      -1.218  10.844  23.200  0.00  0.00    +0.000 A 
ATOM     26  C   UNL     1      -1.713  12.067  22.759  0.00  0.00    +0.000 A 
ATOM     27  C   UNL     1      -1.510  12.444  21.434  0.00  0.00    +0.000 A 
ATOM     28  C   UNL     1      -0.813  11.597  20.556  0.00  0.00    +0.000 A 
ENDBRANCH  22  23
ENDBRANCH  19  21
ENDBRANCH  18  19
ENDBRANCH   6  18
TORSDOF 6
ENDMDL
MODEL 4
REMARK VINA RESULT:      -7.4      5.982      8.975
REMARK  Name = 
REMARK  8 active torsions:
REMARK  status: ('A' for Active; 'I' for Inactive)
REMARK    1  A    between atoms: C_3  and  C_4
REMARK    2  A    between atoms: C_6  and  O_7
REMARK    3  A    between atoms: O_7  and  C_8
REMARK    4  A    between atoms: C_8  and  C_10
REMARK    5  A    between atoms: C_11  and  C_12
REMARK    6  A    between atoms: C_18  and  C_19
REMARK    7  A    between atoms: C_23  and  C_24
REMARK    8  A    between atoms: C_26  and  C_27
REMARK                            x       y       z     vdW  Elec       q    Type
REMARK                         _______ _______ _______ _____ _____    ______ ____
ROOT
ATOM      1  C   UNL     1      -4.746  11.865  16.953  0.00  0.00    +0.000 C 
ATOM      2  C   UNL     1      -3.798  11.370  17.759  0.00  0.00    +0.000 C 
ATOM      3  C   UNL     1      -2.947  10.182  17.407  0.00  0.00    +0.000 C 
ATOM      4  C   UNL     1      -3.172   9.339  16.160  0.00  0.00    +0.000 C 
ATOM      5  C   UNL     1      -1.575  10.798  17.396  0.00  0.00    +0.000 C 
ATOM      6  C   UNL     1      -1.037  10.847  18.856  0.00  0.00    +0.000 C 
ATOM      7  C   UNL     1      -1.829  12.052  19.622  0.00  0.00    +0.000 C 
ATOM      8  C   UNL     1      -1.032  13.323  19.245  0.00  0.00    +0.000 C 
ATOM      9  C   UNL     1      -3.439  11.841  19.180  0.00  0.00    +0.000 C 
ATOM     10  C   UNL     1      -4.490  12.773  19.824  0.00  0.00    +0.000 C 
ATOM     11  C   UNL     1      -4.320  12.675  21.327  0.00  0.00    +0.000 C 
ATOM     12  C   UNL     1      -3.069  13.015  21.712  0.00  0.00    +0.000 C 
ATOM     13  C   UNL     1      -1.923  12.062  21.239  0.00  0.00    +0.000 C 
ENDROOT
BRANCH  12  14
ATOM     14  C   UNL     1      -2.875  14.512  21.689  0.00  0.00    +0.000 C 
ATOM     15  O   UNL     1      -2.949  15.228  22.683  0.00  0.00    +0.000 OA
ENDBRANCH  12  14
BRANCH  13  16
ATOM     16  C   UNL     1      -0.672  12.362  22.059  0.00  0.00    +0.000 C 
ATOM     17  O   UNL     1      -0.645  12.651  23.261  0.00  0.00    +0.000 OA
ENDBRANCH  13  16
BRANCH   6  18
ATOM     18  O   UNL     1       0.403  10.934  18.630  0.00  0.00    +0.000 OA
BRANCH  18  19
ATOM     19  C   UNL     1       1.083   9.945  19.332  0.00  0.00    +0.000 C 
ATOM     20  O   UNL     1       0.961   9.773  20.543  0.00  0.00    +0.000 OA
BRANCH  19  21
ATOM     21  C   UNL     1       1.678   8.861  18.497  0.00  0.00    +0.000 C 
ATOM     22  C   UNL     1       2.319   7.759  18.929  0.00  0.00    +0.000 C 
BRANCH  22  23
ATOM     23  C   UNL     1       3.023   6.744  18.103  0.00  0.00    +0.000 A 
ATOM     24  C   UNL     1       4.179   6.991  17.346  0.00  0.00    +0.000 A 
ATOM     25  C   UNL     1       4.826   5.954  16.643  0.00  0.00    +0.000 A 
ATOM     26  C   UNL     1       4.334   4.653  16.691  0.00  0.00    +0.000 A 
ATOM     27  C   UNL     1       3.193   4.386  17.443  0.00  0.00    +0.000 A 
ATOM     28  C   UNL     1       2.550   5.420  18.144  0.00  0.00    +0.000 A 
ENDBRANCH  22  23
ENDBRANCH  19  21
ENDBRANCH  18  19
ENDBRANCH   6  18
TORSDOF 6
ENDMDL
MODEL 5
REMARK VINA RESULT:      -7.3      4.840      8.591
REMARK  Name = 
REMARK  8 active torsions:
REMARK  status: ('A' for Active; 'I' for Inactive)
REMARK    1  A    between atoms: C_3  and  C_4
REMARK    2  A    between atoms: C_6  and  O_7
REMARK    3  A    between atoms: O_7  and  C_8
REMARK    4  A    between atoms: C_8  and  C_10
REMARK    5  A    between atoms: C_11  and  C_12
REMARK    6  A    between atoms: C_18  and  C_19
REMARK    7  A    between atoms: C_23  and  C_24
REMARK    8  A    between atoms: C_26  and  C_27
REMARK                            x       y       z     vdW  Elec       q    Type
REMARK                         _______ _______ _______ _____ _____    ______ ____
ROOT
ATOM      1  C   UNL     1      -1.665  11.571  23.088  0.00  0.00    +0.000 C 
ATOM      2  C   UNL     1      -0.663  11.422  22.213  0.00  0.00    +0.000 C 
ATOM      3  C   UNL     1      -0.080  10.087  21.840  0.00  0.00    +0.000 C 
ATOM      4  C   UNL     1      -0.478   8.786  22.522  0.00  0.00    +0.000 C 
ATOM      5  C   UNL     1      -0.388  10.035  20.369  0.00  0.00    +0.000 C 
ATOM      6  C   UNL     1       0.716  10.819  19.599  0.00  0.00    +0.000 C 
ATOM      7  C   UNL     1       0.437  12.409  19.841  0.00  0.00    +0.000 C 
ATOM      8  C   UNL     1      -0.619  12.772  18.772  0.00  0.00    +0.000 C 
ATOM      9  C   UNL     1       0.121  12.531  21.490  0.00  0.00    +0.000 C 
ATOM     10  C   UNL     1      -0.090  13.944  22.079  0.00  0.00    +0.000 C 
ATOM     11  C   UNL     1       1.114  14.779  21.692  0.00  0.00    +0.000 C 
ATOM     12  C   UNL     1       1.276  14.832  20.350  0.00  0.00    +0.000 C 
ATOM     13  C   UNL     1       1.636  13.481  19.648  0.00  0.00    +0.000 C 
ENDROOT
BRANCH  12  14
ATOM     14  C   UNL     1       0.290  15.783  19.715  0.00  0.00    +0.000 C 
ATOM     15  O   UNL     1       0.099  16.932  20.102  0.00  0.00    +0.000 OA
ENDBRANCH  12  14
BRANCH  13  16
ATOM     16  C   UNL     1       2.150  13.785  18.245  0.00  0.00    +0.000 C 
ATOM     17  O   UNL     1       3.326  13.704  17.870  0.00  0.00    +0.000 OA
ENDBRANCH  13  16
BRANCH   6  18
ATOM     18  O   UNL     1       0.599  10.242  18.262  0.00  0.00    +0.000 OA
BRANCH  18  19
ATOM     19  C   UNL     1       1.805   9.689  17.846  0.00  0.00    +0.000 C 
ATOM     20  O   UNL     1       2.806  10.360  17.599  0.00  0.00    +0.000 OA
BRANCH  19  21
ATOM     21  C   UNL     1       1.950   8.222  18.075  0.00  0.00    +0.000 C 
ATOM     22  C   UNL     1       3.046   7.469  17.868  0.00  0.00    +0.000 C 
BRANCH  22  23
ATOM     23  C   UNL     1       3.158   5.990  17.972  0.00  0.00    +0.000 A 
ATOM     24  C   UNL     1       2.083   5.097  17.847  0.00  0.00    +0.000 A 
ATOM     25  C   UNL     1       2.285   3.702  17.891  0.00  0.00    +0.000 A 
ATOM     26  C   UNL     1       3.564   3.178  18.053  0.00  0.00    +0.000 A 
ATOM     27  C   UNL     1       4.645   4.048  18.171  0.00  0.00    +0.000 A 
ATOM     28  C   UNL     1       4.442   5.438  18.126  0.00  0.00    +0.000 A 
ENDBRANCH  22  23
ENDBRANCH  19  21
ENDBRANCH  18  19
ENDBRANCH   6  18
TORSDOF 6
ENDMDL
MODEL 6
REMARK VINA RESULT:      -7.3      5.056      8.932
REMARK  Name = 
REMARK  8 active torsions:
REMARK  status: ('A' for Active; 'I' for Inactive)
REMARK    1  A    between atoms: C_3  and  C_4
REMARK    2  A    between atoms: C_6  and  O_7
REMARK    3  A    between atoms: O_7  and  C_8
REMARK    4  A    between atoms: C_8  and  C_10
REMARK    5  A    between atoms: C_11  and  C_12
REMARK    6  A    between atoms: C_18  and  C_19
REMARK    7  A    between atoms: C_23  and  C_24
REMARK    8  A    between atoms: C_26  and  C_27
REMARK                            x       y       z     vdW  Elec       q    Type
REMARK                         _______ _______ _______ _____ _____    ______ ____
ROOT
ATOM      1  C   UNL     1      -1.602  12.113  23.171  0.00  0.00    +0.000 C 
ATOM      2  C   UNL     1      -0.617  11.849  22.303  0.00  0.00    +0.000 C 
ATOM      3  C   UNL     1      -0.107  10.463  22.024  0.00  0.00    +0.000 C 
ATOM      4  C   UNL     1      -0.566   9.236  22.801  0.00  0.00    +0.000 C 
ATOM      5  C   UNL     1      -0.431  10.321  20.562  0.00  0.00    +0.000 C 
ATOM      6  C   UNL     1       0.704  10.988  19.732  0.00  0.00    +0.000 C 
ATOM      7  C   UNL     1       0.510  12.604  19.860  0.00  0.00    +0.000 C 
ATOM      8  C   UNL     1      -0.537  12.943  18.773  0.00  0.00    +0.000 C 
ATOM      9  C   UNL     1       0.215  12.861  21.496  0.00  0.00    +0.000 C 
ATOM     10  C   UNL     1       0.083  14.322  21.983  0.00  0.00    +0.000 C 
ATOM     11  C   UNL     1       1.325  15.063  21.530  0.00  0.00    +0.000 C 
ATOM     12  C   UNL     1       1.477  15.011  20.186  0.00  0.00    +0.000 C 
ATOM     13  C   UNL     1       1.761  13.596  19.583  0.00  0.00    +0.000 C 
ENDROOT
BRANCH  12  14
ATOM     14  C   UNL     1       0.535  15.964  19.490  0.00  0.00    +0.000 C 
ATOM     15  O   UNL     1       0.816  17.125  19.212  0.00  0.00    +0.000 OA
ENDBRANCH  12  14
BRANCH  13  16
ATOM     16  C   UNL     1       2.276  13.770  18.158  0.00  0.00    +0.000 C 
ATOM     17  O   UNL     1       3.324  14.338  17.830  0.00  0.00    +0.000 OA
ENDBRANCH  13  16
BRANCH   6  18
ATOM     18  O   UNL     1       0.545  10.324  18.441  0.00  0.00    +0.000 OA
BRANCH  18  19
ATOM     19  C   UNL     1       1.750   9.786  18.001  0.00  0.00    +0.000 C 
ATOM     20  O   UNL     1       2.670  10.468  17.554  0.00  0.00    +0.000 OA
BRANCH  19  21
ATOM     21  C   UNL     1       2.027   8.388  18.444  0.00  0.00    +0.000 C 
ATOM     22  C   UNL     1       2.889   7.514  17.892  0.00  0.00    +0.000 C 
BRANCH  22  23
ATOM     23  C   UNL     1       3.075   6.083  18.248  0.00  0.00    +0.000 A 
ATOM     24  C   UNL     1       4.172   5.574  18.960  0.00  0.00    +0.000 A 
ATOM     25  C   UNL     1       4.240   4.211  19.318  0.00  0.00    +0.000 A 
ATOM     26  C   UNL     1       3.211   3.339  18.978  0.00  0.00    +0.000 A 
ATOM     27  C   UNL     1       2.110   3.827  18.279  0.00  0.00    +0.000 A 
ATOM     28  C   UNL     1       2.043   5.185  17.924  0.00  0.00    +0.000 A 
ENDBRANCH  22  23
ENDBRANCH  19  21
ENDBRANCH  18  19
ENDBRANCH   6  18
TORSDOF 6
ENDMDL
MODEL 7
REMARK VINA RESULT:      -7.2      2.953      8.562
REMARK  Name = 
REMARK  8 active torsions:
REMARK  status: ('A' for Active; 'I' for Inactive)
REMARK    1  A    between atoms: C_3  and  C_4
REMARK    2  A    between atoms: C_6  and  O_7
REMARK    3  A    between atoms: O_7  and  C_8
REMARK    4  A    between atoms: C_8  and  C_10
REMARK    5  A    between atoms: C_11  and  C_12
REMARK    6  A    between atoms: C_18  and  C_19
REMARK    7  A    between atoms: C_23  and  C_24
REMARK    8  A    between atoms: C_26  and  C_27
REMARK                            x       y       z     vdW  Elec       q    Type
REMARK                         _______ _______ _______ _____ _____    ______ ____
ROOT
ATOM      1  C   UNL     1       5.687   4.625  15.763  0.00  0.00    +0.000 C 
ATOM      2  C   UNL     1       5.119   4.994  16.918  0.00  0.00    +0.000 C 
ATOM      3  C   UNL     1       5.346   6.332  17.563  0.00  0.00    +0.000 C 
ATOM      4  C   UNL     1       6.352   7.348  17.039  0.00  0.00    +0.000 C 
ATOM      5  C   UNL     1       3.955   6.903  17.552  0.00  0.00    +0.000 C 
ATOM      6  C   UNL     1       3.179   6.354  18.785  0.00  0.00    +0.000 C 
ATOM      7  C   UNL     1       2.799   4.799  18.463  0.00  0.00    +0.000 C 
ATOM      8  C   UNL     1       1.494   4.895  17.639  0.00  0.00    +0.000 C 
ATOM      9  C   UNL     1       4.213   4.146  17.828  0.00  0.00    +0.000 C 
ATOM     10  C   UNL     1       4.226   2.634  17.504  0.00  0.00    +0.000 C 
ATOM     11  C   UNL     1       3.803   1.900  18.761  0.00  0.00    +0.000 C 
ATOM     12  C   UNL     1       2.580   2.296  19.185  0.00  0.00    +0.000 C 
ATOM     13  C   UNL     1       2.471   3.776  19.676  0.00  0.00    +0.000 C 
ENDROOT
BRANCH  12  14
ATOM     14  C   UNL     1       1.485   1.688  18.342  0.00  0.00    +0.000 C 
ATOM     15  O   UNL     1       0.290   1.912  18.507  0.00  0.00    +0.000 OA
ENDBRANCH  12  14
BRANCH  13  16
ATOM     16  C   UNL     1       1.170   3.934  20.457  0.00  0.00    +0.000 C 
ATOM     17  O   UNL     1       0.842   3.287  21.458  0.00  0.00    +0.000 OA
ENDBRANCH  13  16
BRANCH   6  18
ATOM     18  O   UNL     1       2.129   7.357  18.935  0.00  0.00    +0.000 OA
BRANCH  18  19
ATOM     19  C   UNL     1       1.808   7.554  20.274  0.00  0.00    +0.000 C 
ATOM     20  O   UNL     1       2.293   6.889  21.187  0.00  0.00    +0.000 OA
BRANCH  19  21
ATOM     21  C   UNL     1       1.143   8.852  20.589  0.00  0.00    +0.000 C 
ATOM     22  C   UNL     1       0.228   9.086  21.547  0.00  0.00    +0.000 C 
BRANCH  22  23
ATOM     23  C   UNL     1      -0.531  10.342  21.783  0.00  0.00    +0.000 A 
ATOM     24  C   UNL     1      -0.847  11.283  20.790  0.00  0.00    +0.000 A 
ATOM     25  C   UNL     1      -1.631  12.418  21.083  0.00  0.00    +0.000 A 
ATOM     26  C   UNL     1      -2.118  12.627  22.370  0.00  0.00    +0.000 A 
ATOM     27  C   UNL     1      -1.822  11.701  23.367  0.00  0.00    +0.000 A 
ATOM     28  C   UNL     1      -1.042  10.570  23.073  0.00  0.00    +0.000 A 
ENDBRANCH  22  23
ENDBRANCH  19  21
ENDBRANCH  18  19
ENDBRANCH   6  18
TORSDOF 6
ENDMDL
MODEL 8
REMARK VINA RESULT:      -7.2      6.411      9.869
REMARK  Name = 
REMARK  8 active torsions:
REMARK  status: ('A' for Active; 'I' for Inactive)
REMARK    1  A    between atoms: C_3  and  C_4
REMARK    2  A    between atoms: C_6  and  O_7
REMARK    3  A    between atoms: O_7  and  C_8
REMARK    4  A    between atoms: C_8  and  C_10
REMARK    5  A    between atoms: C_11  and  C_12
REMARK    6  A    between atoms: C_18  and  C_19
REMARK    7  A    between atoms: C_23  and  C_24
REMARK    8  A    between atoms: C_26  and  C_27
REMARK                            x       y       z     vdW  Elec       q    Type
REMARK                         _______ _______ _______ _____ _____    ______ ____
ROOT
ATOM      1  C   UNL     1      -4.779  11.946  17.168  0.00  0.00    +0.000 C 
ATOM      2  C   UNL     1      -3.884  11.571  18.091  0.00  0.00    +0.000 C 
ATOM      3  C   UNL     1      -2.845  10.511  17.855  0.00  0.00    +0.000 C 
ATOM      4  C   UNL     1      -2.795   9.661  16.593  0.00  0.00    +0.000 C 
ATOM      5  C   UNL     1      -1.577  11.303  18.017  0.00  0.00    +0.000 C 
ATOM      6  C   UNL     1      -1.240  11.403  19.534  0.00  0.00    +0.000 C 
ATOM      7  C   UNL     1      -2.276  12.483  20.187  0.00  0.00    +0.000 C 
ATOM      8  C   UNL     1      -1.614  13.853  19.910  0.00  0.00    +0.000 C 
ATOM      9  C   UNL     1      -3.774  12.067  19.543  0.00  0.00    +0.000 C 
ATOM     10  C   UNL     1      -5.013  12.844  20.044  0.00  0.00    +0.000 C 
ATOM     11  C   UNL     1      -5.024  12.749  21.557  0.00  0.00    +0.000 C 
ATOM     12  C   UNL     1      -3.888  13.247  22.098  0.00  0.00    +0.000 C 
ATOM     13  C   UNL     1      -2.575  12.460  21.779  0.00  0.00    +0.000 C 
ENDROOT
BRANCH  12  14
ATOM     14  C   UNL     1      -3.894  14.757  22.094  0.00  0.00    +0.000 C 
ATOM     15  O   UNL     1      -4.003  15.444  23.103  0.00  0.00    +0.000 OA
ENDBRANCH  12  14
BRANCH  13  16
ATOM     16  C   UNL     1      -1.490  12.912  22.751  0.00  0.00    +0.000 C 
ATOM     17  O   UNL     1      -0.678  12.177  23.325  0.00  0.00    +0.000 OA
ENDBRANCH  13  16
BRANCH   6  18
ATOM     18  O   UNL     1       0.193  11.684  19.493  0.00  0.00    +0.000 OA
BRANCH  18  19
ATOM     19  C   UNL     1       0.896  10.835  20.340  0.00  0.00    +0.000 C 
ATOM     20  O   UNL     1       1.168  11.118  21.505  0.00  0.00    +0.000 OA
BRANCH  19  21
ATOM     21  C   UNL     1       0.977   9.412  19.897  0.00  0.00    +0.000 C 
ATOM     22  C   UNL     1       1.681   8.419  20.472  0.00  0.00    +0.000 C 
BRANCH  22  23
ATOM     23  C   UNL     1       1.868   7.035  19.964  0.00  0.00    +0.000 A 
ATOM     24  C   UNL     1       1.550   5.871  20.681  0.00  0.00    +0.000 A 
ATOM     25  C   UNL     1       1.695   4.594  20.100  0.00  0.00    +0.000 A 
ATOM     26  C   UNL     1       2.151   4.460  18.793  0.00  0.00    +0.000 A 
ATOM     27  C   UNL     1       2.464   5.603  18.061  0.00  0.00    +0.000 A 
ATOM     28  C   UNL     1       2.319   6.875  18.641  0.00  0.00    +0.000 A 
ENDBRANCH  22  23
ENDBRANCH  19  21
ENDBRANCH  18  19
ENDBRANCH   6  18
TORSDOF 6
ENDMDL
MODEL 9
REMARK VINA RESULT:      -7.2      3.176      5.323
REMARK  Name = 
REMARK  8 active torsions:
REMARK  status: ('A' for Active; 'I' for Inactive)
REMARK    1  A    between atoms: C_3  and  C_4
REMARK    2  A    between atoms: C_6  and  O_7
REMARK    3  A    between atoms: O_7  and  C_8
REMARK    4  A    between atoms: C_8  and  C_10
REMARK    5  A    between atoms: C_11  and  C_12
REMARK    6  A    between atoms: C_18  and  C_19
REMARK    7  A    between atoms: C_23  and  C_24
REMARK    8  A    between atoms: C_26  and  C_27
REMARK                            x       y       z     vdW  Elec       q    Type
REMARK                         _______ _______ _______ _____ _____    ______ ____
ROOT
ATOM      1  C   UNL     1       1.507   8.075  20.438  0.00  0.00    +0.000 C 
ATOM      2  C   UNL     1       2.002   7.269  19.490  0.00  0.00    +0.000 C 
ATOM      3  C   UNL     1       2.551   7.767  18.183  0.00  0.00    +0.000 C 
ATOM      4  C   UNL     1       2.474   9.225  17.749  0.00  0.00    +0.000 C 
ATOM      5  C   UNL     1       3.982   7.313  18.275  0.00  0.00    +0.000 C 
ATOM      6  C   UNL     1       4.063   5.823  17.829  0.00  0.00    +0.000 C 
ATOM      7  C   UNL     1       3.451   4.922  19.045  0.00  0.00    +0.000 C 
ATOM      8  C   UNL     1       4.644   4.736  20.011  0.00  0.00    +0.000 C 
ATOM      9  C   UNL     1       2.048   5.731  19.500  0.00  0.00    +0.000 C 
ATOM     10  C   UNL     1       1.158   5.077  20.582  0.00  0.00    +0.000 C 
ATOM     11  C   UNL     1       0.848   3.667  20.119  0.00  0.00    +0.000 C 
ATOM     12  C   UNL     1       1.976   2.947  19.918  0.00  0.00    +0.000 C 
ATOM     13  C   UNL     1       2.897   3.428  18.748  0.00  0.00    +0.000 C 
ENDROOT
BRANCH  12  14
ATOM     14  C   UNL     1       2.577   2.492  21.225  0.00  0.00    +0.000 C 
ATOM     15  O   UNL     1       1.930   2.310  22.251  0.00  0.00    +0.000 OA
ENDBRANCH  12  14
BRANCH  13  16
ATOM     16  C   UNL     1       3.886   2.315  18.420  0.00  0.00    +0.000 C 
ATOM     17  O   UNL     1       3.606   1.122  18.252  0.00  0.00    +0.000 OA
ENDBRANCH  13  16
BRANCH   6  18
ATOM     18  O   UNL     1       5.471   5.709  17.459  0.00  0.00    +0.000 OA
BRANCH  18  19
ATOM     19  C   UNL     1       5.816   6.649  16.495  0.00  0.00    +0.000 C 
ATOM     20  O   UNL     1       5.380   6.626  15.345  0.00  0.00    +0.000 OA
BRANCH  19  21
ATOM     21  C   UNL     1       6.435   7.903  17.014  0.00  0.00    +0.000 C 
ATOM     22  C   UNL     1       7.730   8.106  17.319  0.00  0.00    +0.000 C 
BRANCH  22  23
ATOM     23  C   UNL     1       8.329   9.308  17.956  0.00  0.00    +0.000 A 
ATOM     24  C   UNL     1       8.244  10.611  17.442  0.00  0.00    +0.000 A 
ATOM     25  C   UNL     1       8.783  11.709  18.145  0.00  0.00    +0.000 A 
ATOM     26  C   UNL     1       9.408  11.524  19.374  0.00  0.00    +0.000 A 
ATOM     27  C   UNL     1       9.495  10.239  19.905  0.00  0.00    +0.000 A 
ATOM     28  C   UNL     1       8.957   9.146  19.204  0.00  0.00    +0.000 A 
ENDBRANCH  22  23
ENDBRANCH  19  21
ENDBRANCH  18  19
ENDBRANCH   6  18
TORSDOF 6
ENDMDL
