MODEL 1
REMARK VINA RESULT:      -7.3      0.000      0.000
REMARK  Name = 
REMARK  6 active torsions:
REMARK  status: ('A' for Active; 'I' for Inactive)
REMARK    1  A    between atoms: C_1  and  S_2
REMARK    2  A    between atoms: S_2  and  N_5
REMARK    3  A    between atoms: N_5  and  C_6
REMARK    4  A    between atoms: C_6  and  C_7
REMARK    5  A    between atoms: C_7  and  C_8
REMARK    6  A    between atoms: N_10  and  C_11
REMARK                            x       y       z     vdW  Elec       q    Type
REMARK                         _______ _______ _______ _____ _____    ______ ____
ROOT
ATOM      1  C   UNL     1       6.036   5.339  19.111  0.00  0.00    +0.000 C 
ATOM      2  O   UNL     1       6.200   4.624  20.095  0.00  0.00    +0.000 OA
ATOM      3  N   UNL     1       4.812   5.742  18.605  0.00  0.00    +0.000 N 
ATOM      4  H   UNL     1       4.776   5.957  17.616  0.00  0.00    +0.000 HD
ENDROOT
BRANCH   3   5
ATOM      5  C   UNL     1       3.597   5.387  19.226  0.00  0.00    +0.000 A 
ATOM      6  C   UNL     1       2.940   6.319  20.038  0.00  0.00    +0.000 A 
ATOM      7  C   UNL     1       1.722   6.003  20.631  0.00  0.00    +0.000 A 
ATOM      8  C   UNL     1       1.162   4.746  20.428  0.00  0.00    +0.000 A 
ATOM      9  C   UNL     1       1.807   3.795  19.622  0.00  0.00    +0.000 A 
ATOM     10  C   UNL     1       3.041   4.110  19.014  0.00  0.00    +0.000 A 
ATOM     11  C   UNL     1       3.773   3.074  18.186  0.00  0.00    +0.000 C 
ATOM     12  C   UNL     1       3.300   1.643  18.433  0.00  0.00    +0.000 C 
ATOM     13  C   UNL     1       1.781   1.582  18.383  0.00  0.00    +0.000 C 
ATOM     14  C   UNL     1       1.191   2.420  19.511  0.00  0.00    +0.000 C 
ENDBRANCH   3   5
BRANCH   1  15
ATOM     15  C   UNL     1       7.205   5.766  18.259  0.00  0.00    +0.000 C 
BRANCH  15  16
ATOM     16  C   UNL     1       7.704   4.594  17.425  0.00  0.00    +0.000 C 
BRANCH  16  17
ATOM     17  N   UNL     1       6.630   4.053  16.559  0.00  0.00    +0.000 NA
ATOM     18  H   UNL     1       6.580   3.032  16.515  0.00  0.00    +0.000 HD
BRANCH  17  20
ATOM     19  C   UNL     1       5.302   5.945  15.190  0.00  0.00    +0.000 C 
ATOM     20  S   UNL     1       6.551   4.695  14.989  0.00  0.00    +0.000 S 
ATOM     21  O   UNL     1       6.049   3.671  14.103  0.00  0.00    +0.000 OA
ATOM     22  O   UNL     1       7.806   5.361  14.759  0.00  0.00    +0.000 OA
ENDBRANCH  17  20
ENDBRANCH  16  17
ENDBRANCH  15  16
ENDBRANCH   1  15
TORSDOF 5
ENDMDL
MODEL 2
REMARK VINA RESULT:      -7.1      3.479      5.703
REMARK  Name = 
REMARK  6 active torsions:
REMARK  status: ('A' for Active; 'I' for Inactive)
REMARK    1  A    between atoms: C_1  and  S_2
REMARK    2  A    between atoms: S_2  and  N_5
REMARK    3  A    between atoms: N_5  and  C_6
REMARK    4  A    between atoms: C_6  and  C_7
REMARK    5  A    between atoms: C_7  and  C_8
REMARK    6  A    between atoms: N_10  and  C_11
REMARK                            x       y       z     vdW  Elec       q    Type
REMARK                         _______ _______ _______ _____ _____    ______ ____
ROOT
ATOM      1  C   UNL     1       1.705   4.878  20.696  0.00  0.00    +0.000 C 
ATOM      2  O   UNL     1       0.674   4.734  20.045  0.00  0.00    +0.000 OA
ATOM      3  N   UNL     1       2.560   5.964  20.618  0.00  0.00    +0.000 N 
ATOM      4  H   UNL     1       3.530   5.799  20.859  0.00  0.00    +0.000 HD
ENDROOT
BRANCH   3   5
ATOM      5  C   UNL     1       2.288   7.066  19.781  0.00  0.00    +0.000 A 
ATOM      6  C   UNL     1       2.770   7.068  18.467  0.00  0.00    +0.000 A 
ATOM      7  C   UNL     1       2.484   8.128  17.612  0.00  0.00    +0.000 A 
ATOM      8  C   UNL     1       1.727   9.200  18.074  0.00  0.00    +0.000 A 
ATOM      9  C   UNL     1       1.239   9.220  19.390  0.00  0.00    +0.000 A 
ATOM     10  C   UNL     1       1.523   8.147  20.261  0.00  0.00    +0.000 A 
ATOM     11  C   UNL     1       1.048   8.182  21.699  0.00  0.00    +0.000 C 
ATOM     12  C   UNL     1       0.659   9.577  22.184  0.00  0.00    +0.000 C 
ATOM     13  C   UNL     1      -0.252  10.246  21.166  0.00  0.00    +0.000 C 
ATOM     14  C   UNL     1       0.498  10.451  19.855  0.00  0.00    +0.000 C 
ENDBRANCH   3   5
BRANCH   1  15
ATOM     15  C   UNL     1       2.216   3.779  21.595  0.00  0.00    +0.000 C 
BRANCH  15  16
ATOM     16  C   UNL     1       2.933   2.718  20.773  0.00  0.00    +0.000 C 
BRANCH  16  17
ATOM     17  N   UNL     1       3.570   3.306  19.571  0.00  0.00    +0.000 NA
ATOM     18  H   UNL     1       3.437   4.314  19.458  0.00  0.00    +0.000 HD
BRANCH  17  20
ATOM     19  C   UNL     1       4.295   3.425  16.987  0.00  0.00    +0.000 C 
ATOM     20  S   UNL     1       3.245   2.520  18.101  0.00  0.00    +0.000 S 
ATOM     21  O   UNL     1       1.867   2.767  17.747  0.00  0.00    +0.000 OA
ATOM     22  O   UNL     1       3.779   1.189  18.225  0.00  0.00    +0.000 OA
ENDBRANCH  17  20
ENDBRANCH  16  17
ENDBRANCH  15  16
ENDBRANCH   1  15
TORSDOF 5
ENDMDL
MODEL 3
REMARK VINA RESULT:      -7.1      0.930      1.164
REMARK  Name = 
REMARK  6 active torsions:
REMARK  status: ('A' for Active; 'I' for Inactive)
REMARK    1  A    between atoms: C_1  and  S_2
REMARK    2  A    between atoms: S_2  and  N_5
REMARK    3  A    between atoms: N_5  and  C_6
REMARK    4  A    between atoms: C_6  and  C_7
REMARK    5  A    between atoms: C_7  and  C_8
REMARK    6  A    between atoms: N_10  and  C_11
REMARK                            x       y       z     vdW  Elec       q    Type
REMARK                         _______ _______ _______ _____ _____    ______ ____
ROOT
ATOM      1  C   UNL     1       6.050   5.526  18.746  0.00  0.00    +0.000 C 
ATOM      2  O   UNL     1       6.287   5.076  19.863  0.00  0.00    +0.000 OA
ATOM      3  N   UNL     1       4.788   5.745  18.219  0.00  0.00    +0.000 N 
ATOM      4  H   UNL     1       4.705   5.714  17.209  0.00  0.00    +0.000 HD
ENDROOT
BRANCH   3   5
ATOM      5  C   UNL     1       3.617   5.500  18.964  0.00  0.00    +0.000 A 
ATOM      6  C   UNL     1       3.062   6.529  19.734  0.00  0.00    +0.000 A 
ATOM      7  C   UNL     1       1.887   6.320  20.449  0.00  0.00    +0.000 A 
ATOM      8  C   UNL     1       1.269   5.074  20.410  0.00  0.00    +0.000 A 
ATOM      9  C   UNL     1       1.813   4.027  19.649  0.00  0.00    +0.000 A 
ATOM     10  C   UNL     1       3.003   4.233  18.919  0.00  0.00    +0.000 A 
ATOM     11  C   UNL     1       3.628   3.095  18.138  0.00  0.00    +0.000 C 
ATOM     12  C   UNL     1       3.128   1.715  18.556  0.00  0.00    +0.000 C 
ATOM     13  C   UNL     1       1.609   1.713  18.632  0.00  0.00    +0.000 C 
ATOM     14  C   UNL     1       1.143   2.675  19.718  0.00  0.00    +0.000 C 
ENDBRANCH   3   5
BRANCH   1  15
ATOM     15  C   UNL     1       7.163   5.784  17.761  0.00  0.00    +0.000 C 
BRANCH  15  16
ATOM     16  C   UNL     1       7.456   4.525  16.957  0.00  0.00    +0.000 C 
BRANCH  16  17
ATOM     17  N   UNL     1       6.251   4.055  16.233  0.00  0.00    +0.000 NA
ATOM     18  H   UNL     1       6.210   3.047  16.065  0.00  0.00    +0.000 HD
BRANCH  17  20
ATOM     19  C   UNL     1       7.495   5.085  14.087  0.00  0.00    +0.000 C 
ATOM     20  S   UNL     1       5.878   4.886  14.800  0.00  0.00    +0.000 S 
ATOM     21  O   UNL     1       5.359   6.187  15.150  0.00  0.00    +0.000 OA
ATOM     22  O   UNL     1       5.144   3.963  13.974  0.00  0.00    +0.000 OA
ENDBRANCH  17  20
ENDBRANCH  16  17
ENDBRANCH  15  16
ENDBRANCH   1  15
TORSDOF 5
ENDMDL
MODEL 4
REMARK VINA RESULT:      -7.0      1.283      2.624
REMARK  Name = 
REMARK  6 active torsions:
REMARK  status: ('A' for Active; 'I' for Inactive)
REMARK    1  A    between atoms: C_1  and  S_2
REMARK    2  A    between atoms: S_2  and  N_5
REMARK    3  A    between atoms: N_5  and  C_6
REMARK    4  A    between atoms: C_6  and  C_7
REMARK    5  A    between atoms: C_7  and  C_8
REMARK    6  A    between atoms: N_10  and  C_11
REMARK                            x       y       z     vdW  Elec       q    Type
REMARK                         _______ _______ _______ _____ _____    ______ ____
ROOT
ATOM      1  C   UNL     1       5.982   5.358  18.539  0.00  0.00    +0.000 C 
ATOM      2  O   UNL     1       6.426   4.381  19.135  0.00  0.00    +0.000 OA
ATOM      3  N   UNL     1       4.748   5.425  17.915  0.00  0.00    +0.000 N 
ATOM      4  H   UNL     1       4.663   6.075  17.142  0.00  0.00    +0.000 HD
ENDROOT
BRANCH   3   5
ATOM      5  C   UNL     1       3.837   4.349  17.949  0.00  0.00    +0.000 A 
ATOM      6  C   UNL     1       3.809   3.438  16.886  0.00  0.00    +0.000 A 
ATOM      7  C   UNL     1       2.944   2.349  16.915  0.00  0.00    +0.000 A 
ATOM      8  C   UNL     1       2.090   2.174  18.000  0.00  0.00    +0.000 A 
ATOM      9  C   UNL     1       2.099   3.080  19.073  0.00  0.00    +0.000 A 
ATOM     10  C   UNL     1       2.977   4.185  19.052  0.00  0.00    +0.000 A 
ATOM     11  C   UNL     1       2.958   5.198  20.178  0.00  0.00    +0.000 C 
ATOM     12  C   UNL     1       1.692   5.147  21.030  0.00  0.00    +0.000 C 
ATOM     13  C   UNL     1       1.388   3.710  21.424  0.00  0.00    +0.000 C 
ATOM     14  C   UNL     1       1.090   2.883  20.179  0.00  0.00    +0.000 C 
ENDBRANCH   3   5
BRANCH   1  15
ATOM     15  C   UNL     1       6.829   6.587  18.322  0.00  0.00    +0.000 C 
BRANCH  15  16
ATOM     16  C   UNL     1       7.724   6.402  17.105  0.00  0.00    +0.000 C 
BRANCH  16  17
ATOM     17  N   UNL     1       7.412   5.140  16.393  0.00  0.00    +0.000 NA
ATOM     18  H   UNL     1       8.158   4.441  16.398  0.00  0.00    +0.000 HD
BRANCH  17  20
ATOM     19  C   UNL     1       6.252   3.655  14.479  0.00  0.00    +0.000 C 
ATOM     20  S   UNL     1       6.803   5.312  14.817  0.00  0.00    +0.000 S 
ATOM     21  O   UNL     1       7.903   5.626  13.935  0.00  0.00    +0.000 OA
ATOM     22  O   UNL     1       5.638   6.150  14.920  0.00  0.00    +0.000 OA
ENDBRANCH  17  20
ENDBRANCH  16  17
ENDBRANCH  15  16
ENDBRANCH   1  15
TORSDOF 5
ENDMDL
MODEL 5
REMARK VINA RESULT:      -6.9      1.897      2.985
REMARK  Name = 
REMARK  6 active torsions:
REMARK  status: ('A' for Active; 'I' for Inactive)
REMARK    1  A    between atoms: C_1  and  S_2
REMARK    2  A    between atoms: S_2  and  N_5
REMARK    3  A    between atoms: N_5  and  C_6
REMARK    4  A    between atoms: C_6  and  C_7
REMARK    5  A    between atoms: C_7  and  C_8
REMARK    6  A    between atoms: N_10  and  C_11
REMARK                            x       y       z     vdW  Elec       q    Type
REMARK                         _______ _______ _______ _____ _____    ______ ____
ROOT
ATOM      1  C   UNL     1       4.975   5.814  15.697  0.00  0.00    +0.000 C 
ATOM      2  O   UNL     1       4.944   7.040  15.644  0.00  0.00    +0.000 OA
ATOM      3  N   UNL     1       4.356   5.036  16.660  0.00  0.00    +0.000 N 
ATOM      4  H   UNL     1       4.769   4.129  16.847  0.00  0.00    +0.000 HD
ENDROOT
BRANCH   3   5
ATOM      5  C   UNL     1       3.568   5.603  17.682  0.00  0.00    +0.000 A 
ATOM      6  C   UNL     1       3.522   6.994  17.825  0.00  0.00    +0.000 A 
ATOM      7  C   UNL     1       2.724   7.577  18.804  0.00  0.00    +0.000 A 
ATOM      8  C   UNL     1       1.978   6.768  19.657  0.00  0.00    +0.000 A 
ATOM      9  C   UNL     1       2.015   5.370  19.533  0.00  0.00    +0.000 A 
ATOM     10  C   UNL     1       2.820   4.773  18.540  0.00  0.00    +0.000 A 
ATOM     11  C   UNL     1       2.909   3.265  18.433  0.00  0.00    +0.000 C 
ATOM     12  C   UNL     1       2.437   2.530  19.685  0.00  0.00    +0.000 C 
ATOM     13  C   UNL     1       1.096   3.086  20.140  0.00  0.00    +0.000 C 
ATOM     14  C   UNL     1       1.251   4.547  20.544  0.00  0.00    +0.000 C 
ENDBRANCH   3   5
BRANCH   1  15
ATOM     15  C   UNL     1       5.825   5.018  14.739  0.00  0.00    +0.000 C 
BRANCH  15  16
ATOM     16  C   UNL     1       7.155   4.659  15.389  0.00  0.00    +0.000 C 
BRANCH  16  17
ATOM     17  N   UNL     1       7.429   5.519  16.565  0.00  0.00    +0.000 NA
ATOM     18  H   UNL     1       8.174   6.207  16.436  0.00  0.00    +0.000 HD
BRANCH  17  20
ATOM     19  C   UNL     1       7.902   6.072  19.150  0.00  0.00    +0.000 C 
ATOM     20  S   UNL     1       7.654   4.706  18.039  0.00  0.00    +0.000 S 
ATOM     21  O   UNL     1       8.877   3.943  17.957  0.00  0.00    +0.000 OA
ATOM     22  O   UNL     1       6.390   4.098  18.365  0.00  0.00    +0.000 OA
ENDBRANCH  17  20
ENDBRANCH  16  17
ENDBRANCH  15  16
ENDBRANCH   1  15
TORSDOF 5
ENDMDL
MODEL 6
REMARK VINA RESULT:      -6.9      1.045      1.157
REMARK  Name = 
REMARK  6 active torsions:
REMARK  status: ('A' for Active; 'I' for Inactive)
REMARK    1  A    between atoms: C_1  and  S_2
REMARK    2  A    between atoms: S_2  and  N_5
REMARK    3  A    between atoms: N_5  and  C_6
REMARK    4  A    between atoms: C_6  and  C_7
REMARK    5  A    between atoms: C_7  and  C_8
REMARK    6  A    between atoms: N_10  and  C_11
REMARK                            x       y       z     vdW  Elec       q    Type
REMARK                         _______ _______ _______ _____ _____    ______ ____
ROOT
ATOM      1  C   UNL     1       6.047   5.684  18.897  0.00  0.00    +0.000 C 
ATOM      2  O   UNL     1       6.307   5.076  19.931  0.00  0.00    +0.000 OA
ATOM      3  N   UNL     1       4.776   5.906  18.394  0.00  0.00    +0.000 N 
ATOM      4  H   UNL     1       4.699   6.032  17.391  0.00  0.00    +0.000 HD
ENDROOT
BRANCH   3   5
ATOM      5  C   UNL     1       3.620   5.473  19.074  0.00  0.00    +0.000 A 
ATOM      6  C   UNL     1       2.964   6.351  19.945  0.00  0.00    +0.000 A 
ATOM      7  C   UNL     1       1.801   5.957  20.600  0.00  0.00    +0.000 A 
ATOM      8  C   UNL     1       1.296   4.676  20.398  0.00  0.00    +0.000 A 
ATOM      9  C   UNL     1       1.942   3.779  19.533  0.00  0.00    +0.000 A 
ATOM     10  C   UNL     1       3.121   4.173  18.863  0.00  0.00    +0.000 A 
ATOM     11  C   UNL     1       3.856   3.196  17.970  0.00  0.00    +0.000 C 
ATOM     12  C   UNL     1       3.474   1.737  18.208  0.00  0.00    +0.000 C 
ATOM     13  C   UNL     1       1.960   1.596  18.244  0.00  0.00    +0.000 C 
ATOM     14  C   UNL     1       1.393   2.376  19.424  0.00  0.00    +0.000 C 
ENDBRANCH   3   5
BRANCH   1  15
ATOM     15  C   UNL     1       7.145   6.164  17.981  0.00  0.00    +0.000 C 
BRANCH  15  16
ATOM     16  C   UNL     1       6.553   6.920  16.800  0.00  0.00    +0.000 C 
BRANCH  16  17
ATOM     17  N   UNL     1       6.019   5.990  15.777  0.00  0.00    +0.000 NA
ATOM     18  H   UNL     1       5.164   5.495  16.043  0.00  0.00    +0.000 HD
BRANCH  17  20
ATOM     19  C   UNL     1       6.079   3.907  14.081  0.00  0.00    +0.000 C 
ATOM     20  S   UNL     1       7.134   4.888  15.125  0.00  0.00    +0.000 S 
ATOM     21  O   UNL     1       7.634   4.057  16.196  0.00  0.00    +0.000 OA
ATOM     22  O   UNL     1       8.009   5.650  14.274  0.00  0.00    +0.000 OA
ENDBRANCH  17  20
ENDBRANCH  16  17
ENDBRANCH  15  16
ENDBRANCH   1  15
TORSDOF 5
ENDMDL
MODEL 7
REMARK VINA RESULT:      -6.9      3.110      5.356
REMARK  Name = 
REMARK  6 active torsions:
REMARK  status: ('A' for Active; 'I' for Inactive)
REMARK    1  A    between atoms: C_1  and  S_2
REMARK    2  A    between atoms: S_2  and  N_5
REMARK    3  A    between atoms: N_5  and  C_6
REMARK    4  A    between atoms: C_6  and  C_7
REMARK    5  A    between atoms: C_7  and  C_8
REMARK    6  A    between atoms: N_10  and  C_11
REMARK                            x       y       z     vdW  Elec       q    Type
REMARK                         _______ _______ _______ _____ _____    ______ ____
ROOT
ATOM      1  C   UNL     1       2.441   5.264  19.358  0.00  0.00    +0.000 C 
ATOM      2  O   UNL     1       1.539   5.051  18.555  0.00  0.00    +0.000 OA
ATOM      3  N   UNL     1       2.865   6.514  19.778  0.00  0.00    +0.000 N 
ATOM      4  H   UNL     1       3.827   6.589  20.088  0.00  0.00    +0.000 HD
ENDROOT
BRANCH   3   5
ATOM      5  C   UNL     1       2.242   7.698  19.334  0.00  0.00    +0.000 A 
ATOM      6  C   UNL     1       2.418   8.114  18.009  0.00  0.00    +0.000 A 
ATOM      7  C   UNL     1       1.784   9.260  17.539  0.00  0.00    +0.000 A 
ATOM      8  C   UNL     1       0.984  10.006  18.398  0.00  0.00    +0.000 A 
ATOM      9  C   UNL     1       0.800   9.610  19.732  0.00  0.00    +0.000 A 
ATOM     10  C   UNL     1       1.437   8.447  20.215  0.00  0.00    +0.000 A 
ATOM     11  C   UNL     1       1.289   8.039  21.666  0.00  0.00    +0.000 C 
ATOM     12  C   UNL     1       0.796   9.163  22.573  0.00  0.00    +0.000 C 
ATOM     13  C   UNL     1      -0.412   9.845  21.948  0.00  0.00    +0.000 C 
ATOM     14  C   UNL     1      -0.011  10.509  20.636  0.00  0.00    +0.000 C 
ENDBRANCH   3   5
BRANCH   1  15
ATOM     15  C   UNL     1       3.285   4.135  19.895  0.00  0.00    +0.000 C 
BRANCH  15  16
ATOM     16  C   UNL     1       4.219   3.615  18.812  0.00  0.00    +0.000 C 
BRANCH  16  17
ATOM     17  N   UNL     1       5.636   3.682  19.243  0.00  0.00    +0.000 NA
ATOM     18  H   UNL     1       5.803   3.447  20.225  0.00  0.00    +0.000 HD
BRANCH  17  20
ATOM     19  C   UNL     1       7.565   4.537  17.581  0.00  0.00    +0.000 C 
ATOM     20  S   UNL     1       6.462   5.113  18.851  0.00  0.00    +0.000 S 
ATOM     21  O   UNL     1       7.240   5.519  19.998  0.00  0.00    +0.000 OA
ATOM     22  O   UNL     1       5.496   5.983  18.233  0.00  0.00    +0.000 OA
ENDBRANCH  17  20
ENDBRANCH  16  17
ENDBRANCH  15  16
ENDBRANCH   1  15
TORSDOF 5
ENDMDL
MODEL 8
REMARK VINA RESULT:      -6.8      1.480      2.834
REMARK  Name = 
REMARK  6 active torsions:
REMARK  status: ('A' for Active; 'I' for Inactive)
REMARK    1  A    between atoms: C_1  and  S_2
REMARK    2  A    between atoms: S_2  and  N_5
REMARK    3  A    between atoms: N_5  and  C_6
REMARK    4  A    between atoms: C_6  and  C_7
REMARK    5  A    between atoms: C_7  and  C_8
REMARK    6  A    between atoms: N_10  and  C_11
REMARK                            x       y       z     vdW  Elec       q    Type
REMARK                         _______ _______ _______ _____ _____    ______ ____
ROOT
ATOM      1  C   UNL     1       6.845   5.596  19.135  0.00  0.00    +0.000 C 
ATOM      2  O   UNL     1       7.107   5.229  20.277  0.00  0.00    +0.000 OA
ATOM      3  N   UNL     1       5.719   5.239  18.415  0.00  0.00    +0.000 N 
ATOM      4  H   UNL     1       5.803   5.245  17.405  0.00  0.00    +0.000 HD
ENDROOT
BRANCH   3   5
ATOM      5  C   UNL     1       4.710   4.423  18.966  0.00  0.00    +0.000 A 
ATOM      6  C   UNL     1       4.874   3.032  18.969  0.00  0.00    +0.000 A 
ATOM      7  C   UNL     1       3.908   2.210  19.540  0.00  0.00    +0.000 A 
ATOM      8  C   UNL     1       2.765   2.774  20.099  0.00  0.00    +0.000 A 
ATOM      9  C   UNL     1       2.579   4.165  20.101  0.00  0.00    +0.000 A 
ATOM     10  C   UNL     1       3.556   5.006  19.526  0.00  0.00    +0.000 A 
ATOM     11  C   UNL     1       3.342   6.504  19.475  0.00  0.00    +0.000 C 
ATOM     12  C   UNL     1       1.889   6.925  19.682  0.00  0.00    +0.000 C 
ATOM     13  C   UNL     1       1.309   6.212  20.893  0.00  0.00    +0.000 C 
ATOM     14  C   UNL     1       1.279   4.708  20.645  0.00  0.00    +0.000 C 
ENDBRANCH   3   5
BRANCH   1  15
ATOM     15  C   UNL     1       7.831   6.413  18.338  0.00  0.00    +0.000 C 
BRANCH  15  16
ATOM     16  C   UNL     1       7.273   6.707  16.952  0.00  0.00    +0.000 C 
BRANCH  16  17
ATOM     17  N   UNL     1       7.581   5.611  16.004  0.00  0.00    +0.000 NA
ATOM     18  H   UNL     1       8.375   5.783  15.383  0.00  0.00    +0.000 HD
BRANCH  17  20
ATOM     19  C   UNL     1       7.036   4.744  13.520  0.00  0.00    +0.000 C 
ATOM     20  S   UNL     1       6.268   5.023  15.100  0.00  0.00    +0.000 S 
ATOM     21  O   UNL     1       5.297   6.084  14.966  0.00  0.00    +0.000 OA
ATOM     22  O   UNL     1       5.932   3.740  15.658  0.00  0.00    +0.000 OA
ENDBRANCH  17  20
ENDBRANCH  16  17
ENDBRANCH  15  16
ENDBRANCH   1  15
TORSDOF 5
ENDMDL
MODEL 9
REMARK VINA RESULT:      -6.8      1.753      2.903
REMARK  Name = 
REMARK  6 active torsions:
REMARK  status: ('A' for Active; 'I' for Inactive)
REMARK    1  A    between atoms: C_1  and  S_2
REMARK    2  A    between atoms: S_2  and  N_5
REMARK    3  A    between atoms: N_5  and  C_6
REMARK    4  A    between atoms: C_6  and  C_7
REMARK    5  A    between atoms: C_7  and  C_8
REMARK    6  A    between atoms: N_10  and  C_11
REMARK                            x       y       z     vdW  Elec       q    Type
REMARK                         _______ _______ _______ _____ _____    ______ ____
ROOT
ATOM      1  C   UNL     1       6.836   4.748  19.057  0.00  0.00    +0.000 C 
ATOM      2  O   UNL     1       6.934   5.314  20.142  0.00  0.00    +0.000 OA
ATOM      3  N   UNL     1       5.739   4.020  18.627  0.00  0.00    +0.000 N 
ATOM      4  H   UNL     1       5.915   3.289  17.947  0.00  0.00    +0.000 HD
ENDROOT
BRANCH   3   5
ATOM      5  C   UNL     1       4.574   3.896  19.411  0.00  0.00    +0.000 A 
ATOM      6  C   UNL     1       4.317   2.690  20.075  0.00  0.00    +0.000 A 
ATOM      7  C   UNL     1       3.192   2.557  20.884  0.00  0.00    +0.000 A 
ATOM      8  C   UNL     1       2.310   3.625  21.019  0.00  0.00    +0.000 A 
ATOM      9  C   UNL     1       2.547   4.840  20.357  0.00  0.00    +0.000 A 
ATOM     10  C   UNL     1       3.688   4.983  19.538  0.00  0.00    +0.000 A 
ATOM     11  C   UNL     1       3.926   6.270  18.777  0.00  0.00    +0.000 C 
ATOM     12  C   UNL     1       2.682   7.146  18.644  0.00  0.00    +0.000 C 
ATOM     13  C   UNL     1       2.001   7.290  19.997  0.00  0.00    +0.000 C 
ATOM     14  C   UNL     1       1.508   5.930  20.477  0.00  0.00    +0.000 C 
ENDBRANCH   3   5
BRANCH   1  15
ATOM     15  C   UNL     1       8.001   4.695  18.100  0.00  0.00    +0.000 C 
BRANCH  15  16
ATOM     16  C   UNL     1       7.517   4.344  16.700  0.00  0.00    +0.000 C 
BRANCH  16  17
ATOM     17  N   UNL     1       7.077   5.551  15.963  0.00  0.00    +0.000 NA
ATOM     18  H   UNL     1       7.136   6.427  16.488  0.00  0.00    +0.000 HD
BRANCH  17  20
ATOM     19  C   UNL     1       5.995   4.611  13.691  0.00  0.00    +0.000 C 
ATOM     20  S   UNL     1       5.563   5.443  15.202  0.00  0.00    +0.000 S 
ATOM     21  O   UNL     1       5.115   6.780  14.888  0.00  0.00    +0.000 OA
ATOM     22  O   UNL     1       4.774   4.536  15.994  0.00  0.00    +0.000 OA
ENDBRANCH  17  20
ENDBRANCH  16  17
ENDBRANCH  15  16
ENDBRANCH   1  15
TORSDOF 5
ENDMDL
