MODEL 1
REMARK VINA RESULT:      -7.7      0.000      0.000
REMARK  Name = 
REMARK  4 active torsions:
REMARK  status: ('A' for Active; 'I' for Inactive)
REMARK    1  A    between atoms: C_1  and  N_2
REMARK    2  A    between atoms: C_3  and  C_4
REMARK    3  A    between atoms: C_4  and  N_5
REMARK    4  A    between atoms: C_6  and  C_8
REMARK                            x       y       z     vdW  Elec       q    Type
REMARK                         _______ _______ _______ _____ _____    ______ ____
ROOT
ATOM      1  N   UNL     1       1.605   8.745  19.225  0.00  0.00    +0.000 N 
ATOM      2  C   UNL     1       1.791   7.733  20.156  0.00  0.00    +0.000 C 
ATOM      3  O   UNL     1       1.337   7.807  21.305  0.00  0.00    +0.000 OA
ATOM      4  H   UNL     1       1.980   8.646  18.294  0.00  0.00    +0.000 HD
ENDROOT
BRANCH   2   5
ATOM      5  C   UNL     1       2.629   6.551  19.602  0.00  0.00    +0.000 C 
ATOM      6  C   UNL     1       3.259   6.949  18.258  0.00  0.00    +0.000 C 
ATOM      7  C   UNL     1       3.847   5.830  17.398  0.00  0.00    +0.000 C 
ATOM      8  C   UNL     1       3.297   4.424  17.574  0.00  0.00    +0.000 C 
ATOM      9  C   UNL     1       2.330   4.248  18.680  0.00  0.00    +0.000 A 
ATOM     10  N   UNL     1       1.785   3.099  19.018  0.00  0.00    +0.000 NA
ATOM     11  C   UNL     1       1.082   3.345  20.161  0.00  0.00    +0.000 A 
ATOM     12  C   UNL     1       1.177   4.671  20.513  0.00  0.00    +0.000 A 
ATOM     13  N   UNL     1       1.959   5.250  19.549  0.00  0.00    +0.000 N 
ENDBRANCH   2   5
BRANCH   1  14
ATOM     14  C   UNL     1       1.089  10.066  19.532  0.00  0.00    +0.000 C 
BRANCH  14  17
ATOM     15  C   UNL     1      -1.276  11.775  20.567  0.00  0.00    +0.000 C 
ATOM     16  N   UNL     1      -1.259  11.045  19.321  0.00  0.00    +0.000 N 
ATOM     17  C   UNL     1      -0.219  10.286  18.826  0.00  0.00    +0.000 A 
ATOM     18  N   UNL     1      -0.527   9.804  17.632  0.00  0.00    +0.000 NA
ATOM     19  C   UNL     1      -1.797  10.262  17.351  0.00  0.00    +0.000 A 
ATOM     20  C   UNL     1      -2.586  10.053  16.207  0.00  0.00    +0.000 A 
ATOM     21  C   UNL     1      -3.878  10.591  16.154  0.00  0.00    +0.000 A 
ATOM     22  C   UNL     1      -4.376  11.325  17.225  0.00  0.00    +0.000 A 
ATOM     23  C   UNL     1      -3.599  11.554  18.370  0.00  0.00    +0.000 A 
ATOM     24 CL   UNL     1      -4.293  12.459  19.656  0.00  0.00    +0.000 Cl
ATOM     25  C   UNL     1      -2.300  11.017  18.408  0.00  0.00    +0.000 A 
ENDBRANCH  14  17
ENDBRANCH   1  14
TORSDOF 3
ENDMDL
MODEL 2
REMARK VINA RESULT:      -7.4      2.993      3.902
REMARK  Name = 
REMARK  4 active torsions:
REMARK  status: ('A' for Active; 'I' for Inactive)
REMARK    1  A    between atoms: C_1  and  N_2
REMARK    2  A    between atoms: C_3  and  C_4
REMARK    3  A    between atoms: C_4  and  N_5
REMARK    4  A    between atoms: C_6  and  C_8
REMARK                            x       y       z     vdW  Elec       q    Type
REMARK                         _______ _______ _______ _____ _____    ______ ____
ROOT
ATOM      1  N   UNL     1       2.538   6.700  18.760  0.00  0.00    +0.000 N 
ATOM      2  C   UNL     1       3.670   5.984  18.395  0.00  0.00    +0.000 C 
ATOM      3  O   UNL     1       4.678   6.538  17.941  0.00  0.00    +0.000 OA
ATOM      4  H   UNL     1       1.738   6.217  19.137  0.00  0.00    +0.000 HD
ENDROOT
BRANCH   2   5
ATOM      5  C   UNL     1       3.509   4.455  18.602  0.00  0.00    +0.000 C 
ATOM      6  C   UNL     1       3.121   3.792  17.270  0.00  0.00    +0.000 C 
ATOM      7  C   UNL     1       2.601   2.355  17.325  0.00  0.00    +0.000 C 
ATOM      8  C   UNL     1       1.950   1.876  18.612  0.00  0.00    +0.000 C 
ATOM      9  C   UNL     1       2.013   2.817  19.752  0.00  0.00    +0.000 A 
ATOM     10  N   UNL     1       1.550   2.562  20.957  0.00  0.00    +0.000 NA
ATOM     11  C   UNL     1       1.936   3.615  21.733  0.00  0.00    +0.000 A 
ATOM     12  C   UNL     1       2.623   4.542  20.985  0.00  0.00    +0.000 A 
ATOM     13  N   UNL     1       2.651   4.037  19.712  0.00  0.00    +0.000 N 
ENDBRANCH   2   5
BRANCH   1  14
ATOM     14  C   UNL     1       2.307   8.097  18.443  0.00  0.00    +0.000 C 
BRANCH  14  17
ATOM     15  C   UNL     1       1.326  11.033  18.488  0.00  0.00    +0.000 C 
ATOM     16  N   UNL     1       1.133  10.075  19.551  0.00  0.00    +0.000 N 
ATOM     17  C   UNL     1       1.546   8.759  19.557  0.00  0.00    +0.000 A 
ATOM     18  N   UNL     1       1.151   8.157  20.668  0.00  0.00    +0.000 NA
ATOM     19  C   UNL     1       0.470   9.109  21.398  0.00  0.00    +0.000 A 
ATOM     20  C   UNL     1      -0.164   8.988  22.646  0.00  0.00    +0.000 A 
ATOM     21  C   UNL     1      -0.771  10.112  23.221  0.00  0.00    +0.000 A 
ATOM     22  C   UNL     1      -0.745  11.337  22.562  0.00  0.00    +0.000 A 
ATOM     23  C   UNL     1      -0.128  11.473  21.310  0.00  0.00    +0.000 A 
ATOM     24 CL   UNL     1      -0.127  13.024  20.568  0.00  0.00    +0.000 Cl
ATOM     25  C   UNL     1       0.469  10.336  20.738  0.00  0.00    +0.000 A 
ENDBRANCH  14  17
ENDBRANCH   1  14
TORSDOF 3
ENDMDL
MODEL 3
REMARK VINA RESULT:      -7.4      1.724      2.617
REMARK  Name = 
REMARK  4 active torsions:
REMARK  status: ('A' for Active; 'I' for Inactive)
REMARK    1  A    between atoms: C_1  and  N_2
REMARK    2  A    between atoms: C_3  and  C_4
REMARK    3  A    between atoms: C_4  and  N_5
REMARK    4  A    between atoms: C_6  and  C_8
REMARK                            x       y       z     vdW  Elec       q    Type
REMARK                         _______ _______ _______ _____ _____    ______ ____
ROOT
ATOM      1  N   UNL     1       1.969   8.361  17.804  0.00  0.00    +0.000 N 
ATOM      2  C   UNL     1       2.358   7.283  18.587  0.00  0.00    +0.000 C 
ATOM      3  O   UNL     1       2.385   7.345  19.822  0.00  0.00    +0.000 OA
ATOM      4  H   UNL     1       1.949   8.272  16.800  0.00  0.00    +0.000 HD
ENDROOT
BRANCH   2   5
ATOM      5  C   UNL     1       2.761   6.043  17.747  0.00  0.00    +0.000 C 
ATOM      6  C   UNL     1       2.017   4.802  18.268  0.00  0.00    +0.000 C 
ATOM      7  C   UNL     1       2.512   3.435  17.796  0.00  0.00    +0.000 C 
ATOM      8  C   UNL     1       3.965   3.306  17.369  0.00  0.00    +0.000 C 
ATOM      9  C   UNL     1       4.732   4.570  17.315  0.00  0.00    +0.000 A 
ATOM     10  N   UNL     1       5.984   4.667  16.922  0.00  0.00    +0.000 NA
ATOM     11  C   UNL     1       6.258   6.003  16.880  0.00  0.00    +0.000 A 
ATOM     12  C   UNL     1       5.164   6.733  17.280  0.00  0.00    +0.000 A 
ATOM     13  N   UNL     1       4.196   5.811  17.578  0.00  0.00    +0.000 N 
ENDBRANCH   2   5
BRANCH   1  14
ATOM     14  C   UNL     1       1.787   9.715  18.295  0.00  0.00    +0.000 C 
BRANCH  14  17
ATOM     15  C   UNL     1       0.449  12.018  19.872  0.00  0.00    +0.000 C 
ATOM     16  N   UNL     1      -0.236  11.113  18.979  0.00  0.00    +0.000 N 
ATOM     17  C   UNL     1       0.332  10.086  18.254  0.00  0.00    +0.000 A 
ATOM     18  N   UNL     1      -0.580   9.497  17.497  0.00  0.00    +0.000 NA
ATOM     19  C   UNL     1      -1.766  10.157  17.742  0.00  0.00    +0.000 A 
ATOM     20  C   UNL     1      -3.038   9.938  17.187  0.00  0.00    +0.000 A 
ATOM     21  C   UNL     1      -4.120  10.717  17.617  0.00  0.00    +0.000 A 
ATOM     22  C   UNL     1      -3.936  11.699  18.586  0.00  0.00    +0.000 A 
ATOM     23  C   UNL     1      -2.671  11.940  19.142  0.00  0.00    +0.000 A 
ATOM     24 CL   UNL     1      -2.531  13.160  20.344  0.00  0.00    +0.000 Cl
ATOM     25  C   UNL     1      -1.591  11.158  18.695  0.00  0.00    +0.000 A 
ENDBRANCH  14  17
ENDBRANCH   1  14
TORSDOF 3
ENDMDL
MODEL 4
REMARK VINA RESULT:      -7.4      1.606      2.456
REMARK  Name = 
REMARK  4 active torsions:
REMARK  status: ('A' for Active; 'I' for Inactive)
REMARK    1  A    between atoms: C_1  and  N_2
REMARK    2  A    between atoms: C_3  and  C_4
REMARK    3  A    between atoms: C_4  and  N_5
REMARK    4  A    between atoms: C_6  and  C_8
REMARK                            x       y       z     vdW  Elec       q    Type
REMARK                         _______ _______ _______ _____ _____    ______ ____
ROOT
ATOM      1  N   UNL     1       1.958   7.811  18.306  0.00  0.00    +0.000 N 
ATOM      2  C   UNL     1       2.063   7.132  19.512  0.00  0.00    +0.000 C 
ATOM      3  O   UNL     1       1.991   7.714  20.602  0.00  0.00    +0.000 OA
ATOM      4  H   UNL     1       2.011   7.304  17.437  0.00  0.00    +0.000 HD
ENDROOT
BRANCH   2   5
ATOM      5  C   UNL     1       2.297   5.610  19.328  0.00  0.00    +0.000 C 
ATOM      6  C   UNL     1       1.402   4.828  20.304  0.00  0.00    +0.000 C 
ATOM      7  C   UNL     1       1.714   3.346  20.510  0.00  0.00    +0.000 C 
ATOM      8  C   UNL     1       3.136   2.869  20.259  0.00  0.00    +0.000 C 
ATOM      9  C   UNL     1       4.059   3.877  19.693  0.00  0.00    +0.000 A 
ATOM     10  N   UNL     1       5.311   3.640  19.363  0.00  0.00    +0.000 NA
ATOM     11  C   UNL     1       5.754   4.775  18.750  0.00  0.00    +0.000 A 
ATOM     12  C   UNL     1       4.766   5.731  18.729  0.00  0.00    +0.000 A 
ATOM     13  N   UNL     1       3.689   5.159  19.353  0.00  0.00    +0.000 N 
ENDBRANCH   2   5
BRANCH   1  14
ATOM     14  C   UNL     1       1.993   9.256  18.166  0.00  0.00    +0.000 C 
BRANCH  14  17
ATOM     15  C   UNL     1       1.026  11.519  20.044  0.00  0.00    +0.000 C 
ATOM     16  N   UNL     1       0.197  10.816  19.093  0.00  0.00    +0.000 N 
ATOM     17  C   UNL     1       0.599   9.813  18.235  0.00  0.00    +0.000 A 
ATOM     18  N   UNL     1      -0.409   9.435  17.464  0.00  0.00    +0.000 NA
ATOM     19  C   UNL     1      -1.487  10.210  17.836  0.00  0.00    +0.000 A 
ATOM     20  C   UNL     1      -2.795  10.221  17.322  0.00  0.00    +0.000 A 
ATOM     21  C   UNL     1      -3.749  11.079  17.885  0.00  0.00    +0.000 A 
ATOM     22  C   UNL     1      -3.403  11.912  18.944  0.00  0.00    +0.000 A 
ATOM     23  C   UNL     1      -2.100  11.924  19.461  0.00  0.00    +0.000 A 
ATOM     24 CL   UNL     1      -1.758  12.972  20.780  0.00  0.00    +0.000 Cl
ATOM     25  C   UNL     1      -1.149  11.066  18.882  0.00  0.00    +0.000 A 
ENDBRANCH  14  17
ENDBRANCH   1  14
TORSDOF 3
ENDMDL
MODEL 5
REMARK VINA RESULT:      -7.2      2.754      7.510
REMARK  Name = 
REMARK  4 active torsions:
REMARK  status: ('A' for Active; 'I' for Inactive)
REMARK    1  A    between atoms: C_1  and  N_2
REMARK    2  A    between atoms: C_3  and  C_4
REMARK    3  A    between atoms: C_4  and  N_5
REMARK    4  A    between atoms: C_6  and  C_8
REMARK                            x       y       z     vdW  Elec       q    Type
REMARK                         _______ _______ _______ _____ _____    ______ ____
ROOT
ATOM      1  N   UNL     1       0.066  10.454  18.169  0.00  0.00    +0.000 N 
ATOM      2  C   UNL     1      -1.137  10.512  18.859  0.00  0.00    +0.000 C 
ATOM      3  O   UNL     1      -1.188  10.770  20.068  0.00  0.00    +0.000 OA
ATOM      4  H   UNL     1       0.070  10.252  17.182  0.00  0.00    +0.000 HD
ENDROOT
BRANCH   2   5
ATOM      5  C   UNL     1      -2.363  10.204  17.960  0.00  0.00    +0.000 C 
ATOM      6  C   UNL     1      -1.885   9.820  16.550  0.00  0.00    +0.000 C 
ATOM      7  C   UNL     1      -2.932   9.797  15.435  0.00  0.00    +0.000 C 
ATOM      8  C   UNL     1      -4.166  10.670  15.591  0.00  0.00    +0.000 C 
ATOM      9  C   UNL     1      -4.304  11.359  16.893  0.00  0.00    +0.000 A 
ATOM     10  N   UNL     1      -5.326  12.115  17.232  0.00  0.00    +0.000 NA
ATOM     11  C   UNL     1      -5.135  12.429  18.546  0.00  0.00    +0.000 A 
ATOM     12  C   UNL     1      -3.964  11.878  19.010  0.00  0.00    +0.000 A 
ATOM     13  N   UNL     1      -3.425  11.211  17.943  0.00  0.00    +0.000 N 
ENDBRANCH   2   5
BRANCH   1  14
ATOM     14  C   UNL     1       1.377  10.445  18.794  0.00  0.00    +0.000 C 
BRANCH  14  17
ATOM     15  C   UNL     1       1.063   8.087  20.775  0.00  0.00    +0.000 C 
ATOM     16  N   UNL     1       1.852   8.059  19.566  0.00  0.00    +0.000 N 
ATOM     17  C   UNL     1       2.003   9.086  18.657  0.00  0.00    +0.000 A 
ATOM     18  N   UNL     1       2.750   8.694  17.638  0.00  0.00    +0.000 NA
ATOM     19  C   UNL     1       3.093   7.383  17.896  0.00  0.00    +0.000 A 
ATOM     20  C   UNL     1       3.863   6.495  17.125  0.00  0.00    +0.000 A 
ATOM     21  C   UNL     1       4.115   5.205  17.608  0.00  0.00    +0.000 A 
ATOM     22  C   UNL     1       3.607   4.806  18.840  0.00  0.00    +0.000 A 
ATOM     23  C   UNL     1       2.826   5.673  19.617  0.00  0.00    +0.000 A 
ATOM     24 CL   UNL     1       2.248   5.109  21.134  0.00  0.00    +0.000 Cl
ATOM     25  C   UNL     1       2.571   6.963  19.118  0.00  0.00    +0.000 A 
ENDBRANCH  14  17
ENDBRANCH   1  14
TORSDOF 3
ENDMDL
MODEL 6
REMARK VINA RESULT:      -7.2      3.697      7.777
REMARK  Name = 
REMARK  4 active torsions:
REMARK  status: ('A' for Active; 'I' for Inactive)
REMARK    1  A    between atoms: C_1  and  N_2
REMARK    2  A    between atoms: C_3  and  C_4
REMARK    3  A    between atoms: C_4  and  N_5
REMARK    4  A    between atoms: C_6  and  C_8
REMARK                            x       y       z     vdW  Elec       q    Type
REMARK                         _______ _______ _______ _____ _____    ______ ____
ROOT
ATOM      1  N   UNL     1       1.109   9.413  18.503  0.00  0.00    +0.000 N 
ATOM      2  C   UNL     1       0.977  10.721  18.947  0.00  0.00    +0.000 C 
ATOM      3  O   UNL     1       1.807  11.595  18.667  0.00  0.00    +0.000 OA
ATOM      4  H   UNL     1       0.408   8.728  18.741  0.00  0.00    +0.000 HD
ENDROOT
BRANCH   2   5
ATOM      5  C   UNL     1      -0.283  10.936  19.825  0.00  0.00    +0.000 C 
ATOM      6  C   UNL     1      -0.857  12.339  19.570  0.00  0.00    +0.000 C 
ATOM      7  C   UNL     1      -1.895  12.866  20.562  0.00  0.00    +0.000 C 
ATOM      8  C   UNL     1      -1.878  12.315  21.978  0.00  0.00    +0.000 C 
ATOM      9  C   UNL     1      -0.935  11.201  22.222  0.00  0.00    +0.000 A 
ATOM     10  N   UNL     1      -0.813  10.564  23.367  0.00  0.00    +0.000 NA
ATOM     11  C   UNL     1       0.042   9.529  23.126  0.00  0.00    +0.000 A 
ATOM     12  C   UNL     1       0.470   9.549  21.820  0.00  0.00    +0.000 A 
ATOM     13  N   UNL     1      -0.141  10.634  21.250  0.00  0.00    +0.000 N 
ENDBRANCH   2   5
BRANCH   1  14
ATOM     14  C   UNL     1       2.304   8.865  17.888  0.00  0.00    +0.000 C 
BRANCH  14  17
ATOM     15  C   UNL     1       4.507   6.924  16.907  0.00  0.00    +0.000 C 
ATOM     16  N   UNL     1       3.570   6.650  17.971  0.00  0.00    +0.000 N 
ATOM     17  C   UNL     1       2.586   7.496  18.439  0.00  0.00    +0.000 A 
ATOM     18  N   UNL     1       1.949   6.943  19.459  0.00  0.00    +0.000 NA
ATOM     19  C   UNL     1       2.534   5.709  19.652  0.00  0.00    +0.000 A 
ATOM     20  C   UNL     1       2.243   4.726  20.613  0.00  0.00    +0.000 A 
ATOM     21  C   UNL     1       2.951   3.517  20.598  0.00  0.00    +0.000 A 
ATOM     22  C   UNL     1       3.933   3.292  19.638  0.00  0.00    +0.000 A 
ATOM     23  C   UNL     1       4.245   4.266  18.679  0.00  0.00    +0.000 A 
ATOM     24 CL   UNL     1       5.460   3.904  17.518  0.00  0.00    +0.000 Cl
ATOM     25  C   UNL     1       3.535   5.479  18.710  0.00  0.00    +0.000 A 
ENDBRANCH  14  17
ENDBRANCH   1  14
TORSDOF 3
ENDMDL
MODEL 7
REMARK VINA RESULT:      -7.2      2.034      2.550
REMARK  Name = 
REMARK  4 active torsions:
REMARK  status: ('A' for Active; 'I' for Inactive)
REMARK    1  A    between atoms: C_1  and  N_2
REMARK    2  A    between atoms: C_3  and  C_4
REMARK    3  A    between atoms: C_4  and  N_5
REMARK    4  A    between atoms: C_6  and  C_8
REMARK                            x       y       z     vdW  Elec       q    Type
REMARK                         _______ _______ _______ _____ _____    ______ ____
ROOT
ATOM      1  N   UNL     1       2.208   7.225  20.515  0.00  0.00    +0.000 N 
ATOM      2  C   UNL     1       2.132   5.856  20.304  0.00  0.00    +0.000 C 
ATOM      3  O   UNL     1       1.245   5.161  20.816  0.00  0.00    +0.000 OA
ATOM      4  H   UNL     1       2.938   7.762  20.073  0.00  0.00    +0.000 HD
ENDROOT
BRANCH   2   5
ATOM      5  C   UNL     1       3.271   5.321  19.397  0.00  0.00    +0.000 C 
ATOM      6  C   UNL     1       3.527   6.313  18.251  0.00  0.00    +0.000 C 
ATOM      7  C   UNL     1       4.373   5.826  17.075  0.00  0.00    +0.000 C 
ATOM      8  C   UNL     1       4.415   4.333  16.790  0.00  0.00    +0.000 C 
ATOM      9  C   UNL     1       3.736   3.472  17.783  0.00  0.00    +0.000 A 
ATOM     10  N   UNL     1       3.708   2.157  17.735  0.00  0.00    +0.000 NA
ATOM     11  C   UNL     1       3.119   1.756  18.898  0.00  0.00    +0.000 A 
ATOM     12  C   UNL     1       2.757   2.843  19.657  0.00  0.00    +0.000 A 
ATOM     13  N   UNL     1       3.135   3.941  18.930  0.00  0.00    +0.000 N 
ENDBRANCH   2   5
BRANCH   1  14
ATOM     14  C   UNL     1       1.442   7.952  21.511  0.00  0.00    +0.000 C 
BRANCH  14  17
ATOM     15  C   UNL     1      -0.415   9.971  22.945  0.00  0.00    +0.000 C 
ATOM     16  N   UNL     1      -0.153   9.945  21.525  0.00  0.00    +0.000 N 
ATOM     17  C   UNL     1       0.676   9.068  20.857  0.00  0.00    +0.000 A 
ATOM     18  N   UNL     1       0.724   9.368  19.569  0.00  0.00    +0.000 NA
ATOM     19  C   UNL     1      -0.097  10.464  19.401  0.00  0.00    +0.000 A 
ATOM     20  C   UNL     1      -0.388  11.187  18.232  0.00  0.00    +0.000 A 
ATOM     21  C   UNL     1      -1.290  12.257  18.291  0.00  0.00    +0.000 A 
ATOM     22  C   UNL     1      -1.894  12.599  19.497  0.00  0.00    +0.000 A 
ATOM     23  C   UNL     1      -1.606  11.897  20.676  0.00  0.00    +0.000 A 
ATOM     24 CL   UNL     1      -2.405  12.372  22.121  0.00  0.00    +0.000 Cl
ATOM     25  C   UNL     1      -0.691  10.831  20.606  0.00  0.00    +0.000 A 
ENDBRANCH  14  17
ENDBRANCH   1  14
TORSDOF 3
ENDMDL
MODEL 8
REMARK VINA RESULT:      -7.2      2.389      3.342
REMARK  Name = 
REMARK  4 active torsions:
REMARK  status: ('A' for Active; 'I' for Inactive)
REMARK    1  A    between atoms: C_1  and  N_2
REMARK    2  A    between atoms: C_3  and  C_4
REMARK    3  A    between atoms: C_4  and  N_5
REMARK    4  A    between atoms: C_6  and  C_8
REMARK                            x       y       z     vdW  Elec       q    Type
REMARK                         _______ _______ _______ _____ _____    ______ ____
ROOT
ATOM      1  N   UNL     1       1.907   7.122  20.129  0.00  0.00    +0.000 N 
ATOM      2  C   UNL     1       2.214   5.769  20.138  0.00  0.00    +0.000 C 
ATOM      3  O   UNL     1       2.025   5.060  21.134  0.00  0.00    +0.000 OA
ATOM      4  H   UNL     1       2.064   7.668  19.296  0.00  0.00    +0.000 HD
ENDROOT
BRANCH   2   5
ATOM      5  C   UNL     1       2.822   5.280  18.798  0.00  0.00    +0.000 C 
ATOM      6  C   UNL     1       1.996   4.103  18.255  0.00  0.00    +0.000 C 
ATOM      7  C   UNL     1       2.610   3.275  17.126  0.00  0.00    +0.000 C 
ATOM      8  C   UNL     1       4.124   3.240  17.002  0.00  0.00    +0.000 C 
ATOM      9  C   UNL     1       4.863   4.140  17.915  0.00  0.00    +0.000 A 
ATOM     10  N   UNL     1       6.170   4.286  17.922  0.00  0.00    +0.000 NA
ATOM     11  C   UNL     1       6.425   5.303  18.795  0.00  0.00    +0.000 A 
ATOM     12  C   UNL     1       5.257   5.769  19.349  0.00  0.00    +0.000 A 
ATOM     13  N   UNL     1       4.261   5.008  18.799  0.00  0.00    +0.000 N 
ENDBRANCH   2   5
BRANCH   1  14
ATOM     14  C   UNL     1       1.569   7.901  21.307  0.00  0.00    +0.000 C 
BRANCH  14  17
ATOM     15  C   UNL     1      -0.159   9.637  23.200  0.00  0.00    +0.000 C 
ATOM     16  N   UNL     1      -0.004   9.855  21.781  0.00  0.00    +0.000 N 
ATOM     17  C   UNL     1       0.766   9.109  20.913  0.00  0.00    +0.000 A 
ATOM     18  N   UNL     1       0.720   9.625  19.695  0.00  0.00    +0.000 NA
ATOM     19  C   UNL     1      -0.103  10.729  19.778  0.00  0.00    +0.000 A 
ATOM     20  C   UNL     1      -0.474  11.639  18.774  0.00  0.00    +0.000 A 
ATOM     21  C   UNL     1      -1.361  12.679  19.083  0.00  0.00    +0.000 A 
ATOM     22  C   UNL     1      -1.870  12.808  20.371  0.00  0.00    +0.000 A 
ATOM     23  C   UNL     1      -1.500  11.916  21.388  0.00  0.00    +0.000 A 
ATOM     24 CL   UNL     1      -2.185  12.135  22.949  0.00  0.00    +0.000 Cl
ATOM     25  C   UNL     1      -0.602  10.882  21.070  0.00  0.00    +0.000 A 
ENDBRANCH  14  17
ENDBRANCH   1  14
TORSDOF 3
ENDMDL
MODEL 9
REMARK VINA RESULT:      -7.1      1.266      2.103
REMARK  Name = 
REMARK  4 active torsions:
REMARK  status: ('A' for Active; 'I' for Inactive)
REMARK    1  A    between atoms: C_1  and  N_2
REMARK    2  A    between atoms: C_3  and  C_4
REMARK    3  A    between atoms: C_4  and  N_5
REMARK    4  A    between atoms: C_6  and  C_8
REMARK                            x       y       z     vdW  Elec       q    Type
REMARK                         _______ _______ _______ _____ _____    ______ ____
ROOT
ATOM      1  N   UNL     1       1.651   8.443  19.607  0.00  0.00    +0.000 N 
ATOM      2  C   UNL     1       2.403   7.655  18.748  0.00  0.00    +0.000 C 
ATOM      3  O   UNL     1       3.138   8.145  17.882  0.00  0.00    +0.000 OA
ATOM      4  H   UNL     1       1.070   8.010  20.308  0.00  0.00    +0.000 HD
ENDROOT
BRANCH   2   5
ATOM      5  C   UNL     1       2.196   6.136  18.986  0.00  0.00    +0.000 C 
ATOM      6  C   UNL     1       1.804   5.892  20.453  0.00  0.00    +0.000 C 
ATOM      7  C   UNL     1       1.873   4.455  20.969  0.00  0.00    +0.000 C 
ATOM      8  C   UNL     1       2.827   3.490  20.283  0.00  0.00    +0.000 C 
ATOM      9  C   UNL     1       3.501   4.008  19.072  0.00  0.00    +0.000 A 
ATOM     10  N   UNL     1       4.321   3.307  18.318  0.00  0.00    +0.000 NA
ATOM     11  C   UNL     1       4.598   4.096  17.240  0.00  0.00    +0.000 A 
ATOM     12  C   UNL     1       3.959   5.308  17.350  0.00  0.00    +0.000 A 
ATOM     13  N   UNL     1       3.274   5.256  18.535  0.00  0.00    +0.000 N 
ENDBRANCH   2   5
BRANCH   1  14
ATOM     14  C   UNL     1       1.448   9.872  19.453  0.00  0.00    +0.000 C 
BRANCH  14  17
ATOM     15  C   UNL     1      -0.760  11.715  20.598  0.00  0.00    +0.000 C 
ATOM     16  N   UNL     1      -0.862  10.956  19.374  0.00  0.00    +0.000 N 
ATOM     17  C   UNL     1       0.105  10.137  18.830  0.00  0.00    +0.000 A 
ATOM     18  N   UNL     1      -0.305   9.643  17.673  0.00  0.00    +0.000 NA
ATOM     19  C   UNL     1      -1.570  10.153  17.466  0.00  0.00    +0.000 A 
ATOM     20  C   UNL     1      -2.443   9.956  16.383  0.00  0.00    +0.000 A 
ATOM     21  C   UNL     1      -3.709  10.553  16.403  0.00  0.00    +0.000 A 
ATOM     22  C   UNL     1      -4.099  11.335  17.486  0.00  0.00    +0.000 A 
ATOM     23  C   UNL     1      -3.236  11.553  18.569  0.00  0.00    +0.000 A 
ATOM     24 CL   UNL     1      -3.799  12.519  19.875  0.00  0.00    +0.000 Cl
ATOM     25  C   UNL     1      -1.964  10.957  18.534  0.00  0.00    +0.000 A 
ENDBRANCH  14  17
ENDBRANCH   1  14
TORSDOF 3
ENDMDL
