MODEL 1
REMARK VINA RESULT:      -7.4      0.000      0.000
REMARK  Name = 
REMARK  9 active torsions:
REMARK  status: ('A' for Active; 'I' for Inactive)
REMARK    1  A    between atoms: C_1  and  C_2
REMARK    2  A    between atoms: C_2  and  O_3
REMARK    3  A    between atoms: O_3  and  C_4
REMARK    4  A    between atoms: C_4  and  C_6
REMARK    5  A    between atoms: C_6  and  C_7
REMARK    6  A    between atoms: C_8  and  C_9
REMARK    7  A    between atoms: C_12  and  C_13
REMARK    8  A    between atoms: C_20  and  C_21
REMARK    9  A    between atoms: C_27  and  C_28
REMARK                            x       y       z     vdW  Elec       q    Type
REMARK                         _______ _______ _______ _____ _____    ______ ____
ROOT
ATOM      1  C   UNL     1       1.044   9.630  20.006  0.00  0.00    +0.000 A 
ATOM      2  C   UNL     1       1.886   9.447  18.765  0.00  0.00    +0.000 A 
ATOM      3  C   UNL     1       2.181  10.611  17.843  0.00  0.00    +0.000 C 
ATOM      4  N   UNL     1       2.405   8.319  18.386  0.00  0.00    +0.000 NA
ATOM      5  C   UNL     1       2.238   7.233  19.193  0.00  0.00    +0.000 A 
ATOM      6  C   UNL     1       2.754   5.949  19.111  0.00  0.00    +0.000 A 
ATOM      7  C   UNL     1       2.249   5.285  20.271  0.00  0.00    +0.000 A 
ATOM      8  N   UNL     1       1.445   6.101  20.986  0.00  0.00    +0.000 NA
ATOM      9  N   UNL     1       1.473   7.300  20.351  0.00  0.00    +0.000 N 
ATOM     10  C   UNL     1       0.861   8.507  20.747  0.00  0.00    +0.000 A 
ATOM     11  C   UNL     1       0.062   8.505  22.024  0.00  0.00    +0.000 C 
ENDROOT
BRANCH   6  12
ATOM     12  C   UNL     1       3.645   5.521  18.032  0.00  0.00    +0.000 A 
ATOM     13  C   UNL     1       4.701   6.347  17.605  0.00  0.00    +0.000 A 
ATOM     14  C   UNL     1       5.551   5.963  16.565  0.00  0.00    +0.000 A 
ATOM     15  C   UNL     1       5.378   4.724  15.960  0.00  0.00    +0.000 A 
ATOM     16 CL   UNL     1       6.441   4.230  14.702  0.00  0.00    +0.000 Cl
ATOM     17  C   UNL     1       4.344   3.885  16.367  0.00  0.00    +0.000 A 
ATOM     18  C   UNL     1       3.467   4.293  17.380  0.00  0.00    +0.000 A 
ENDBRANCH   6  12
BRANCH   7  19
ATOM     19  C   UNL     1       2.517   3.879  20.750  0.00  0.00    +0.000 C 
ATOM     20  F   UNL     1       3.776   3.437  20.489  0.00  0.00    +0.000 F 
ATOM     21  F   UNL     1       2.357   3.751  22.097  0.00  0.00    +0.000 F 
ATOM     22  F   UNL     1       1.674   2.979  20.171  0.00  0.00    +0.000 F 
ENDBRANCH   7  19
BRANCH   1  23
ATOM     23  C   UNL     1       0.482  10.984  20.352  0.00  0.00    +0.000 C 
BRANCH  23  24
ATOM     24  C   UNL     1      -0.965  11.072  19.896  0.00  0.00    +0.000 C 
ATOM     25  O   UNL     1      -1.434  10.510  18.914  0.00  0.00    +0.000 OA
BRANCH  24  26
ATOM     26  O   UNL     1      -1.648  11.912  20.723  0.00  0.00    +0.000 OA
BRANCH  26  28
ATOM     27  C   UNL     1      -1.899  11.630  23.132  0.00  0.00    +0.000 C 
ATOM     28  C   UNL     1      -1.049  12.168  22.001  0.00  0.00    +0.000 C 
ENDBRANCH  26  28
ENDBRANCH  24  26
ENDBRANCH  23  24
ENDBRANCH   1  23
TORSDOF 6
ENDMDL
MODEL 2
REMARK VINA RESULT:      -7.4      0.203      1.179
REMARK  Name = 
REMARK  9 active torsions:
REMARK  status: ('A' for Active; 'I' for Inactive)
REMARK    1  A    between atoms: C_1  and  C_2
REMARK    2  A    between atoms: C_2  and  O_3
REMARK    3  A    between atoms: O_3  and  C_4
REMARK    4  A    between atoms: C_4  and  C_6
REMARK    5  A    between atoms: C_6  and  C_7
REMARK    6  A    between atoms: C_8  and  C_9
REMARK    7  A    between atoms: C_12  and  C_13
REMARK    8  A    between atoms: C_20  and  C_21
REMARK    9  A    between atoms: C_27  and  C_28
REMARK                            x       y       z     vdW  Elec       q    Type
REMARK                         _______ _______ _______ _____ _____    ______ ____
ROOT
ATOM      1  C   UNL     1       1.055   9.764  19.969  0.00  0.00    +0.000 A 
ATOM      2  C   UNL     1       1.872   9.601  18.709  0.00  0.00    +0.000 A 
ATOM      3  C   UNL     1       2.140  10.777  17.793  0.00  0.00    +0.000 C 
ATOM      4  N   UNL     1       2.393   8.480  18.307  0.00  0.00    +0.000 NA
ATOM      5  C   UNL     1       2.251   7.385  19.105  0.00  0.00    +0.000 A 
ATOM      6  C   UNL     1       2.776   6.106  18.999  0.00  0.00    +0.000 A 
ATOM      7  C   UNL     1       2.301   5.426  20.162  0.00  0.00    +0.000 A 
ATOM      8  N   UNL     1       1.504   6.228  20.902  0.00  0.00    +0.000 NA
ATOM      9  N   UNL     1       1.510   7.433  20.280  0.00  0.00    +0.000 N 
ATOM     10  C   UNL     1       0.896   8.631  20.701  0.00  0.00    +0.000 A 
ATOM     11  C   UNL     1       0.123   8.609  21.993  0.00  0.00    +0.000 C 
ENDROOT
BRANCH   6  12
ATOM     12  C   UNL     1       3.648   5.697  17.898  0.00  0.00    +0.000 A 
ATOM     13  C   UNL     1       3.567   4.398  17.365  0.00  0.00    +0.000 A 
ATOM     14  C   UNL     1       4.403   3.985  16.324  0.00  0.00    +0.000 A 
ATOM     15  C   UNL     1       5.310   4.883  15.775  0.00  0.00    +0.000 A 
ATOM     16 CL   UNL     1       6.319   4.391  14.472  0.00  0.00    +0.000 Cl
ATOM     17  C   UNL     1       5.407   6.176  16.280  0.00  0.00    +0.000 A 
ATOM     18  C   UNL     1       4.598   6.573  17.353  0.00  0.00    +0.000 A 
ENDBRANCH   6  12
BRANCH   7  19
ATOM     19  C   UNL     1       2.589   4.017  20.621  0.00  0.00    +0.000 C 
ATOM     20  F   UNL     1       2.361   3.810  21.945  0.00  0.00    +0.000 F 
ATOM     21  F   UNL     1       1.827   3.094  19.970  0.00  0.00    +0.000 F 
ATOM     22  F   UNL     1       3.888   3.671  20.404  0.00  0.00    +0.000 F 
ENDBRANCH   7  19
BRANCH   1  23
ATOM     23  C   UNL     1       0.489  11.109  20.341  0.00  0.00    +0.000 C 
BRANCH  23  24
ATOM     24  C   UNL     1      -0.958  11.201  19.886  0.00  0.00    +0.000 C 
ATOM     25  O   UNL     1      -1.446  10.588  18.945  0.00  0.00    +0.000 OA
BRANCH  24  26
ATOM     26  O   UNL     1      -1.616  12.110  20.659  0.00  0.00    +0.000 OA
BRANCH  26  28
ATOM     27  C   UNL     1      -1.904  11.654  23.037  0.00  0.00    +0.000 C 
ATOM     28  C   UNL     1      -1.076  12.336  21.969  0.00  0.00    +0.000 C 
ENDBRANCH  26  28
ENDBRANCH  24  26
ENDBRANCH  23  24
ENDBRANCH   1  23
TORSDOF 6
ENDMDL
MODEL 3
REMARK VINA RESULT:      -7.4      0.994      1.997
REMARK  Name = 
REMARK  9 active torsions:
REMARK  status: ('A' for Active; 'I' for Inactive)
REMARK    1  A    between atoms: C_1  and  C_2
REMARK    2  A    between atoms: C_2  and  O_3
REMARK    3  A    between atoms: O_3  and  C_4
REMARK    4  A    between atoms: C_4  and  C_6
REMARK    5  A    between atoms: C_6  and  C_7
REMARK    6  A    between atoms: C_8  and  C_9
REMARK    7  A    between atoms: C_12  and  C_13
REMARK    8  A    between atoms: C_20  and  C_21
REMARK    9  A    between atoms: C_27  and  C_28
REMARK                            x       y       z     vdW  Elec       q    Type
REMARK                         _______ _______ _______ _____ _____    ______ ____
ROOT
ATOM      1  C   UNL     1       1.034   9.687  19.893  0.00  0.00    +0.000 A 
ATOM      2  C   UNL     1       1.920   9.546  18.678  0.00  0.00    +0.000 A 
ATOM      3  C   UNL     1       2.214  10.732  17.783  0.00  0.00    +0.000 C 
ATOM      4  N   UNL     1       2.482   8.438  18.299  0.00  0.00    +0.000 NA
ATOM      5  C   UNL     1       2.318   7.336  19.084  0.00  0.00    +0.000 A 
ATOM      6  C   UNL     1       2.872   6.067  19.000  0.00  0.00    +0.000 A 
ATOM      7  C   UNL     1       2.347   5.372  20.132  0.00  0.00    +0.000 A 
ATOM      8  N   UNL     1       1.498   6.155  20.833  0.00  0.00    +0.000 NA
ATOM      9  N   UNL     1       1.514   7.363  20.217  0.00  0.00    +0.000 N 
ATOM     10  C   UNL     1       0.857   8.547  20.610  0.00  0.00    +0.000 A 
ATOM     11  C   UNL     1       0.018   8.505  21.860  0.00  0.00    +0.000 C 
ENDROOT
BRANCH   6  12
ATOM     12  C   UNL     1       3.808   5.680  17.944  0.00  0.00    +0.000 A 
ATOM     13  C   UNL     1       3.696   4.430  17.310  0.00  0.00    +0.000 A 
ATOM     14  C   UNL     1       4.591   4.036  16.312  0.00  0.00    +0.000 A 
ATOM     15  C   UNL     1       5.593   4.910  15.907  0.00  0.00    +0.000 A 
ATOM     16 CL   UNL     1       6.678   4.445  14.656  0.00  0.00    +0.000 Cl
ATOM     17  C   UNL     1       5.723   6.155  16.514  0.00  0.00    +0.000 A 
ATOM     18  C   UNL     1       4.851   6.527  17.545  0.00  0.00    +0.000 A 
ENDBRANCH   6  12
BRANCH   7  19
ATOM     19  C   UNL     1       2.637   3.966  20.599  0.00  0.00    +0.000 C 
ATOM     20  F   UNL     1       2.393   3.762  21.922  0.00  0.00    +0.000 F 
ATOM     21  F   UNL     1       1.888   3.037  19.942  0.00  0.00    +0.000 F 
ATOM     22  F   UNL     1       3.941   3.626  20.400  0.00  0.00    +0.000 F 
ENDBRANCH   7  19
BRANCH   1  23
ATOM     23  C   UNL     1       0.425  11.020  20.241  0.00  0.00    +0.000 C 
BRANCH  23  24
ATOM     24  C   UNL     1      -0.618  11.395  19.201  0.00  0.00    +0.000 C 
ATOM     25  O   UNL     1      -0.772  12.512  18.724  0.00  0.00    +0.000 OA
BRANCH  24  26
ATOM     26  O   UNL     1      -1.386  10.306  18.919  0.00  0.00    +0.000 OA
BRANCH  26  28
ATOM     27  C   UNL     1      -3.284   9.731  17.499  0.00  0.00    +0.000 C 
ATOM     28  C   UNL     1      -1.842  10.186  17.564  0.00  0.00    +0.000 C 
ENDBRANCH  26  28
ENDBRANCH  24  26
ENDBRANCH  23  24
ENDBRANCH   1  23
TORSDOF 6
ENDMDL
MODEL 4
REMARK VINA RESULT:      -7.4      0.987      1.645
REMARK  Name = 
REMARK  9 active torsions:
REMARK  status: ('A' for Active; 'I' for Inactive)
REMARK    1  A    between atoms: C_1  and  C_2
REMARK    2  A    between atoms: C_2  and  O_3
REMARK    3  A    between atoms: O_3  and  C_4
REMARK    4  A    between atoms: C_4  and  C_6
REMARK    5  A    between atoms: C_6  and  C_7
REMARK    6  A    between atoms: C_8  and  C_9
REMARK    7  A    between atoms: C_12  and  C_13
REMARK    8  A    between atoms: C_20  and  C_21
REMARK    9  A    between atoms: C_27  and  C_28
REMARK                            x       y       z     vdW  Elec       q    Type
REMARK                         _______ _______ _______ _____ _____    ______ ____
ROOT
ATOM      1  C   UNL     1       1.013   9.750  19.908  0.00  0.00    +0.000 A 
ATOM      2  C   UNL     1       1.878   9.594  18.679  0.00  0.00    +0.000 A 
ATOM      3  C   UNL     1       2.168  10.771  17.773  0.00  0.00    +0.000 C 
ATOM      4  N   UNL     1       2.423   8.478  18.298  0.00  0.00    +0.000 NA
ATOM      5  C   UNL     1       2.262   7.382  19.092  0.00  0.00    +0.000 A 
ATOM      6  C   UNL     1       2.803   6.108  19.007  0.00  0.00    +0.000 A 
ATOM      7  C   UNL     1       2.290   5.424  20.152  0.00  0.00    +0.000 A 
ATOM      8  N   UNL     1       1.460   6.219  20.861  0.00  0.00    +0.000 NA
ATOM      9  N   UNL     1       1.477   7.424  20.238  0.00  0.00    +0.000 N 
ATOM     10  C   UNL     1       0.838   8.616  20.635  0.00  0.00    +0.000 A 
ATOM     11  C   UNL     1       0.018   8.588  21.898  0.00  0.00    +0.000 C 
ENDROOT
BRANCH   6  12
ATOM     12  C   UNL     1       3.718   5.706  17.939  0.00  0.00    +0.000 A 
ATOM     13  C   UNL     1       4.696   6.597  17.461  0.00  0.00    +0.000 A 
ATOM     14  C   UNL     1       5.568   6.237  16.430  0.00  0.00    +0.000 A 
ATOM     15  C   UNL     1       5.497   4.960  15.887  0.00  0.00    +0.000 A 
ATOM     16 CL   UNL     1       6.588   4.499  14.640  0.00  0.00    +0.000 Cl
ATOM     17  C   UNL     1       4.542   4.057  16.345  0.00  0.00    +0.000 A 
ATOM     18  C   UNL     1       3.641   4.438  17.348  0.00  0.00    +0.000 A 
ENDBRANCH   6  12
BRANCH   7  19
ATOM     19  C   UNL     1       2.575   4.018  20.622  0.00  0.00    +0.000 C 
ATOM     20  F   UNL     1       3.863   3.624  20.439  0.00  0.00    +0.000 F 
ATOM     21  F   UNL     1       2.330   3.857  21.953  0.00  0.00    +0.000 F 
ATOM     22  F   UNL     1       1.805   3.102  19.971  0.00  0.00    +0.000 F 
ENDBRANCH   7  19
BRANCH   1  23
ATOM     23  C   UNL     1       0.422  11.090  20.258  0.00  0.00    +0.000 C 
BRANCH  23  24
ATOM     24  C   UNL     1      -0.641  11.465  19.238  0.00  0.00    +0.000 C 
ATOM     25  O   UNL     1      -0.764  12.565  18.715  0.00  0.00    +0.000 OA
BRANCH  24  26
ATOM     26  O   UNL     1      -1.466  10.399  19.034  0.00  0.00    +0.000 OA
BRANCH  26  28
ATOM     27  C   UNL     1      -2.128   9.897  16.741  0.00  0.00    +0.000 C 
ATOM     28  C   UNL     1      -2.491  10.573  18.046  0.00  0.00    +0.000 C 
ENDBRANCH  26  28
ENDBRANCH  24  26
ENDBRANCH  23  24
ENDBRANCH   1  23
TORSDOF 6
ENDMDL
MODEL 5
REMARK VINA RESULT:      -7.3      0.945      1.318
REMARK  Name = 
REMARK  9 active torsions:
REMARK  status: ('A' for Active; 'I' for Inactive)
REMARK    1  A    between atoms: C_1  and  C_2
REMARK    2  A    between atoms: C_2  and  O_3
REMARK    3  A    between atoms: O_3  and  C_4
REMARK    4  A    between atoms: C_4  and  C_6
REMARK    5  A    between atoms: C_6  and  C_7
REMARK    6  A    between atoms: C_8  and  C_9
REMARK    7  A    between atoms: C_12  and  C_13
REMARK    8  A    between atoms: C_20  and  C_21
REMARK    9  A    between atoms: C_27  and  C_28
REMARK                            x       y       z     vdW  Elec       q    Type
REMARK                         _______ _______ _______ _____ _____    ______ ____
ROOT
ATOM      1  C   UNL     1       1.038   9.651  19.950  0.00  0.00    +0.000 A 
ATOM      2  C   UNL     1       1.881   9.514  18.704  0.00  0.00    +0.000 A 
ATOM      3  C   UNL     1       2.147  10.704  17.806  0.00  0.00    +0.000 C 
ATOM      4  N   UNL     1       2.426   8.406  18.300  0.00  0.00    +0.000 NA
ATOM      5  C   UNL     1       2.286   7.301  19.085  0.00  0.00    +0.000 A 
ATOM      6  C   UNL     1       2.834   6.031  18.976  0.00  0.00    +0.000 A 
ATOM      7  C   UNL     1       2.347   5.331  20.122  0.00  0.00    +0.000 A 
ATOM      8  N   UNL     1       1.524   6.113  20.855  0.00  0.00    +0.000 NA
ATOM      9  N   UNL     1       1.523   7.325  20.245  0.00  0.00    +0.000 N 
ATOM     10  C   UNL     1       0.883   8.508  20.667  0.00  0.00    +0.000 A 
ATOM     11  C   UNL     1       0.086   8.461  21.945  0.00  0.00    +0.000 C 
ENDROOT
BRANCH   6  12
ATOM     12  C   UNL     1       3.732   5.648  17.886  0.00  0.00    +0.000 A 
ATOM     13  C   UNL     1       4.680   6.559  17.385  0.00  0.00    +0.000 A 
ATOM     14  C   UNL     1       5.535   6.216  16.334  0.00  0.00    +0.000 A 
ATOM     15  C   UNL     1       5.478   4.937  15.794  0.00  0.00    +0.000 A 
ATOM     16 CL   UNL     1       6.549   4.497  14.523  0.00  0.00    +0.000 Cl
ATOM     17  C   UNL     1       4.553   4.015  16.275  0.00  0.00    +0.000 A 
ATOM     18  C   UNL     1       3.668   4.377  17.298  0.00  0.00    +0.000 A 
ENDBRANCH   6  12
BRANCH   7  19
ATOM     19  C   UNL     1       2.649   3.923  20.571  0.00  0.00    +0.000 C 
ATOM     20  F   UNL     1       3.945   3.551  20.391  0.00  0.00    +0.000 F 
ATOM     21  F   UNL     1       2.397   3.736  21.897  0.00  0.00    +0.000 F 
ATOM     22  F   UNL     1       1.898   3.006  19.900  0.00  0.00    +0.000 F 
ENDBRANCH   7  19
BRANCH   1  23
ATOM     23  C   UNL     1       0.444  10.983  20.325  0.00  0.00    +0.000 C 
BRANCH  23  24
ATOM     24  C   UNL     1      -0.836  11.215  19.540  0.00  0.00    +0.000 C 
ATOM     25  O   UNL     1      -1.498  10.344  18.990  0.00  0.00    +0.000 OA
BRANCH  24  26
ATOM     26  O   UNL     1      -1.105  12.550  19.500  0.00  0.00    +0.000 OA
BRANCH  26  28
ATOM     27  C   UNL     1       0.180  14.527  18.877  0.00  0.00    +0.000 C 
ATOM     28  C   UNL     1      -0.535  13.279  18.404  0.00  0.00    +0.000 C 
ENDBRANCH  26  28
ENDBRANCH  24  26
ENDBRANCH  23  24
ENDBRANCH   1  23
TORSDOF 6
ENDMDL
MODEL 6
REMARK VINA RESULT:      -7.2      1.002      1.116
REMARK  Name = 
REMARK  9 active torsions:
REMARK  status: ('A' for Active; 'I' for Inactive)
REMARK    1  A    between atoms: C_1  and  C_2
REMARK    2  A    between atoms: C_2  and  O_3
REMARK    3  A    between atoms: O_3  and  C_4
REMARK    4  A    between atoms: C_4  and  C_6
REMARK    5  A    between atoms: C_6  and  C_7
REMARK    6  A    between atoms: C_8  and  C_9
REMARK    7  A    between atoms: C_12  and  C_13
REMARK    8  A    between atoms: C_20  and  C_21
REMARK    9  A    between atoms: C_27  and  C_28
REMARK                            x       y       z     vdW  Elec       q    Type
REMARK                         _______ _______ _______ _____ _____    ______ ____
ROOT
ATOM      1  C   UNL     1       0.744   9.605  19.883  0.00  0.00    +0.000 A 
ATOM      2  C   UNL     1       1.675   9.531  18.696  0.00  0.00    +0.000 A 
ATOM      3  C   UNL     1       1.916  10.738  17.815  0.00  0.00    +0.000 C 
ATOM      4  N   UNL     1       2.322   8.465  18.332  0.00  0.00    +0.000 NA
ATOM      5  C   UNL     1       2.209   7.350  19.108  0.00  0.00    +0.000 A 
ATOM      6  C   UNL     1       2.850   6.122  19.037  0.00  0.00    +0.000 A 
ATOM      7  C   UNL     1       2.339   5.387  20.150  0.00  0.00    +0.000 A 
ATOM      8  N   UNL     1       1.417   6.107  20.826  0.00  0.00    +0.000 NA
ATOM      9  N   UNL     1       1.370   7.317  20.215  0.00  0.00    +0.000 N 
ATOM     10  C   UNL     1       0.622   8.452  20.591  0.00  0.00    +0.000 A 
ATOM     11  C   UNL     1      -0.251   8.345  21.813  0.00  0.00    +0.000 C 
ENDROOT
BRANCH   6  12
ATOM     12  C   UNL     1       3.843   5.806  18.010  0.00  0.00    +0.000 A 
ATOM     13  C   UNL     1       4.911   6.684  17.752  0.00  0.00    +0.000 A 
ATOM     14  C   UNL     1       5.860   6.406  16.764  0.00  0.00    +0.000 A 
ATOM     15  C   UNL     1       5.773   5.222  16.044  0.00  0.00    +0.000 A 
ATOM     16 CL   UNL     1       6.955   4.858  14.849  0.00  0.00    +0.000 Cl
ATOM     17  C   UNL     1       4.729   4.333  16.283  0.00  0.00    +0.000 A 
ATOM     18  C   UNL     1       3.755   4.636  17.243  0.00  0.00    +0.000 A 
ENDBRANCH   6  12
BRANCH   7  19
ATOM     19  C   UNL     1       2.709   4.002  20.621  0.00  0.00    +0.000 C 
ATOM     20  F   UNL     1       4.009   3.671  20.398  0.00  0.00    +0.000 F 
ATOM     21  F   UNL     1       2.516   3.841  21.960  0.00  0.00    +0.000 F 
ATOM     22  F   UNL     1       1.965   3.042  20.003  0.00  0.00    +0.000 F 
ENDBRANCH   7  19
BRANCH   1  23
ATOM     23  C   UNL     1       0.035  10.891  20.216  0.00  0.00    +0.000 C 
BRANCH  23  24
ATOM     24  C   UNL     1       0.810  11.645  21.283  0.00  0.00    +0.000 C 
ATOM     25  O   UNL     1       1.882  12.212  21.112  0.00  0.00    +0.000 OA
BRANCH  24  26
ATOM     26  O   UNL     1       0.151  11.550  22.471  0.00  0.00    +0.000 OA
BRANCH  26  28
ATOM     27  C   UNL     1      -2.194  11.828  23.082  0.00  0.00    +0.000 C 
ATOM     28  C   UNL     1      -0.897  12.504  22.693  0.00  0.00    +0.000 C 
ENDBRANCH  26  28
ENDBRANCH  24  26
ENDBRANCH  23  24
ENDBRANCH   1  23
TORSDOF 6
ENDMDL
MODEL 7
REMARK VINA RESULT:      -7.1      1.053      1.651
REMARK  Name = 
REMARK  9 active torsions:
REMARK  status: ('A' for Active; 'I' for Inactive)
REMARK    1  A    between atoms: C_1  and  C_2
REMARK    2  A    between atoms: C_2  and  O_3
REMARK    3  A    between atoms: O_3  and  C_4
REMARK    4  A    between atoms: C_4  and  C_6
REMARK    5  A    between atoms: C_6  and  C_7
REMARK    6  A    between atoms: C_8  and  C_9
REMARK    7  A    between atoms: C_12  and  C_13
REMARK    8  A    between atoms: C_20  and  C_21
REMARK    9  A    between atoms: C_27  and  C_28
REMARK                            x       y       z     vdW  Elec       q    Type
REMARK                         _______ _______ _______ _____ _____    ______ ____
ROOT
ATOM      1  C   UNL     1       0.763   9.473  19.905  0.00  0.00    +0.000 A 
ATOM      2  C   UNL     1       1.708   9.434  18.727  0.00  0.00    +0.000 A 
ATOM      3  C   UNL     1       1.943  10.662  17.872  0.00  0.00    +0.000 C 
ATOM      4  N   UNL     1       2.372   8.383  18.348  0.00  0.00    +0.000 NA
ATOM      5  C   UNL     1       2.264   7.252  19.101  0.00  0.00    +0.000 A 
ATOM      6  C   UNL     1       2.921   6.034  19.013  0.00  0.00    +0.000 A 
ATOM      7  C   UNL     1       2.407   5.270  20.106  0.00  0.00    +0.000 A 
ATOM      8  N   UNL     1       1.470   5.965  20.785  0.00  0.00    +0.000 NA
ATOM      9  N   UNL     1       1.414   7.187  20.198  0.00  0.00    +0.000 N 
ATOM     10  C   UNL     1       0.649   8.305  20.589  0.00  0.00    +0.000 A 
ATOM     11  C   UNL     1      -0.236   8.164  21.799  0.00  0.00    +0.000 C 
ENDROOT
BRANCH   6  12
ATOM     12  C   UNL     1       3.929   5.750  17.991  0.00  0.00    +0.000 A 
ATOM     13  C   UNL     1       3.820   4.608  17.176  0.00  0.00    +0.000 A 
ATOM     14  C   UNL     1       4.782   4.311  16.206  0.00  0.00    +0.000 A 
ATOM     15  C   UNL     1       5.850   5.178  16.012  0.00  0.00    +0.000 A 
ATOM     16 CL   UNL     1       7.019   4.837  14.798  0.00  0.00    +0.000 Cl
ATOM     17  C   UNL     1       5.978   6.318  16.801  0.00  0.00    +0.000 A 
ATOM     18  C   UNL     1       5.036   6.588  17.802  0.00  0.00    +0.000 A 
ENDBRANCH   6  12
BRANCH   7  19
ATOM     19  C   UNL     1       2.789   3.881  20.553  0.00  0.00    +0.000 C 
ATOM     20  F   UNL     1       2.578   3.649  21.877  0.00  0.00    +0.000 F 
ATOM     21  F   UNL     1       2.088   2.914  19.897  0.00  0.00    +0.000 F 
ATOM     22  F   UNL     1       4.108   3.623  20.333  0.00  0.00    +0.000 F 
ENDBRANCH   7  19
BRANCH   1  23
ATOM     23  C   UNL     1       0.035  10.744  20.255  0.00  0.00    +0.000 C 
BRANCH  23  24
ATOM     24  C   UNL     1       0.819  11.514  21.304  0.00  0.00    +0.000 C 
ATOM     25  O   UNL     1       1.807  12.203  21.085  0.00  0.00    +0.000 OA
BRANCH  24  26
ATOM     26  O   UNL     1       0.281  11.278  22.533  0.00  0.00    +0.000 OA
BRANCH  26  28
ATOM     27  C   UNL     1      -1.203  13.136  23.075  0.00  0.00    +0.000 C 
ATOM     28  C   UNL     1      -1.087  11.671  22.711  0.00  0.00    +0.000 C 
ENDBRANCH  26  28
ENDBRANCH  24  26
ENDBRANCH  23  24
ENDBRANCH   1  23
TORSDOF 6
ENDMDL
MODEL 8
REMARK VINA RESULT:      -7.1      0.806      1.422
REMARK  Name = 
REMARK  9 active torsions:
REMARK  status: ('A' for Active; 'I' for Inactive)
REMARK    1  A    between atoms: C_1  and  C_2
REMARK    2  A    between atoms: C_2  and  O_3
REMARK    3  A    between atoms: O_3  and  C_4
REMARK    4  A    between atoms: C_4  and  C_6
REMARK    5  A    between atoms: C_6  and  C_7
REMARK    6  A    between atoms: C_8  and  C_9
REMARK    7  A    between atoms: C_12  and  C_13
REMARK    8  A    between atoms: C_20  and  C_21
REMARK    9  A    between atoms: C_27  and  C_28
REMARK                            x       y       z     vdW  Elec       q    Type
REMARK                         _______ _______ _______ _____ _____    ______ ____
ROOT
ATOM      1  C   UNL     1       1.025   9.651  19.954  0.00  0.00    +0.000 A 
ATOM      2  C   UNL     1       1.870   9.529  18.707  0.00  0.00    +0.000 A 
ATOM      3  C   UNL     1       2.125  10.726  17.816  0.00  0.00    +0.000 C 
ATOM      4  N   UNL     1       2.425   8.428  18.298  0.00  0.00    +0.000 NA
ATOM      5  C   UNL     1       2.295   7.317  19.076  0.00  0.00    +0.000 A 
ATOM      6  C   UNL     1       2.854   6.053  18.959  0.00  0.00    +0.000 A 
ATOM      7  C   UNL     1       2.373   5.342  20.102  0.00  0.00    +0.000 A 
ATOM      8  N   UNL     1       1.543   6.112  20.839  0.00  0.00    +0.000 NA
ATOM      9  N   UNL     1       1.531   7.327  20.236  0.00  0.00    +0.000 N 
ATOM     10  C   UNL     1       0.880   8.503  20.664  0.00  0.00    +0.000 A 
ATOM     11  C   UNL     1       0.083   8.441  21.941  0.00  0.00    +0.000 C 
ENDROOT
BRANCH   6  12
ATOM     12  C   UNL     1       3.757   5.684  17.868  0.00  0.00    +0.000 A 
ATOM     13  C   UNL     1       3.669   4.417  17.264  0.00  0.00    +0.000 A 
ATOM     14  C   UNL     1       4.534   4.041  16.233  0.00  0.00    +0.000 A 
ATOM     15  C   UNL     1       5.477   4.947  15.764  0.00  0.00    +0.000 A 
ATOM     16 CL   UNL     1       6.522   4.502  14.473  0.00  0.00    +0.000 Cl
ATOM     17  C   UNL     1       5.582   6.209  16.341  0.00  0.00    +0.000 A 
ATOM     18  C   UNL     1       4.743   6.566  17.405  0.00  0.00    +0.000 A 
ENDBRANCH   6  12
BRANCH   7  19
ATOM     19  C   UNL     1       2.688   3.934  20.543  0.00  0.00    +0.000 C 
ATOM     20  F   UNL     1       1.976   2.978  19.888  0.00  0.00    +0.000 F 
ATOM     21  F   UNL     1       3.997   3.610  20.350  0.00  0.00    +0.000 F 
ATOM     22  F   UNL     1       2.432   3.751  21.868  0.00  0.00    +0.000 F 
ENDBRANCH   7  19
BRANCH   1  23
ATOM     23  C   UNL     1       0.419  10.975  20.336  0.00  0.00    +0.000 C 
BRANCH  23  24
ATOM     24  C   UNL     1      -0.963  11.106  19.718  0.00  0.00    +0.000 C 
ATOM     25  O   UNL     1      -1.410  10.397  18.825  0.00  0.00    +0.000 OA
BRANCH  24  26
ATOM     26  O   UNL     1      -1.609  12.168  20.277  0.00  0.00    +0.000 OA
BRANCH  26  28
ATOM     27  C   UNL     1      -3.818  12.954  20.946  0.00  0.00    +0.000 C 
ATOM     28  C   UNL     1      -2.955  12.395  19.836  0.00  0.00    +0.000 C 
ENDBRANCH  26  28
ENDBRANCH  24  26
ENDBRANCH  23  24
ENDBRANCH   1  23
TORSDOF 6
ENDMDL
MODEL 9
REMARK VINA RESULT:      -7.1      0.793      1.054
REMARK  Name = 
REMARK  9 active torsions:
REMARK  status: ('A' for Active; 'I' for Inactive)
REMARK    1  A    between atoms: C_1  and  C_2
REMARK    2  A    between atoms: C_2  and  O_3
REMARK    3  A    between atoms: O_3  and  C_4
REMARK    4  A    between atoms: C_4  and  C_6
REMARK    5  A    between atoms: C_6  and  C_7
REMARK    6  A    between atoms: C_8  and  C_9
REMARK    7  A    between atoms: C_12  and  C_13
REMARK    8  A    between atoms: C_20  and  C_21
REMARK    9  A    between atoms: C_27  and  C_28
REMARK                            x       y       z     vdW  Elec       q    Type
REMARK                         _______ _______ _______ _____ _____    ______ ____
ROOT
ATOM      1  C   UNL     1       0.988   9.697  19.897  0.00  0.00    +0.000 A 
ATOM      2  C   UNL     1       1.859   9.564  18.670  0.00  0.00    +0.000 A 
ATOM      3  C   UNL     1       2.133  10.754  17.774  0.00  0.00    +0.000 C 
ATOM      4  N   UNL     1       2.424   8.461  18.282  0.00  0.00    +0.000 NA
ATOM      5  C   UNL     1       2.278   7.356  19.067  0.00  0.00    +0.000 A 
ATOM      6  C   UNL     1       2.840   6.092  18.973  0.00  0.00    +0.000 A 
ATOM      7  C   UNL     1       2.335   5.390  20.111  0.00  0.00    +0.000 A 
ATOM      8  N   UNL     1       1.489   6.166  20.823  0.00  0.00    +0.000 NA
ATOM      9  N   UNL     1       1.489   7.376  20.210  0.00  0.00    +0.000 N 
ATOM     10  C   UNL     1       0.828   8.554  20.614  0.00  0.00    +0.000 A 
ATOM     11  C   UNL     1       0.005   8.503  21.874  0.00  0.00    +0.000 C 
ENDROOT
BRANCH   6  12
ATOM     12  C   UNL     1       3.766   5.714  17.905  0.00  0.00    +0.000 A 
ATOM     13  C   UNL     1       4.745   6.617  17.453  0.00  0.00    +0.000 A 
ATOM     14  C   UNL     1       5.627   6.279  16.423  0.00  0.00    +0.000 A 
ATOM     15  C   UNL     1       5.564   5.014  15.854  0.00  0.00    +0.000 A 
ATOM     16 CL   UNL     1       6.667   4.580  14.608  0.00  0.00    +0.000 Cl
ATOM     17  C   UNL     1       4.607   4.099  16.285  0.00  0.00    +0.000 A 
ATOM     18  C   UNL     1       3.697   4.457  17.288  0.00  0.00    +0.000 A 
ENDBRANCH   6  12
BRANCH   7  19
ATOM     19  C   UNL     1       2.640   3.986  20.571  0.00  0.00    +0.000 C 
ATOM     20  F   UNL     1       1.917   3.026  19.934  0.00  0.00    +0.000 F 
ATOM     21  F   UNL     1       3.946   3.649  20.375  0.00  0.00    +0.000 F 
ATOM     22  F   UNL     1       2.391   3.824  21.900  0.00  0.00    +0.000 F 
ENDBRANCH   7  19
BRANCH   1  23
ATOM     23  C   UNL     1       0.373  11.024  20.255  0.00  0.00    +0.000 C 
BRANCH  23  24
ATOM     24  C   UNL     1      -0.883  11.248  19.429  0.00  0.00    +0.000 C 
ATOM     25  O   UNL     1      -1.547  10.368  18.896  0.00  0.00    +0.000 OA
BRANCH  24  26
ATOM     26  O   UNL     1      -1.127  12.585  19.334  0.00  0.00    +0.000 OA
BRANCH  26  28
ATOM     27  C   UNL     1      -3.153  12.969  20.637  0.00  0.00    +0.000 C 
ATOM     28  C   UNL     1      -1.665  13.216  20.505  0.00  0.00    +0.000 C 
ENDBRANCH  26  28
ENDBRANCH  24  26
ENDBRANCH  23  24
ENDBRANCH   1  23
TORSDOF 6
ENDMDL
