MODEL 1
REMARK VINA RESULT:      -7.5      0.000      0.000
REMARK  Name = 
REMARK  13 active torsions:
REMARK  status: ('A' for Active; 'I' for Inactive)
REMARK    1  A    between atoms: C_1  and  O_2
REMARK    2  A    between atoms: O_2  and  C_3
REMARK    3  A    between atoms: C_5  and  C_6
REMARK    4  A    between atoms: C_12  and  C_13
REMARK    5  A    between atoms: C_13  and  C_14
REMARK    6  A    between atoms: C_24  and  O_25
REMARK    7  A    between atoms: O_25  and  C_26
REMARK    8  A    between atoms: C_26  and  C_28
REMARK    9  A    between atoms: C_28  and  N_29
REMARK   10  A    between atoms: N_29  and  C_30
REMARK   11  A    between atoms: N_29  and  C_31
REMARK   12  A    between atoms: C_32  and  O_33
REMARK   13  A    between atoms: O_33  and  C_34
REMARK                            x       y       z     vdW  Elec       q    Type
REMARK                         _______ _______ _______ _____ _____    ______ ____
ROOT
ATOM      1  C   UNL     1       2.287   4.145  18.089  0.00  0.00    +0.000 A 
ATOM      2  C   UNL     1       1.858   5.485  18.093  0.00  0.00    +0.000 A 
ATOM      3  C   UNL     1       2.742   6.531  18.366  0.00  0.00    +0.000 A 
ATOM      4  C   UNL     1       4.061   6.240  18.707  0.00  0.00    +0.000 A 
ATOM      5  C   UNL     1       4.474   4.909  18.777  0.00  0.00    +0.000 A 
ATOM      6  C   UNL     1       3.600   3.836  18.486  0.00  0.00    +0.000 A 
ENDROOT
BRANCH   3   7
ATOM      7  C   UNL     1       2.305   7.911  18.140  0.00  0.00    +0.000 C 
ATOM      8  C   UNL     1       1.751   8.669  19.087  0.00  0.00    +0.000 C 
ATOM      9  C   UNL     1       1.442   8.257  20.491  0.00  0.00    +0.000 C 
ATOM     10  O   UNL     1       1.437   7.134  20.955  0.00  0.00    +0.000 OA
ATOM     11  O   UNL     1       1.101   9.377  21.184  0.00  0.00    +0.000 OA
ATOM     12  C   UNL     1       1.361  10.539  20.396  0.00  0.00    +0.000 C 
ATOM     13  C   UNL     1       1.321  10.097  18.946  0.00  0.00    +0.000 C 
BRANCH  13  14
ATOM     14  C   UNL     1      -0.085  10.175  18.353  0.00  0.00    +0.000 C 
BRANCH  14  15
ATOM     15  C   UNL     1      -0.889  11.408  18.702  0.00  0.00    +0.000 A 
ATOM     16  C   UNL     1      -2.037  11.332  19.527  0.00  0.00    +0.000 A 
ATOM     17  C   UNL     1      -2.570  12.482  20.120  0.00  0.00    +0.000 A 
ATOM     18  C   UNL     1      -1.901  13.664  19.904  0.00  0.00    +0.000 A 
ATOM     19  C   UNL     1      -0.847  13.755  19.022  0.00  0.00    +0.000 A 
ATOM     20  C   UNL     1      -0.351  12.659  18.364  0.00  0.00    +0.000 A 
ATOM     21  O   UNL     1      -0.265  14.987  19.042  0.00  0.00    +0.000 OA
ATOM     22  C   UNL     1      -0.804  15.453  20.294  0.00  0.00    +0.000 C 
ATOM     23  O   UNL     1      -2.066  14.824  20.604  0.00  0.00    +0.000 OA
ENDBRANCH  14  15
ENDBRANCH  13  14
ENDBRANCH   3   7
BRANCH   1  25
ATOM     24  C   UNL     1       0.697   2.531  18.742  0.00  0.00    +0.000 C 
ATOM     25  O   UNL     1       1.425   3.156  17.677  0.00  0.00    +0.000 OA
ENDBRANCH   1  25
BRANCH   6  26
ATOM     26  O   UNL     1       4.189   2.607  18.613  0.00  0.00    +0.000 OA
ATOM     27  C   UNL     1       4.218   1.939  19.861  0.00  0.00    +0.000 C 
ENDBRANCH   6  26
BRANCH   5  28
ATOM     28  O   UNL     1       5.850   4.576  18.955  0.00  0.00    +0.000 OA
BRANCH  28  29
ATOM     29  C   UNL     1       6.913   5.286  18.395  0.00  0.00    +0.000 C 
ATOM     30  O   UNL     1       7.539   6.194  18.929  0.00  0.00    +0.000 OA
BRANCH  29  31
ATOM     31  C   UNL     1       7.209   4.767  16.993  0.00  0.00    +0.000 C 
BRANCH  31  32
ATOM     32  N   UNL     1       5.996   4.670  16.151  0.00  0.00    +0.000 NA
ATOM     33  C   UNL     1       5.690   5.939  15.486  0.00  0.00    +0.000 C 
ATOM     34  C   UNL     1       6.157   3.614  15.150  0.00  0.00    +0.000 C 
ENDBRANCH  31  32
ENDBRANCH  29  31
ENDBRANCH  28  29
ENDBRANCH   5  28
TORSDOF 9
ENDMDL
MODEL 2
REMARK VINA RESULT:      -7.5      3.257      9.872
REMARK  Name = 
REMARK  13 active torsions:
REMARK  status: ('A' for Active; 'I' for Inactive)
REMARK    1  A    between atoms: C_1  and  O_2
REMARK    2  A    between atoms: O_2  and  C_3
REMARK    3  A    between atoms: C_5  and  C_6
REMARK    4  A    between atoms: C_12  and  C_13
REMARK    5  A    between atoms: C_13  and  C_14
REMARK    6  A    between atoms: C_24  and  O_25
REMARK    7  A    between atoms: O_25  and  C_26
REMARK    8  A    between atoms: C_26  and  C_28
REMARK    9  A    between atoms: C_28  and  N_29
REMARK   10  A    between atoms: N_29  and  C_30
REMARK   11  A    between atoms: N_29  and  C_31
REMARK   12  A    between atoms: C_32  and  O_33
REMARK   13  A    between atoms: O_33  and  C_34
REMARK                            x       y       z     vdW  Elec       q    Type
REMARK                         _______ _______ _______ _____ _____    ______ ____
ROOT
ATOM      1  C   UNL     1       1.286  12.038  19.109  0.00  0.00    +0.000 A 
ATOM      2  C   UNL     1       1.930  10.800  18.936  0.00  0.00    +0.000 A 
ATOM      3  C   UNL     1       1.209   9.636  18.663  0.00  0.00    +0.000 A 
ATOM      4  C   UNL     1      -0.182   9.687  18.626  0.00  0.00    +0.000 A 
ATOM      5  C   UNL     1      -0.832  10.899  18.869  0.00  0.00    +0.000 A 
ATOM      6  C   UNL     1      -0.120  12.092  19.129  0.00  0.00    +0.000 A 
ENDROOT
BRANCH   3   7
ATOM      7  C   UNL     1       1.933   8.423  18.273  0.00  0.00    +0.000 C 
ATOM      8  C   UNL     1       2.057   7.357  19.064  0.00  0.00    +0.000 C 
ATOM      9  C   UNL     1       1.540   7.218  20.460  0.00  0.00    +0.000 C 
ATOM     10  O   UNL     1       1.115   8.093  21.189  0.00  0.00    +0.000 OA
ATOM     11  O   UNL     1       1.675   5.913  20.822  0.00  0.00    +0.000 OA
ATOM     12  C   UNL     1       2.054   5.128  19.691  0.00  0.00    +0.000 C 
ATOM     13  C   UNL     1       2.741   6.070  18.721  0.00  0.00    +0.000 C 
BRANCH  13  14
ATOM     14  C   UNL     1       4.243   6.177  18.980  0.00  0.00    +0.000 C 
BRANCH  14  15
ATOM     15  C   UNL     1       5.128   6.244  17.755  0.00  0.00    +0.000 A 
ATOM     16  C   UNL     1       6.493   6.610  17.849  0.00  0.00    +0.000 A 
ATOM     17  C   UNL     1       7.379   6.347  16.799  0.00  0.00    +0.000 A 
ATOM     18  C   UNL     1       6.874   5.678  15.707  0.00  0.00    +0.000 A 
ATOM     19  C   UNL     1       5.529   5.413  15.573  0.00  0.00    +0.000 A 
ATOM     20  C   UNL     1       4.622   5.731  16.551  0.00  0.00    +0.000 A 
ATOM     21  O   UNL     1       5.263   4.651  14.474  0.00  0.00    +0.000 OA
ATOM     22  C   UNL     1       6.596   4.161  14.231  0.00  0.00    +0.000 C 
ATOM     23  O   UNL     1       7.602   5.072  14.725  0.00  0.00    +0.000 OA
ENDBRANCH  14  15
ENDBRANCH  13  14
ENDBRANCH   3   7
BRANCH   1  25
ATOM     24  C   UNL     1       2.736  13.561  18.041  0.00  0.00    +0.000 C 
ATOM     25  O   UNL     1       2.035  13.184  19.234  0.00  0.00    +0.000 OA
ENDBRANCH   1  25
BRANCH   6  26
ATOM     26  O   UNL     1      -0.932  13.173  19.345  0.00  0.00    +0.000 OA
ATOM     27  C   UNL     1      -1.120  13.693  20.648  0.00  0.00    +0.000 C 
ENDBRANCH   6  26
BRANCH   5  28
ATOM     28  O   UNL     1      -2.239  11.029  18.673  0.00  0.00    +0.000 OA
BRANCH  28  29
ATOM     29  C   UNL     1      -2.860  11.088  17.425  0.00  0.00    +0.000 C 
ATOM     30  O   UNL     1      -2.304  11.252  16.345  0.00  0.00    +0.000 OA
BRANCH  29  31
ATOM     31  C   UNL     1      -4.366  10.907  17.580  0.00  0.00    +0.000 C 
BRANCH  31  32
ATOM     32  N   UNL     1      -5.034  12.116  18.112  0.00  0.00    +0.000 NA
ATOM     33  C   UNL     1      -6.075  12.609  17.208  0.00  0.00    +0.000 C 
ATOM     34  C   UNL     1      -5.613  11.837  19.428  0.00  0.00    +0.000 C 
ENDBRANCH  31  32
ENDBRANCH  29  31
ENDBRANCH  28  29
ENDBRANCH   5  28
TORSDOF 9
ENDMDL
MODEL 3
REMARK VINA RESULT:      -7.4      3.154      9.390
REMARK  Name = 
REMARK  13 active torsions:
REMARK  status: ('A' for Active; 'I' for Inactive)
REMARK    1  A    between atoms: C_1  and  O_2
REMARK    2  A    between atoms: O_2  and  C_3
REMARK    3  A    between atoms: C_5  and  C_6
REMARK    4  A    between atoms: C_12  and  C_13
REMARK    5  A    between atoms: C_13  and  C_14
REMARK    6  A    between atoms: C_24  and  O_25
REMARK    7  A    between atoms: O_25  and  C_26
REMARK    8  A    between atoms: C_26  and  C_28
REMARK    9  A    between atoms: C_28  and  N_29
REMARK   10  A    between atoms: N_29  and  C_30
REMARK   11  A    between atoms: N_29  and  C_31
REMARK   12  A    between atoms: C_32  and  O_33
REMARK   13  A    between atoms: O_33  and  C_34
REMARK                            x       y       z     vdW  Elec       q    Type
REMARK                         _______ _______ _______ _____ _____    ______ ____
ROOT
ATOM      1  C   UNL     1      -0.760  10.969  18.495  0.00  0.00    +0.000 A 
ATOM      2  C   UNL     1      -0.072   9.854  17.986  0.00  0.00    +0.000 A 
ATOM      3  C   UNL     1       1.322   9.780  18.022  0.00  0.00    +0.000 A 
ATOM      4  C   UNL     1       2.051  10.860  18.511  0.00  0.00    +0.000 A 
ATOM      5  C   UNL     1       1.377  12.001  18.951  0.00  0.00    +0.000 A 
ATOM      6  C   UNL     1      -0.034  12.088  18.940  0.00  0.00    +0.000 A 
ENDROOT
BRANCH   3   7
ATOM      7  C   UNL     1       1.978   8.513  17.687  0.00  0.00    +0.000 C 
ATOM      8  C   UNL     1       2.190   7.540  18.573  0.00  0.00    +0.000 C 
ATOM      9  C   UNL     1       1.852   7.572  20.030  0.00  0.00    +0.000 C 
ATOM     10  O   UNL     1       1.532   8.534  20.700  0.00  0.00    +0.000 OA
ATOM     11  O   UNL     1       2.018   6.313  20.520  0.00  0.00    +0.000 OA
ATOM     12  C   UNL     1       2.242   5.397  19.448  0.00  0.00    +0.000 C 
ATOM     13  C   UNL     1       2.811   6.205  18.298  0.00  0.00    +0.000 C 
BRANCH  13  14
ATOM     14  C   UNL     1       4.334   6.303  18.354  0.00  0.00    +0.000 C 
BRANCH  14  15
ATOM     15  C   UNL     1       5.096   5.376  17.433  0.00  0.00    +0.000 A 
ATOM     16  C   UNL     1       4.542   4.149  16.995  0.00  0.00    +0.000 A 
ATOM     17  C   UNL     1       5.083   3.468  15.899  0.00  0.00    +0.000 A 
ATOM     18  C   UNL     1       6.135   4.070  15.247  0.00  0.00    +0.000 A 
ATOM     19  C   UNL     1       6.738   5.209  15.733  0.00  0.00    +0.000 A 
ATOM     20  C   UNL     1       6.280   5.856  16.852  0.00  0.00    +0.000 A 
ATOM     21  O   UNL     1       7.684   5.692  14.879  0.00  0.00    +0.000 OA
ATOM     22  C   UNL     1       7.281   4.980  13.694  0.00  0.00    +0.000 C 
ATOM     23  O   UNL     1       6.612   3.740  14.013  0.00  0.00    +0.000 OA
ENDBRANCH  14  15
ENDBRANCH  13  14
ENDBRANCH   3   7
BRANCH   1  25
ATOM     24  C   UNL     1      -2.759  10.067  17.627  0.00  0.00    +0.000 C 
ATOM     25  O   UNL     1      -2.133  10.945  18.573  0.00  0.00    +0.000 OA
ENDBRANCH   1  25
BRANCH   6  26
ATOM     26  O   UNL     1      -0.507  13.286  19.406  0.00  0.00    +0.000 OA
ATOM     27  C   UNL     1      -1.104  13.383  20.686  0.00  0.00    +0.000 C 
ENDBRANCH   6  26
BRANCH   5  28
ATOM     28  O   UNL     1       2.073  13.055  19.614  0.00  0.00    +0.000 OA
BRANCH  28  29
ATOM     29  C   UNL     1       2.658  14.144  18.966  0.00  0.00    +0.000 C 
ATOM     30  O   UNL     1       2.791  14.283  17.756  0.00  0.00    +0.000 OA
BRANCH  29  31
ATOM     31  C   UNL     1       3.117  15.177  19.990  0.00  0.00    +0.000 C 
BRANCH  31  32
ATOM     32  N   UNL     1       4.098  14.630  20.953  0.00  0.00    +0.000 NA
ATOM     33  C   UNL     1       5.465  15.052  20.640  0.00  0.00    +0.000 C 
ATOM     34  C   UNL     1       3.754  15.039  22.315  0.00  0.00    +0.000 C 
ENDBRANCH  31  32
ENDBRANCH  29  31
ENDBRANCH  28  29
ENDBRANCH   5  28
TORSDOF 9
ENDMDL
MODEL 4
REMARK VINA RESULT:      -7.4      3.317     10.177
REMARK  Name = 
REMARK  13 active torsions:
REMARK  status: ('A' for Active; 'I' for Inactive)
REMARK    1  A    between atoms: C_1  and  O_2
REMARK    2  A    between atoms: O_2  and  C_3
REMARK    3  A    between atoms: C_5  and  C_6
REMARK    4  A    between atoms: C_12  and  C_13
REMARK    5  A    between atoms: C_13  and  C_14
REMARK    6  A    between atoms: C_24  and  O_25
REMARK    7  A    between atoms: O_25  and  C_26
REMARK    8  A    between atoms: C_26  and  C_28
REMARK    9  A    between atoms: C_28  and  N_29
REMARK   10  A    between atoms: N_29  and  C_30
REMARK   11  A    between atoms: N_29  and  C_31
REMARK   12  A    between atoms: C_32  and  O_33
REMARK   13  A    between atoms: O_33  and  C_34
REMARK                            x       y       z     vdW  Elec       q    Type
REMARK                         _______ _______ _______ _____ _____    ______ ____
ROOT
ATOM      1  C   UNL     1       1.120  12.373  18.983  0.00  0.00    +0.000 A 
ATOM      2  C   UNL     1       1.692  11.108  18.755  0.00  0.00    +0.000 A 
ATOM      3  C   UNL     1       0.941  10.053  18.234  0.00  0.00    +0.000 A 
ATOM      4  C   UNL     1      -0.418  10.234  17.995  0.00  0.00    +0.000 A 
ATOM      5  C   UNL     1      -1.009  11.465  18.288  0.00  0.00    +0.000 A 
ATOM      6  C   UNL     1      -0.262  12.552  18.799  0.00  0.00    +0.000 A 
ENDROOT
BRANCH   3   7
ATOM      7  C   UNL     1       1.629   8.831  17.808  0.00  0.00    +0.000 C 
ATOM      8  C   UNL     1       1.952   7.843  18.643  0.00  0.00    +0.000 C 
ATOM      9  C   UNL     1       1.724   7.814  20.120  0.00  0.00    +0.000 C 
ATOM     10  O   UNL     1       1.411   8.738  20.845  0.00  0.00    +0.000 OA
ATOM     11  O   UNL     1       1.986   6.550  20.553  0.00  0.00    +0.000 OA
ATOM     12  C   UNL     1       2.171   5.679  19.438  0.00  0.00    +0.000 C 
ATOM     13  C   UNL     1       2.613   6.549  18.277  0.00  0.00    +0.000 C 
BRANCH  13  14
ATOM     14  C   UNL     1       4.130   6.720  18.223  0.00  0.00    +0.000 C 
BRANCH  14  15
ATOM     15  C   UNL     1       4.890   5.689  17.419  0.00  0.00    +0.000 A 
ATOM     16  C   UNL     1       4.295   4.459  17.046  0.00  0.00    +0.000 A 
ATOM     17  C   UNL     1       4.857   3.669  16.037  0.00  0.00    +0.000 A 
ATOM     18  C   UNL     1       5.971   4.166  15.401  0.00  0.00    +0.000 A 
ATOM     19  C   UNL     1       6.607   5.309  15.832  0.00  0.00    +0.000 A 
ATOM     20  C   UNL     1       6.125   6.064  16.871  0.00  0.00    +0.000 A 
ATOM     21  O   UNL     1       7.620   5.678  14.998  0.00  0.00    +0.000 OA
ATOM     22  C   UNL     1       7.243   4.895  13.850  0.00  0.00    +0.000 C 
ATOM     23  O   UNL     1       6.495   3.717  14.224  0.00  0.00    +0.000 OA
ENDBRANCH  14  15
ENDBRANCH  13  14
ENDBRANCH   3   7
BRANCH   1  25
ATOM     24  C   UNL     1       2.561  14.098  18.269  0.00  0.00    +0.000 C 
ATOM     25  O   UNL     1       1.921  13.424  19.361  0.00  0.00    +0.000 OA
ENDBRANCH   1  25
BRANCH   6  26
ATOM     26  O   UNL     1      -1.018  13.671  19.024  0.00  0.00    +0.000 OA
ATOM     27  C   UNL     1      -1.431  14.018  20.333  0.00  0.00    +0.000 C 
ENDBRANCH   6  26
BRANCH   5  28
ATOM     28  O   UNL     1      -2.353  11.744  17.901  0.00  0.00    +0.000 OA
BRANCH  28  29
ATOM     29  C   UNL     1      -3.433  10.888  18.123  0.00  0.00    +0.000 C 
ATOM     30  O   UNL     1      -3.571   9.761  17.663  0.00  0.00    +0.000 OA
BRANCH  29  31
ATOM     31  C   UNL     1      -4.447  11.553  19.047  0.00  0.00    +0.000 C 
BRANCH  31  32
ATOM     32  N   UNL     1      -5.160  12.676  18.399  0.00  0.00    +0.000 NA
ATOM     33  C   UNL     1      -6.070  12.214  17.349  0.00  0.00    +0.000 C 
ATOM     34  C   UNL     1      -5.906  13.445  19.397  0.00  0.00    +0.000 C 
ENDBRANCH  31  32
ENDBRANCH  29  31
ENDBRANCH  28  29
ENDBRANCH   5  28
TORSDOF 9
ENDMDL
MODEL 5
REMARK VINA RESULT:      -7.4      2.023      2.583
REMARK  Name = 
REMARK  13 active torsions:
REMARK  status: ('A' for Active; 'I' for Inactive)
REMARK    1  A    between atoms: C_1  and  O_2
REMARK    2  A    between atoms: O_2  and  C_3
REMARK    3  A    between atoms: C_5  and  C_6
REMARK    4  A    between atoms: C_12  and  C_13
REMARK    5  A    between atoms: C_13  and  C_14
REMARK    6  A    between atoms: C_24  and  O_25
REMARK    7  A    between atoms: O_25  and  C_26
REMARK    8  A    between atoms: C_26  and  C_28
REMARK    9  A    between atoms: C_28  and  N_29
REMARK   10  A    between atoms: N_29  and  C_30
REMARK   11  A    between atoms: N_29  and  C_31
REMARK   12  A    between atoms: C_32  and  O_33
REMARK   13  A    between atoms: O_33  and  C_34
REMARK                            x       y       z     vdW  Elec       q    Type
REMARK                         _______ _______ _______ _____ _____    ______ ____
ROOT
ATOM      1  C   UNL     1       2.205   4.332  17.866  0.00  0.00    +0.000 A 
ATOM      2  C   UNL     1       1.591   5.553  18.198  0.00  0.00    +0.000 A 
ATOM      3  C   UNL     1       2.332   6.729  18.327  0.00  0.00    +0.000 A 
ATOM      4  C   UNL     1       3.717   6.683  18.191  0.00  0.00    +0.000 A 
ATOM      5  C   UNL     1       4.341   5.461  17.935  0.00  0.00    +0.000 A 
ATOM      6  C   UNL     1       3.607   4.262  17.781  0.00  0.00    +0.000 A 
ENDROOT
BRANCH   3   7
ATOM      7  C   UNL     1       1.625   8.007  18.453  0.00  0.00    +0.000 C 
ATOM      8  C   UNL     1       1.351   8.582  19.624  0.00  0.00    +0.000 C 
ATOM      9  C   UNL     1       1.661   8.033  20.980  0.00  0.00    +0.000 C 
ATOM     10  O   UNL     1       2.012   6.905  21.266  0.00  0.00    +0.000 OA
ATOM     11  O   UNL     1       1.428   9.020  21.888  0.00  0.00    +0.000 OA
ATOM     12  C   UNL     1       1.184  10.256  21.215  0.00  0.00    +0.000 C 
ATOM     13  C   UNL     1       0.675   9.902  19.831  0.00  0.00    +0.000 C 
BRANCH  13  14
ATOM     14  C   UNL     1      -0.843   9.736  19.794  0.00  0.00    +0.000 C 
BRANCH  14  15
ATOM     15  C   UNL     1      -1.556  10.380  18.625  0.00  0.00    +0.000 A 
ATOM     16  C   UNL     1      -1.424   9.873  17.310  0.00  0.00    +0.000 A 
ATOM     17  C   UNL     1      -2.327  10.240  16.306  0.00  0.00    +0.000 A 
ATOM     18  C   UNL     1      -3.365  11.067  16.671  0.00  0.00    +0.000 A 
ATOM     19  C   UNL     1      -3.435  11.639  17.922  0.00  0.00    +0.000 A 
ATOM     20  C   UNL     1      -2.519  11.361  18.904  0.00  0.00    +0.000 A 
ATOM     21  O   UNL     1      -4.595  12.333  18.104  0.00  0.00    +0.000 OA
ATOM     22  C   UNL     1      -5.352  11.765  17.018  0.00  0.00    +0.000 C 
ATOM     23  O   UNL     1      -4.496  11.307  15.948  0.00  0.00    +0.000 OA
ENDBRANCH  14  15
ENDBRANCH  13  14
ENDBRANCH   3   7
BRANCH   1  25
ATOM     24  C   UNL     1       0.809   2.661  18.770  0.00  0.00    +0.000 C 
ATOM     25  O   UNL     1       1.429   3.227  17.608  0.00  0.00    +0.000 OA
ENDBRANCH   1  25
BRANCH   6  26
ATOM     26  O   UNL     1       4.397   3.171  17.538  0.00  0.00    +0.000 OA
ATOM     27  C   UNL     1       4.400   2.064  18.420  0.00  0.00    +0.000 C 
ENDBRANCH   6  26
BRANCH   5  28
ATOM     28  O   UNL     1       5.731   5.399  17.621  0.00  0.00    +0.000 OA
BRANCH  28  29
ATOM     29  C   UNL     1       6.347   6.142  16.613  0.00  0.00    +0.000 C 
ATOM     30  O   UNL     1       7.207   7.002  16.768  0.00  0.00    +0.000 OA
BRANCH  29  31
ATOM     31  C   UNL     1       5.802   5.729  15.250  0.00  0.00    +0.000 C 
BRANCH  31  32
ATOM     32  N   UNL     1       6.560   4.610  14.648  0.00  0.00    +0.000 NA
ATOM     33  C   UNL     1       5.678   3.646  13.986  0.00  0.00    +0.000 C 
ATOM     34  C   UNL     1       7.541   5.122  13.689  0.00  0.00    +0.000 C 
ENDBRANCH  31  32
ENDBRANCH  29  31
ENDBRANCH  28  29
ENDBRANCH   5  28
TORSDOF 9
ENDMDL
MODEL 6
REMARK VINA RESULT:      -7.3      2.978      9.271
REMARK  Name = 
REMARK  13 active torsions:
REMARK  status: ('A' for Active; 'I' for Inactive)
REMARK    1  A    between atoms: C_1  and  O_2
REMARK    2  A    between atoms: O_2  and  C_3
REMARK    3  A    between atoms: C_5  and  C_6
REMARK    4  A    between atoms: C_12  and  C_13
REMARK    5  A    between atoms: C_13  and  C_14
REMARK    6  A    between atoms: C_24  and  O_25
REMARK    7  A    between atoms: O_25  and  C_26
REMARK    8  A    between atoms: C_26  and  C_28
REMARK    9  A    between atoms: C_28  and  N_29
REMARK   10  A    between atoms: N_29  and  C_30
REMARK   11  A    between atoms: N_29  and  C_31
REMARK   12  A    between atoms: C_32  and  O_33
REMARK   13  A    between atoms: O_33  and  C_34
REMARK                            x       y       z     vdW  Elec       q    Type
REMARK                         _______ _______ _______ _____ _____    ______ ____
ROOT
ATOM      1  C   UNL     1      -0.788  10.194  17.971  0.00  0.00    +0.000 A 
ATOM      2  C   UNL     1       0.078   9.110  17.736  0.00  0.00    +0.000 A 
ATOM      3  C   UNL     1       1.445   9.199  18.006  0.00  0.00    +0.000 A 
ATOM      4  C   UNL     1       1.976  10.406  18.454  0.00  0.00    +0.000 A 
ATOM      5  C   UNL     1       1.135  11.507  18.619  0.00  0.00    +0.000 A 
ATOM      6  C   UNL     1      -0.255  11.433  18.369  0.00  0.00    +0.000 A 
ENDROOT
BRANCH   3   7
ATOM      7  C   UNL     1       2.262   7.983  17.957  0.00  0.00    +0.000 C 
ATOM      8  C   UNL     1       2.324   7.101  18.955  0.00  0.00    +0.000 C 
ATOM      9  C   UNL     1       1.635   7.203  20.278  0.00  0.00    +0.000 C 
ATOM     10  O   UNL     1       1.083   8.172  20.760  0.00  0.00    +0.000 OA
ATOM     11  O   UNL     1       1.774   6.004  20.908  0.00  0.00    +0.000 OA
ATOM     12  C   UNL     1       2.328   5.041  20.012  0.00  0.00    +0.000 C 
ATOM     13  C   UNL     1       3.098   5.819  18.962  0.00  0.00    +0.000 C 
BRANCH  13  14
ATOM     14  C   UNL     1       4.548   6.073  19.373  0.00  0.00    +0.000 C 
BRANCH  14  15
ATOM     15  C   UNL     1       5.591   5.873  18.296  0.00  0.00    +0.000 A 
ATOM     16  C   UNL     1       6.754   5.100  18.529  0.00  0.00    +0.000 A 
ATOM     17  C   UNL     1       7.532   4.637  17.462  0.00  0.00    +0.000 A 
ATOM     18  C   UNL     1       7.086   4.925  16.192  0.00  0.00    +0.000 A 
ATOM     19  C   UNL     1       6.015   5.760  15.968  0.00  0.00    +0.000 A 
ATOM     20  C   UNL     1       5.279   6.294  16.995  0.00  0.00    +0.000 A 
ATOM     21  O   UNL     1       5.680   5.821  14.648  0.00  0.00    +0.000 OA
ATOM     22  C   UNL     1       6.375   4.643  14.200  0.00  0.00    +0.000 C 
ATOM     23  O   UNL     1       7.513   4.339  15.036  0.00  0.00    +0.000 OA
ENDBRANCH  14  15
ENDBRANCH  13  14
ENDBRANCH   3   7
BRANCH   1  25
ATOM     24  C   UNL     1      -2.583   9.906  16.469  0.00  0.00    +0.000 C 
ATOM     25  O   UNL     1      -2.145  10.024  17.829  0.00  0.00    +0.000 OA
ENDBRANCH   1  25
BRANCH   6  26
ATOM     26  O   UNL     1      -0.910  12.616  18.585  0.00  0.00    +0.000 OA
ATOM     27  C   UNL     1      -1.807  12.764  19.670  0.00  0.00    +0.000 C 
ENDBRANCH   6  26
BRANCH   5  28
ATOM     28  O   UNL     1       1.605  12.705  19.234  0.00  0.00    +0.000 OA
BRANCH  28  29
ATOM     29  C   UNL     1       1.519  12.977  20.600  0.00  0.00    +0.000 C 
ATOM     30  O   UNL     1       1.429  12.150  21.500  0.00  0.00    +0.000 OA
BRANCH  29  31
ATOM     31  C   UNL     1       1.560  14.483  20.838  0.00  0.00    +0.000 C 
BRANCH  31  32
ATOM     32  N   UNL     1       1.454  15.262  19.584  0.00  0.00    +0.000 NA
ATOM     33  C   UNL     1       0.189  15.996  19.501  0.00  0.00    +0.000 C 
ATOM     34  C   UNL     1       2.576  16.195  19.471  0.00  0.00    +0.000 C 
ENDBRANCH  31  32
ENDBRANCH  29  31
ENDBRANCH  28  29
ENDBRANCH   5  28
TORSDOF 9
ENDMDL
MODEL 7
REMARK VINA RESULT:      -7.3      3.219     10.191
REMARK  Name = 
REMARK  13 active torsions:
REMARK  status: ('A' for Active; 'I' for Inactive)
REMARK    1  A    between atoms: C_1  and  O_2
REMARK    2  A    between atoms: O_2  and  C_3
REMARK    3  A    between atoms: C_5  and  C_6
REMARK    4  A    between atoms: C_12  and  C_13
REMARK    5  A    between atoms: C_13  and  C_14
REMARK    6  A    between atoms: C_24  and  O_25
REMARK    7  A    between atoms: O_25  and  C_26
REMARK    8  A    between atoms: C_26  and  C_28
REMARK    9  A    between atoms: C_28  and  N_29
REMARK   10  A    between atoms: N_29  and  C_30
REMARK   11  A    between atoms: N_29  and  C_31
REMARK   12  A    between atoms: C_32  and  O_33
REMARK   13  A    between atoms: O_33  and  C_34
REMARK                            x       y       z     vdW  Elec       q    Type
REMARK                         _______ _______ _______ _____ _____    ______ ____
ROOT
ATOM      1  C   UNL     1       1.580  12.482  19.235  0.00  0.00    +0.000 A 
ATOM      2  C   UNL     1       2.079  11.198  18.950  0.00  0.00    +0.000 A 
ATOM      3  C   UNL     1       1.263  10.204  18.406  0.00  0.00    +0.000 A 
ATOM      4  C   UNL     1      -0.090  10.465  18.203  0.00  0.00    +0.000 A 
ATOM      5  C   UNL     1      -0.608  11.714  18.554  0.00  0.00    +0.000 A 
ATOM      6  C   UNL     1       0.205  12.740  19.088  0.00  0.00    +0.000 A 
ENDROOT
BRANCH   3   7
ATOM      7  C   UNL     1       1.875   8.964  17.921  0.00  0.00    +0.000 C 
ATOM      8  C   UNL     1       2.083   7.898  18.694  0.00  0.00    +0.000 C 
ATOM      9  C   UNL     1       1.783   7.784  20.155  0.00  0.00    +0.000 C 
ATOM     10  O   UNL     1       1.506   8.677  20.931  0.00  0.00    +0.000 OA
ATOM     11  O   UNL     1       1.927   6.477  20.504  0.00  0.00    +0.000 OA
ATOM     12  C   UNL     1       2.099   5.674  19.337  0.00  0.00    +0.000 C 
ATOM     13  C   UNL     1       2.660   6.585  18.263  0.00  0.00    +0.000 C 
BRANCH  13  14
ATOM     14  C   UNL     1       4.187   6.640  18.286  0.00  0.00    +0.000 C 
BRANCH  14  15
ATOM     15  C   UNL     1       4.904   5.609  17.442  0.00  0.00    +0.000 A 
ATOM     16  C   UNL     1       4.264   4.415  17.032  0.00  0.00    +0.000 A 
ATOM     17  C   UNL     1       4.790   3.639  15.994  0.00  0.00    +0.000 A 
ATOM     18  C   UNL     1       5.917   4.118  15.366  0.00  0.00    +0.000 A 
ATOM     19  C   UNL     1       6.596   5.223  15.830  0.00  0.00    +0.000 A 
ATOM     20  C   UNL     1       6.149   5.958  16.897  0.00  0.00    +0.000 A 
ATOM     21  O   UNL     1       7.617   5.583  15.001  0.00  0.00    +0.000 OA
ATOM     22  C   UNL     1       7.204   4.853  13.830  0.00  0.00    +0.000 C 
ATOM     23  O   UNL     1       6.417   3.691  14.171  0.00  0.00    +0.000 OA
ENDBRANCH  14  15
ENDBRANCH  13  14
ENDBRANCH   3   7
BRANCH   1  25
ATOM     24  C   UNL     1       3.256  14.005  18.579  0.00  0.00    +0.000 C 
ATOM     25  O   UNL     1       2.443  13.474  19.635  0.00  0.00    +0.000 OA
ENDBRANCH   1  25
BRANCH   6  26
ATOM     26  O   UNL     1      -0.485  13.888  19.370  0.00  0.00    +0.000 OA
ATOM     27  C   UNL     1      -0.215  15.089  18.671  0.00  0.00    +0.000 C 
ENDBRANCH   6  26
BRANCH   5  28
ATOM     28  O   UNL     1      -1.943  12.078  18.206  0.00  0.00    +0.000 OA
BRANCH  28  29
ATOM     29  C   UNL     1      -3.046  11.928  19.047  0.00  0.00    +0.000 C 
ATOM     30  O   UNL     1      -3.070  12.132  20.256  0.00  0.00    +0.000 OA
BRANCH  29  31
ATOM     31  C   UNL     1      -4.259  11.473  18.244  0.00  0.00    +0.000 C 
BRANCH  31  32
ATOM     32  N   UNL     1      -5.531  11.650  18.980  0.00  0.00    +0.000 NA
ATOM     33  C   UNL     1      -6.142  12.954  18.711  0.00  0.00    +0.000 C 
ATOM     34  C   UNL     1      -6.470  10.583  18.631  0.00  0.00    +0.000 C 
ENDBRANCH  31  32
ENDBRANCH  29  31
ENDBRANCH  28  29
ENDBRANCH   5  28
TORSDOF 9
ENDMDL
MODEL 8
REMARK VINA RESULT:      -7.3      2.085      2.588
REMARK  Name = 
REMARK  13 active torsions:
REMARK  status: ('A' for Active; 'I' for Inactive)
REMARK    1  A    between atoms: C_1  and  O_2
REMARK    2  A    between atoms: O_2  and  C_3
REMARK    3  A    between atoms: C_5  and  C_6
REMARK    4  A    between atoms: C_12  and  C_13
REMARK    5  A    between atoms: C_13  and  C_14
REMARK    6  A    between atoms: C_24  and  O_25
REMARK    7  A    between atoms: O_25  and  C_26
REMARK    8  A    between atoms: C_26  and  C_28
REMARK    9  A    between atoms: C_28  and  N_29
REMARK   10  A    between atoms: N_29  and  C_30
REMARK   11  A    between atoms: N_29  and  C_31
REMARK   12  A    between atoms: C_32  and  O_33
REMARK   13  A    between atoms: O_33  and  C_34
REMARK                            x       y       z     vdW  Elec       q    Type
REMARK                         _______ _______ _______ _____ _____    ______ ____
ROOT
ATOM      1  C   UNL     1       3.017   4.561  19.440  0.00  0.00    +0.000 A 
ATOM      2  C   UNL     1       2.259   5.665  19.010  0.00  0.00    +0.000 A 
ATOM      3  C   UNL     1       2.858   6.757  18.380  0.00  0.00    +0.000 A 
ATOM      4  C   UNL     1       4.242   6.787  18.232  0.00  0.00    +0.000 A 
ATOM      5  C   UNL     1       5.008   5.728  18.723  0.00  0.00    +0.000 A 
ATOM      6  C   UNL     1       4.419   4.604  19.347  0.00  0.00    +0.000 A 
ENDROOT
BRANCH   3   7
ATOM      7  C   UNL     1       2.008   7.774  17.754  0.00  0.00    +0.000 C 
ATOM      8  C   UNL     1       1.340   8.698  18.445  0.00  0.00    +0.000 C 
ATOM      9  C   UNL     1       1.297   8.840  19.933  0.00  0.00    +0.000 C 
ATOM     10  O   UNL     1       1.672   8.042  20.770  0.00  0.00    +0.000 OA
ATOM     11  O   UNL     1       0.699  10.029  20.217  0.00  0.00    +0.000 OA
ATOM     12  C   UNL     1       0.527  10.788  19.020  0.00  0.00    +0.000 C 
ATOM     13  C   UNL     1       0.490   9.792  17.877  0.00  0.00    +0.000 C 
BRANCH  13  14
ATOM     14  C   UNL     1      -0.923   9.281  17.596  0.00  0.00    +0.000 C 
BRANCH  14  15
ATOM     15  C   UNL     1      -1.967  10.334  17.298  0.00  0.00    +0.000 A 
ATOM     16  C   UNL     1      -2.498  10.500  15.996  0.00  0.00    +0.000 A 
ATOM     17  C   UNL     1      -3.680  11.219  15.791  0.00  0.00    +0.000 A 
ATOM     18  C   UNL     1      -4.318  11.705  16.909  0.00  0.00    +0.000 A 
ATOM     19  C   UNL     1      -3.751  11.632  18.162  0.00  0.00    +0.000 A 
ATOM     20  C   UNL     1      -2.553  11.003  18.384  0.00  0.00    +0.000 A 
ATOM     21  O   UNL     1      -4.596  12.075  19.135  0.00  0.00    +0.000 OA
ATOM     22  C   UNL     1      -5.826  12.016  18.387  0.00  0.00    +0.000 C 
ATOM     23  O   UNL     1      -5.601  12.166  16.969  0.00  0.00    +0.000 OA
ENDBRANCH  14  15
ENDBRANCH  13  14
ENDBRANCH   3   7
BRANCH   1  25
ATOM     24  C   UNL     1       1.417   2.879  19.024  0.00  0.00    +0.000 C 
ATOM     25  O   UNL     1       2.378   3.444  19.926  0.00  0.00    +0.000 OA
ENDBRANCH   1  25
BRANCH   6  26
ATOM     26  O   UNL     1       5.334   3.674  19.764  0.00  0.00    +0.000 OA
ATOM     27  C   UNL     1       5.008   2.297  19.794  0.00  0.00    +0.000 C 
ENDBRANCH   6  26
BRANCH   5  28
ATOM     28  O   UNL     1       6.404   5.640  18.443  0.00  0.00    +0.000 OA
BRANCH  28  29
ATOM     29  C   UNL     1       6.968   5.818  17.179  0.00  0.00    +0.000 C 
ATOM     30  O   UNL     1       7.468   6.849  16.746  0.00  0.00    +0.000 OA
BRANCH  29  31
ATOM     31  C   UNL     1       6.887   4.520  16.383  0.00  0.00    +0.000 C 
BRANCH  31  32
ATOM     32  N   UNL     1       5.789   4.525  15.391  0.00  0.00    +0.000 NA
ATOM     33  C   UNL     1       6.203   3.945  14.112  0.00  0.00    +0.000 C 
ATOM     34  C   UNL     1       4.632   3.796  15.913  0.00  0.00    +0.000 C 
ENDBRANCH  31  32
ENDBRANCH  29  31
ENDBRANCH  28  29
ENDBRANCH   5  28
TORSDOF 9
ENDMDL
MODEL 9
REMARK VINA RESULT:      -7.2      3.106      9.542
REMARK  Name = 
REMARK  13 active torsions:
REMARK  status: ('A' for Active; 'I' for Inactive)
REMARK    1  A    between atoms: C_1  and  O_2
REMARK    2  A    between atoms: O_2  and  C_3
REMARK    3  A    between atoms: C_5  and  C_6
REMARK    4  A    between atoms: C_12  and  C_13
REMARK    5  A    between atoms: C_13  and  C_14
REMARK    6  A    between atoms: C_24  and  O_25
REMARK    7  A    between atoms: O_25  and  C_26
REMARK    8  A    between atoms: C_26  and  C_28
REMARK    9  A    between atoms: C_28  and  N_29
REMARK   10  A    between atoms: N_29  and  C_30
REMARK   11  A    between atoms: N_29  and  C_31
REMARK   12  A    between atoms: C_32  and  O_33
REMARK   13  A    between atoms: O_33  and  C_34
REMARK                            x       y       z     vdW  Elec       q    Type
REMARK                         _______ _______ _______ _____ _____    ______ ____
ROOT
ATOM      1  C   UNL     1      -0.908  10.821  18.461  0.00  0.00    +0.000 A 
ATOM      2  C   UNL     1      -0.181   9.737  17.936  0.00  0.00    +0.000 A 
ATOM      3  C   UNL     1       1.211   9.684  18.024  0.00  0.00    +0.000 A 
ATOM      4  C   UNL     1       1.902  10.756  18.582  0.00  0.00    +0.000 A 
ATOM      5  C   UNL     1       1.192  11.868  19.039  0.00  0.00    +0.000 A 
ATOM      6  C   UNL     1      -0.219  11.934  18.976  0.00  0.00    +0.000 A 
ENDROOT
BRANCH   3   7
ATOM      7  C   UNL     1       1.902   8.442  17.666  0.00  0.00    +0.000 C 
ATOM      8  C   UNL     1       2.184   7.481  18.546  0.00  0.00    +0.000 C 
ATOM      9  C   UNL     1       1.902   7.506  20.015  0.00  0.00    +0.000 C 
ATOM     10  O   UNL     1       1.572   8.457  20.695  0.00  0.00    +0.000 OA
ATOM     11  O   UNL     1       2.135   6.256  20.500  0.00  0.00    +0.000 OA
ATOM     12  C   UNL     1       2.352   5.344  19.423  0.00  0.00    +0.000 C 
ATOM     13  C   UNL     1       2.845   6.170  18.250  0.00  0.00    +0.000 C 
BRANCH  13  14
ATOM     14  C   UNL     1       4.365   6.326  18.246  0.00  0.00    +0.000 C 
BRANCH  14  15
ATOM     15  C   UNL     1       5.129   5.391  17.335  0.00  0.00    +0.000 A 
ATOM     16  C   UNL     1       4.564   4.174  16.884  0.00  0.00    +0.000 A 
ATOM     17  C   UNL     1       5.114   3.489  15.795  0.00  0.00    +0.000 A 
ATOM     18  C   UNL     1       6.186   4.077  15.164  0.00  0.00    +0.000 A 
ATOM     19  C   UNL     1       6.797   5.205  15.663  0.00  0.00    +0.000 A 
ATOM     20  C   UNL     1       6.329   5.856  16.776  0.00  0.00    +0.000 A 
ATOM     21  O   UNL     1       7.765   5.678  14.827  0.00  0.00    +0.000 OA
ATOM     22  C   UNL     1       7.371   4.976  13.633  0.00  0.00    +0.000 C 
ATOM     23  O   UNL     1       6.680   3.744  13.936  0.00  0.00    +0.000 OA
ENDBRANCH  14  15
ENDBRANCH  13  14
ENDBRANCH   3   7
BRANCH   1  25
ATOM     24  C   UNL     1      -2.905  11.203  17.266  0.00  0.00    +0.000 C 
ATOM     25  O   UNL     1      -2.282  10.772  18.484  0.00  0.00    +0.000 OA
ENDBRANCH   1  25
BRANCH   6  26
ATOM     26  O   UNL     1      -0.730  13.104  19.469  0.00  0.00    +0.000 OA
ATOM     27  C   UNL     1      -1.437  13.129  20.696  0.00  0.00    +0.000 C 
ENDBRANCH   6  26
BRANCH   5  28
ATOM     28  O   UNL     1       1.844  12.907  19.768  0.00  0.00    +0.000 OA
BRANCH  28  29
ATOM     29  C   UNL     1       2.640  13.897  19.191  0.00  0.00    +0.000 C 
ATOM     30  O   UNL     1       2.955  13.978  18.010  0.00  0.00    +0.000 OA
BRANCH  29  31
ATOM     31  C   UNL     1       3.076  14.902  20.252  0.00  0.00    +0.000 C 
BRANCH  31  32
ATOM     32  N   UNL     1       2.049  15.935  20.515  0.00  0.00    +0.000 NA
ATOM     33  C   UNL     1       1.147  16.113  19.375  0.00  0.00    +0.000 C 
ATOM     34  C   UNL     1       1.275  15.586  21.708  0.00  0.00    +0.000 C 
ENDBRANCH  31  32
ENDBRANCH  29  31
ENDBRANCH  28  29
ENDBRANCH   5  28
TORSDOF 9
ENDMDL
