MODEL 1
REMARK VINA RESULT:      -9.8      0.000      0.000
REMARK  Name = 
REMARK  1 active torsions:
REMARK  status: ('A' for Active; 'I' for Inactive)
REMARK    1  A    between atoms: C_10  and  C_11
REMARK                            x       y       z     vdW  Elec       q    Type
REMARK                         _______ _______ _______ _____ _____    ______ ____
ROOT
ATOM      1  O   UNL     1       7.646   6.624  18.336  0.00  0.00    +0.000 OA
ATOM      2  C   UNL     1       7.265   5.773  17.526  0.00  0.00    +0.000 C 
ATOM      3  C   UNL     1       6.725   4.440  17.999  0.00  0.00    +0.000 C 
ATOM      4  C   UNL     1       5.366   4.181  17.465  0.00  0.00    +0.000 A 
ATOM      5  C   UNL     1       5.069   4.163  16.117  0.00  0.00    +0.000 A 
ATOM      6  N   UNL     1       3.715   3.945  16.008  0.00  0.00    +0.000 N 
ATOM      7  C   UNL     1       3.150   3.768  17.250  0.00  0.00    +0.000 A 
ATOM      8  C   UNL     1       1.822   3.514  17.613  0.00  0.00    +0.000 A 
ATOM      9  C   UNL     1       1.539   3.363  18.976  0.00  0.00    +0.000 A 
ATOM     10  C   UNL     1       2.542   3.466  19.950  0.00  0.00    +0.000 A 
ATOM     11  C   UNL     1       3.863   3.743  19.553  0.00  0.00    +0.000 A 
ATOM     12  C   UNL     1       4.172   3.896  18.187  0.00  0.00    +0.000 A 
ATOM     13  C   UNL     1       5.984   4.382  14.998  0.00  0.00    +0.000 A 
ATOM     14  C   UNL     1       5.776   3.711  13.784  0.00  0.00    +0.000 A 
ATOM     15  C   UNL     1       6.624   3.933  12.704  0.00  0.00    +0.000 A 
ATOM     16  C   UNL     1       7.645   4.850  12.858  0.00  0.00    +0.000 A 
ATOM     17  N   UNL     1       7.873   5.531  14.001  0.00  0.00    +0.000 NA
ATOM     18  C   UNL     1       7.080   5.262  15.066  0.00  0.00    +0.000 A 
ATOM     19  N   UNL     1       7.463   5.993  16.195  0.00  0.00    +0.000 N 
ATOM     20  H   UNL     1       3.196   3.932  15.141  0.00  0.00    +0.000 HD
ATOM     21  H   UNL     1       8.067   6.775  15.983  0.00  0.00    +0.000 HD
ENDROOT
BRANCH  10  22
ATOM     22  C   UNL     1       2.236   3.281  21.415  0.00  0.00    +0.000 C 
ATOM     23  F   UNL     1       0.940   2.942  21.665  0.00  0.00    +0.000 F 
ATOM     24  F   UNL     1       2.991   2.300  21.985  0.00  0.00    +0.000 F 
ATOM     25  F   UNL     1       2.473   4.406  22.146  0.00  0.00    +0.000 F 
ENDBRANCH  10  22
TORSDOF 1
ENDMDL
MODEL 2
REMARK VINA RESULT:      -8.1      5.937      7.953
REMARK  Name = 
REMARK  1 active torsions:
REMARK  status: ('A' for Active; 'I' for Inactive)
REMARK    1  A    between atoms: C_10  and  C_11
REMARK                            x       y       z     vdW  Elec       q    Type
REMARK                         _______ _______ _______ _____ _____    ______ ____
ROOT
ATOM      1  O   UNL     1       2.608  11.611  17.775  0.00  0.00    +0.000 OA
ATOM      2  C   UNL     1       1.973  10.766  18.413  0.00  0.00    +0.000 C 
ATOM      3  C   UNL     1       1.660   9.414  17.807  0.00  0.00    +0.000 C 
ATOM      4  C   UNL     1       2.150   8.306  18.663  0.00  0.00    +0.000 A 
ATOM      5  C   UNL     1       1.774   8.139  19.981  0.00  0.00    +0.000 A 
ATOM      6  N   UNL     1       2.464   7.048  20.459  0.00  0.00    +0.000 N 
ATOM      7  C   UNL     1       3.227   6.481  19.464  0.00  0.00    +0.000 A 
ATOM      8  C   UNL     1       4.070   5.365  19.494  0.00  0.00    +0.000 A 
ATOM      9  C   UNL     1       4.719   5.008  18.305  0.00  0.00    +0.000 A 
ATOM     10  C   UNL     1       4.539   5.740  17.123  0.00  0.00    +0.000 A 
ATOM     11  C   UNL     1       3.700   6.869  17.131  0.00  0.00    +0.000 A 
ATOM     12  C   UNL     1       3.036   7.246  18.316  0.00  0.00    +0.000 A 
ATOM     13  C   UNL     1       0.864   8.973  20.763  0.00  0.00    +0.000 A 
ATOM     14  C   UNL     1       0.066   8.391  21.759  0.00  0.00    +0.000 A 
ATOM     15  C   UNL     1      -0.785   9.180  22.527  0.00  0.00    +0.000 A 
ATOM     16  C   UNL     1      -0.791  10.542  22.299  0.00  0.00    +0.000 A 
ATOM     17  N   UNL     1      -0.030  11.147  21.363  0.00  0.00    +0.000 NA
ATOM     18  C   UNL     1       0.749  10.363  20.578  0.00  0.00    +0.000 A 
ATOM     19  N   UNL     1       1.437  11.112  19.618  0.00  0.00    +0.000 N 
ATOM     20  H   UNL     1       2.433   6.712  21.411  0.00  0.00    +0.000 HD
ATOM     21  H   UNL     1       1.463  12.101  19.821  0.00  0.00    +0.000 HD
ENDROOT
BRANCH  10  22
ATOM     22  C   UNL     1       5.222   5.338  15.839  0.00  0.00    +0.000 C 
ATOM     23  F   UNL     1       4.747   4.177  15.307  0.00  0.00    +0.000 F 
ATOM     24  F   UNL     1       5.084   6.277  14.861  0.00  0.00    +0.000 F 
ATOM     25  F   UNL     1       6.562   5.155  15.995  0.00  0.00    +0.000 F 
ENDBRANCH  10  22
TORSDOF 1
ENDMDL
MODEL 3
REMARK VINA RESULT:      -8.0      3.486      3.792
REMARK  Name = 
REMARK  1 active torsions:
REMARK  status: ('A' for Active; 'I' for Inactive)
REMARK    1  A    between atoms: C_10  and  C_11
REMARK                            x       y       z     vdW  Elec       q    Type
REMARK                         _______ _______ _______ _____ _____    ______ ____
ROOT
ATOM      1  O   UNL     1       6.951   5.386  20.288  0.00  0.00    +0.000 OA
ATOM      2  C   UNL     1       6.340   5.281  19.221  0.00  0.00    +0.000 C 
ATOM      3  C   UNL     1       4.835   5.112  19.204  0.00  0.00    +0.000 C 
ATOM      4  C   UNL     1       4.178   6.156  18.381  0.00  0.00    +0.000 A 
ATOM      5  C   UNL     1       4.470   6.372  17.049  0.00  0.00    +0.000 A 
ATOM      6  N   UNL     1       3.709   7.443  16.640  0.00  0.00    +0.000 N 
ATOM      7  C   UNL     1       2.898   7.881  17.662  0.00  0.00    +0.000 A 
ATOM      8  C   UNL     1       1.964   8.923  17.694  0.00  0.00    +0.000 A 
ATOM      9  C   UNL     1       1.263   9.131  18.889  0.00  0.00    +0.000 A 
ATOM     10  C   UNL     1       1.485   8.332  20.018  0.00  0.00    +0.000 A 
ATOM     11  C   UNL     1       2.446   7.305  19.960  0.00  0.00    +0.000 A 
ATOM     12  C   UNL     1       3.162   7.076  18.768  0.00  0.00    +0.000 A 
ATOM     13  C   UNL     1       5.435   5.653  16.219  0.00  0.00    +0.000 A 
ATOM     14  C   UNL     1       5.183   5.475  14.851  0.00  0.00    +0.000 A 
ATOM     15  C   UNL     1       6.107   4.816  14.046  0.00  0.00    +0.000 A 
ATOM     16  C   UNL     1       7.280   4.379  14.628  0.00  0.00    +0.000 A 
ATOM     17  N   UNL     1       7.573   4.542  15.936  0.00  0.00    +0.000 NA
ATOM     18  C   UNL     1       6.639   5.130  16.724  0.00  0.00    +0.000 A 
ATOM     19  N   UNL     1       7.049   5.182  18.060  0.00  0.00    +0.000 N 
ATOM     20  H   UNL     1       3.746   7.867  15.724  0.00  0.00    +0.000 HD
ATOM     21  H   UNL     1       8.040   5.033  18.185  0.00  0.00    +0.000 HD
ENDROOT
BRANCH  10  22
ATOM     22  C   UNL     1       0.712   8.546  21.296  0.00  0.00    +0.000 C 
ATOM     23  F   UNL     1       0.010   9.713  21.322  0.00  0.00    +0.000 F 
ATOM     24  F   UNL     1      -0.202   7.559  21.522  0.00  0.00    +0.000 F 
ATOM     25  F   UNL     1       1.514   8.569  22.396  0.00  0.00    +0.000 F 
ENDBRANCH  10  22
TORSDOF 1
ENDMDL
MODEL 4
REMARK VINA RESULT:      -7.7      5.653      7.000
REMARK  Name = 
REMARK  1 active torsions:
REMARK  status: ('A' for Active; 'I' for Inactive)
REMARK    1  A    between atoms: C_10  and  C_11
REMARK                            x       y       z     vdW  Elec       q    Type
REMARK                         _______ _______ _______ _____ _____    ______ ____
ROOT
ATOM      1  O   UNL     1      -0.933   8.423  22.283  0.00  0.00    +0.000 OA
ATOM      2  C   UNL     1      -0.034   8.850  21.552  0.00  0.00    +0.000 C 
ATOM      3  C   UNL     1       1.346   8.228  21.576  0.00  0.00    +0.000 C 
ATOM      4  C   UNL     1       1.765   7.778  20.227  0.00  0.00    +0.000 A 
ATOM      5  C   UNL     1       1.833   8.615  19.132  0.00  0.00    +0.000 A 
ATOM      6  N   UNL     1       2.206   7.841  18.057  0.00  0.00    +0.000 N 
ATOM      7  C   UNL     1       2.431   6.541  18.450  0.00  0.00    +0.000 A 
ATOM      8  C   UNL     1       2.831   5.426  17.704  0.00  0.00    +0.000 A 
ATOM      9  C   UNL     1       2.996   4.214  18.386  0.00  0.00    +0.000 A 
ATOM     10  C   UNL     1       2.767   4.111  19.765  0.00  0.00    +0.000 A 
ATOM     11  C   UNL     1       2.347   5.246  20.482  0.00  0.00    +0.000 A 
ATOM     12  C   UNL     1       2.175   6.477  19.818  0.00  0.00    +0.000 A 
ATOM     13  C   UNL     1       1.525  10.043  19.079  0.00  0.00    +0.000 A 
ATOM     14  C   UNL     1       2.230  10.878  18.200  0.00  0.00    +0.000 A 
ATOM     15  C   UNL     1       1.926  12.233  18.122  0.00  0.00    +0.000 A 
ATOM     16  C   UNL     1       0.897  12.714  18.906  0.00  0.00    +0.000 A 
ATOM     17  N   UNL     1       0.180  11.946  19.754  0.00  0.00    +0.000 NA
ATOM     18  C   UNL     1       0.525  10.640  19.869  0.00  0.00    +0.000 A 
ATOM     19  N   UNL     1      -0.259   9.979  20.820  0.00  0.00    +0.000 N 
ATOM     20  H   UNL     1       2.289   8.168  17.105  0.00  0.00    +0.000 HD
ATOM     21  H   UNL     1      -1.102  10.478  21.065  0.00  0.00    +0.000 HD
ENDROOT
BRANCH  10  22
ATOM     22  C   UNL     1       2.969   2.808  20.499  0.00  0.00    +0.000 C 
ATOM     23  F   UNL     1       4.260   2.373  20.499  0.00  0.00    +0.000 F 
ATOM     24  F   UNL     1       2.605   2.888  21.810  0.00  0.00    +0.000 F 
ATOM     25  F   UNL     1       2.234   1.791  19.970  0.00  0.00    +0.000 F 
ENDBRANCH  10  22
TORSDOF 1
ENDMDL
MODEL 5
REMARK VINA RESULT:      -7.6      6.017      7.921
REMARK  Name = 
REMARK  1 active torsions:
REMARK  status: ('A' for Active; 'I' for Inactive)
REMARK    1  A    between atoms: C_10  and  C_11
REMARK                            x       y       z     vdW  Elec       q    Type
REMARK                         _______ _______ _______ _____ _____    ______ ____
ROOT
ATOM      1  O   UNL     1       2.684  11.109  17.507  0.00  0.00    +0.000 OA
ATOM      2  C   UNL     1       1.908  10.607  18.326  0.00  0.00    +0.000 C 
ATOM      3  C   UNL     1       1.266   9.262  18.061  0.00  0.00    +0.000 C 
ATOM      4  C   UNL     1       1.537   8.302  19.159  0.00  0.00    +0.000 A 
ATOM      5  C   UNL     1       1.202   8.540  20.478  0.00  0.00    +0.000 A 
ATOM      6  N   UNL     1       1.651   7.462  21.206  0.00  0.00    +0.000 N 
ATOM      7  C   UNL     1       2.213   6.517  20.378  0.00  0.00    +0.000 A 
ATOM      8  C   UNL     1       2.782   5.274  20.678  0.00  0.00    +0.000 A 
ATOM      9  C   UNL     1       3.270   4.508  19.611  0.00  0.00    +0.000 A 
ATOM     10  C   UNL     1       3.199   4.964  18.288  0.00  0.00    +0.000 A 
ATOM     11  C   UNL     1       2.639   6.228  18.022  0.00  0.00    +0.000 A 
ATOM     12  C   UNL     1       2.140   7.015  19.079  0.00  0.00    +0.000 A 
ATOM     13  C   UNL     1       0.546   9.722  21.034  0.00  0.00    +0.000 A 
ATOM     14  C   UNL     1      -0.310   9.591  22.137  0.00  0.00    +0.000 A 
ATOM     15  C   UNL     1      -0.919  10.713  22.691  0.00  0.00    +0.000 A 
ATOM     16  C   UNL     1      -0.628  11.946  22.143  0.00  0.00    +0.000 A 
ATOM     17  N   UNL     1       0.200  12.122  21.092  0.00  0.00    +0.000 NA
ATOM     18  C   UNL     1       0.740  11.017  20.520  0.00  0.00    +0.000 A 
ATOM     19  N   UNL     1       1.528  11.340  19.411  0.00  0.00    +0.000 N 
ATOM     20  H   UNL     1       1.594   7.374  22.210  0.00  0.00    +0.000 HD
ATOM     21  H   UNL     1       1.787  12.316  19.371  0.00  0.00    +0.000 HD
ENDROOT
BRANCH  10  22
ATOM     22  C   UNL     1       3.705   4.126  17.140  0.00  0.00    +0.000 C 
ATOM     23  F   UNL     1       2.718   3.489  16.450  0.00  0.00    +0.000 F 
ATOM     24  F   UNL     1       4.386   4.864  16.218  0.00  0.00    +0.000 F 
ATOM     25  F   UNL     1       4.565   3.150  17.545  0.00  0.00    +0.000 F 
ENDBRANCH  10  22
TORSDOF 1
ENDMDL
MODEL 6
REMARK VINA RESULT:      -7.3      9.392     11.411
REMARK  Name = 
REMARK  1 active torsions:
REMARK  status: ('A' for Active; 'I' for Inactive)
REMARK    1  A    between atoms: C_10  and  C_11
REMARK                            x       y       z     vdW  Elec       q    Type
REMARK                         _______ _______ _______ _____ _____    ______ ____
ROOT
ATOM      1  O   UNL     1      -3.412  10.736  14.468  0.00  0.00    +0.000 OA
ATOM      2  C   UNL     1      -3.778  10.814  15.645  0.00  0.00    +0.000 C 
ATOM      3  C   UNL     1      -3.286   9.822  16.677  0.00  0.00    +0.000 C 
ATOM      4  C   UNL     1      -2.643  10.503  17.826  0.00  0.00    +0.000 A 
ATOM      5  C   UNL     1      -3.280  11.451  18.602  0.00  0.00    +0.000 A 
ATOM      6  N   UNL     1      -2.364  11.893  19.529  0.00  0.00    +0.000 N 
ATOM      7  C   UNL     1      -1.175  11.210  19.400  0.00  0.00    +0.000 A 
ATOM      8  C   UNL     1       0.015  11.320  20.127  0.00  0.00    +0.000 A 
ATOM      9  C   UNL     1       1.072  10.471  19.775  0.00  0.00    +0.000 A 
ATOM     10  C   UNL     1       0.952   9.545  18.730  0.00  0.00    +0.000 A 
ATOM     11  C   UNL     1      -0.252   9.474  18.005  0.00  0.00    +0.000 A 
ATOM     12  C   UNL     1      -1.330  10.316  18.343  0.00  0.00    +0.000 A 
ATOM     13  C   UNL     1      -4.647  11.951  18.460  0.00  0.00    +0.000 A 
ATOM     14  C   UNL     1      -5.371  12.337  19.597  0.00  0.00    +0.000 A 
ATOM     15  C   UNL     1      -6.662  12.839  19.470  0.00  0.00    +0.000 A 
ATOM     16  C   UNL     1      -7.186  12.972  18.199  0.00  0.00    +0.000 A 
ATOM     17  N   UNL     1      -6.520  12.628  17.076  0.00  0.00    +0.000 NA
ATOM     18  C   UNL     1      -5.287  12.083  17.214  0.00  0.00    +0.000 A 
ATOM     19  N   UNL     1      -4.739  11.722  15.978  0.00  0.00    +0.000 N 
ATOM     20  H   UNL     1      -2.526  12.627  20.204  0.00  0.00    +0.000 HD
ATOM     21  H   UNL     1      -5.203  12.153  15.191  0.00  0.00    +0.000 HD
ENDROOT
BRANCH  10  22
ATOM     22  C   UNL     1       2.086   8.618  18.369  0.00  0.00    +0.000 C 
ATOM     23  F   UNL     1       2.583   7.922  19.429  0.00  0.00    +0.000 F 
ATOM     24  F   UNL     1       1.719   7.681  17.450  0.00  0.00    +0.000 F 
ATOM     25  F   UNL     1       3.148   9.276  17.826  0.00  0.00    +0.000 F 
ENDBRANCH  10  22
TORSDOF 1
ENDMDL
MODEL 7
REMARK VINA RESULT:      -6.8     10.957     13.016
REMARK  Name = 
REMARK  1 active torsions:
REMARK  status: ('A' for Active; 'I' for Inactive)
REMARK    1  A    between atoms: C_10  and  C_11
REMARK                            x       y       z     vdW  Elec       q    Type
REMARK                         _______ _______ _______ _____ _____    ______ ____
ROOT
ATOM      1  O   UNL     1      -3.395  11.937  23.711  0.00  0.00    +0.000 OA
ATOM      2  C   UNL     1      -3.798  12.522  22.702  0.00  0.00    +0.000 C 
ATOM      3  C   UNL     1      -2.829  12.971  21.629  0.00  0.00    +0.000 C 
ATOM      4  C   UNL     1      -3.195  12.426  20.299  0.00  0.00    +0.000 A 
ATOM      5  C   UNL     1      -4.422  12.637  19.702  0.00  0.00    +0.000 A 
ATOM      6  N   UNL     1      -4.415  11.942  18.514  0.00  0.00    +0.000 N 
ATOM      7  C   UNL     1      -3.194  11.339  18.312  0.00  0.00    +0.000 A 
ATOM      8  C   UNL     1      -2.738  10.551  17.249  0.00  0.00    +0.000 A 
ATOM      9  C   UNL     1      -1.421  10.078  17.309  0.00  0.00    +0.000 A 
ATOM     10  C   UNL     1      -0.584  10.374  18.393  0.00  0.00    +0.000 A 
ATOM     11  C   UNL     1      -1.079  11.153  19.455  0.00  0.00    +0.000 A 
ATOM     12  C   UNL     1      -2.400  11.642  19.416  0.00  0.00    +0.000 A 
ATOM     13  C   UNL     1      -5.552  13.400  20.227  0.00  0.00    +0.000 A 
ATOM     14  C   UNL     1      -6.400  14.089  19.347  0.00  0.00    +0.000 A 
ATOM     15  C   UNL     1      -7.493  14.797  19.835  0.00  0.00    +0.000 A 
ATOM     16  C   UNL     1      -7.731  14.771  21.194  0.00  0.00    +0.000 A 
ATOM     17  N   UNL     1      -6.952  14.109  22.077  0.00  0.00    +0.000 NA
ATOM     18  C   UNL     1      -5.854  13.474  21.600  0.00  0.00    +0.000 A 
ATOM     19  N   UNL     1      -5.111  12.882  22.626  0.00  0.00    +0.000 N 
ATOM     20  H   UNL     1      -5.197  11.865  17.880  0.00  0.00    +0.000 HD
ATOM     21  H   UNL     1      -5.624  12.786  23.491  0.00  0.00    +0.000 HD
ENDROOT
BRANCH  10  22
ATOM     22  C   UNL     1       0.841   9.881  18.442  0.00  0.00    +0.000 C 
ATOM     23  F   UNL     1       1.765  10.852  18.197  0.00  0.00    +0.000 F 
ATOM     24  F   UNL     1       1.168   9.356  19.657  0.00  0.00    +0.000 F 
ATOM     25  F   UNL     1       1.086   8.897  17.533  0.00  0.00    +0.000 F 
ENDBRANCH  10  22
TORSDOF 1
ENDMDL
