MODEL 1
REMARK VINA RESULT:      -8.5      0.000      0.000
REMARK  Name = 
REMARK  9 active torsions:
REMARK  status: ('A' for Active; 'I' for Inactive)
REMARK    1  A    between atoms: C_1  and  C_2
REMARK    2  A    between atoms: C_2  and  C_3
REMARK    3  A    between atoms: C_7  and  N_8
REMARK    4  A    between atoms: C_9  and  C_11
REMARK    5  A    between atoms: C_11  and  O_12
REMARK    6  A    between atoms: O_12  and  C_13
REMARK    7  A    between atoms: C_13  and  C_15
REMARK    8  A    between atoms: C_16  and  C_17
REMARK    9  A    between atoms: C_25  and  C_26
REMARK                            x       y       z     vdW  Elec       q    Type
REMARK                         _______ _______ _______ _____ _____    ______ ____
ROOT
ATOM      1  O   UNL     1       5.178   5.239  18.207  0.00  0.00    +0.000 OA
ENDROOT
BRANCH   1   2
ATOM      2  C   UNL     1       4.821   4.222  19.030  0.00  0.00    +0.000 C 
ATOM      3  O   UNL     1       5.561   3.756  19.888  0.00  0.00    +0.000 OA
BRANCH   2   4
ATOM      4  C   UNL     1       3.468   3.773  18.822  0.00  0.00    +0.000 A 
ATOM      5  C   UNL     1       2.262   4.532  18.929  0.00  0.00    +0.000 A 
ATOM      6  N   UNL     1       1.195   3.735  18.748  0.00  0.00    +0.000 NA
ATOM      7  O   UNL     1       1.684   2.480  18.474  0.00  0.00    +0.000 OA
ATOM      8  C   UNL     1       3.041   2.501  18.501  0.00  0.00    +0.000 A 
ATOM      9  C   UNL     1       3.707   1.210  18.237  0.00  0.00    +0.000 C 
BRANCH   5  10
ATOM     10  C   UNL     1       2.096   5.970  19.154  0.00  0.00    +0.000 A 
ATOM     11  C   UNL     1       1.746   6.467  20.419  0.00  0.00    +0.000 A 
ATOM     12  C   UNL     1       1.577   7.835  20.629  0.00  0.00    +0.000 A 
ATOM     13  C   UNL     1       1.788   8.728  19.583  0.00  0.00    +0.000 A 
ATOM     14  C   UNL     1       2.161   8.253  18.327  0.00  0.00    +0.000 A 
ATOM     15  C   UNL     1       2.312   6.880  18.110  0.00  0.00    +0.000 A 
ENDBRANCH   5  10
ENDBRANCH   2   4
ENDBRANCH   1   2
BRANCH   1  16
ATOM     16  C   UNL     1       6.581   5.510  18.142  0.00  0.00    +0.000 C 
BRANCH  16  18
ATOM     17  N   UNL     1       6.407   5.367  15.712  0.00  0.00    +0.000 N 
ATOM     18  C   UNL     1       7.100   4.945  16.838  0.00  0.00    +0.000 C 
ATOM     19  O   UNL     1       8.095   4.217  16.849  0.00  0.00    +0.000 OA
ATOM     20  H   UNL     1       5.695   6.081  15.833  0.00  0.00    +0.000 HD
BRANCH  17  25
ATOM     21  C   UNL     1       6.105   3.571  12.464  0.00  0.00    +0.000 A 
ATOM     22  C   UNL     1       7.169   4.132  11.746  0.00  0.00    +0.000 A 
ATOM     23  C   UNL     1       7.979   5.097  12.337  0.00  0.00    +0.000 A 
ATOM     24  C   UNL     1       7.737   5.508  13.644  0.00  0.00    +0.000 A 
ATOM     25  C   UNL     1       6.682   4.968  14.386  0.00  0.00    +0.000 A 
ATOM     26  C   UNL     1       5.880   3.982  13.791  0.00  0.00    +0.000 A 
BRANCH  21  28
ATOM     27  C   UNL     1       4.019   3.147  11.119  0.00  0.00    +0.000 C 
ATOM     28  C   UNL     1       5.223   2.532  11.816  0.00  0.00    +0.000 C 
ENDBRANCH  21  28
ENDBRANCH  17  25
ENDBRANCH  16  18
ENDBRANCH   1  16
TORSDOF 7
ENDMDL
MODEL 2
REMARK VINA RESULT:      -8.3      2.930      7.621
REMARK  Name = 
REMARK  9 active torsions:
REMARK  status: ('A' for Active; 'I' for Inactive)
REMARK    1  A    between atoms: C_1  and  C_2
REMARK    2  A    between atoms: C_2  and  C_3
REMARK    3  A    between atoms: C_7  and  N_8
REMARK    4  A    between atoms: C_9  and  C_11
REMARK    5  A    between atoms: C_11  and  O_12
REMARK    6  A    between atoms: O_12  and  C_13
REMARK    7  A    between atoms: C_13  and  C_15
REMARK    8  A    between atoms: C_16  and  C_17
REMARK    9  A    between atoms: C_25  and  C_26
REMARK                            x       y       z     vdW  Elec       q    Type
REMARK                         _______ _______ _______ _____ _____    ______ ____
ROOT
ATOM      1  O   UNL     1       2.256   6.168  19.156  0.00  0.00    +0.000 OA
ENDROOT
BRANCH   1   2
ATOM      2  C   UNL     1       2.168   4.914  18.649  0.00  0.00    +0.000 C 
ATOM      3  O   UNL     1       1.466   4.619  17.690  0.00  0.00    +0.000 OA
BRANCH   2   4
ATOM      4  C   UNL     1       3.020   3.968  19.327  0.00  0.00    +0.000 A 
ATOM      5  C   UNL     1       4.348   3.573  18.981  0.00  0.00    +0.000 A 
ATOM      6  N   UNL     1       4.773   2.602  19.806  0.00  0.00    +0.000 NA
ATOM      7  O   UNL     1       3.765   2.393  20.718  0.00  0.00    +0.000 OA
ATOM      8  C   UNL     1       2.723   3.218  20.446  0.00  0.00    +0.000 A 
ATOM      9  C   UNL     1       1.556   3.092  21.342  0.00  0.00    +0.000 C 
BRANCH   5  10
ATOM     10  C   UNL     1       5.224   4.106  17.934  0.00  0.00    +0.000 A 
ATOM     11  C   UNL     1       6.382   4.827  18.261  0.00  0.00    +0.000 A 
ATOM     12  C   UNL     1       7.209   5.344  17.263  0.00  0.00    +0.000 A 
ATOM     13  C   UNL     1       6.905   5.117  15.925  0.00  0.00    +0.000 A 
ATOM     14  C   UNL     1       5.772   4.380  15.584  0.00  0.00    +0.000 A 
ATOM     15  C   UNL     1       4.932   3.879  16.583  0.00  0.00    +0.000 A 
ENDBRANCH   5  10
ENDBRANCH   2   4
ENDBRANCH   1   2
BRANCH   1  16
ATOM     16  C   UNL     1       3.028   7.090  18.379  0.00  0.00    +0.000 C 
BRANCH  16  18
ATOM     17  N   UNL     1       1.461   8.681  19.361  0.00  0.00    +0.000 N 
ATOM     18  C   UNL     1       2.227   8.365  18.248  0.00  0.00    +0.000 C 
ATOM     19  O   UNL     1       2.338   9.046  17.226  0.00  0.00    +0.000 OA
ATOM     20  H   UNL     1       1.572   8.107  20.192  0.00  0.00    +0.000 HD
BRANCH  17  25
ATOM     21  C   UNL     1      -1.316  11.060  18.656  0.00  0.00    +0.000 A 
ATOM     22  C   UNL     1      -1.116  12.015  19.661  0.00  0.00    +0.000 A 
ATOM     23  C   UNL     1      -0.066  11.868  20.563  0.00  0.00    +0.000 A 
ATOM     24  C   UNL     1       0.789  10.775  20.471  0.00  0.00    +0.000 A 
ATOM     25  C   UNL     1       0.614   9.804  19.479  0.00  0.00    +0.000 A 
ATOM     26  C   UNL     1      -0.436   9.966  18.561  0.00  0.00    +0.000 A 
BRANCH  21  28
ATOM     27  C   UNL     1      -2.432  10.174  16.579  0.00  0.00    +0.000 C 
ATOM     28  C   UNL     1      -2.462  11.216  17.686  0.00  0.00    +0.000 C 
ENDBRANCH  21  28
ENDBRANCH  17  25
ENDBRANCH  16  18
ENDBRANCH   1  16
TORSDOF 7
ENDMDL
MODEL 3
REMARK VINA RESULT:      -8.1      2.957      7.415
REMARK  Name = 
REMARK  9 active torsions:
REMARK  status: ('A' for Active; 'I' for Inactive)
REMARK    1  A    between atoms: C_1  and  C_2
REMARK    2  A    between atoms: C_2  and  C_3
REMARK    3  A    between atoms: C_7  and  N_8
REMARK    4  A    between atoms: C_9  and  C_11
REMARK    5  A    between atoms: C_11  and  O_12
REMARK    6  A    between atoms: O_12  and  C_13
REMARK    7  A    between atoms: C_13  and  C_15
REMARK    8  A    between atoms: C_16  and  C_17
REMARK    9  A    between atoms: C_25  and  C_26
REMARK                            x       y       z     vdW  Elec       q    Type
REMARK                         _______ _______ _______ _____ _____    ______ ____
ROOT
ATOM      1  O   UNL     1       2.620   6.098  17.810  0.00  0.00    +0.000 OA
ENDROOT
BRANCH   1   2
ATOM      2  C   UNL     1       2.140   4.838  17.955  0.00  0.00    +0.000 C 
ATOM      3  O   UNL     1       1.160   4.415  17.354  0.00  0.00    +0.000 OA
BRANCH   2   4
ATOM      4  C   UNL     1       2.924   4.033  18.858  0.00  0.00    +0.000 A 
ATOM      5  C   UNL     1       4.287   3.627  18.717  0.00  0.00    +0.000 A 
ATOM      6  N   UNL     1       4.633   2.807  19.724  0.00  0.00    +0.000 NA
ATOM      7  O   UNL     1       3.536   2.714  20.548  0.00  0.00    +0.000 OA
ATOM      8  C   UNL     1       2.519   3.457  20.044  0.00  0.00    +0.000 A 
ATOM      9  C   UNL     1       1.264   3.438  20.823  0.00  0.00    +0.000 C 
BRANCH   5  10
ATOM     10  C   UNL     1       5.263   4.016  17.697  0.00  0.00    +0.000 A 
ATOM     11  C   UNL     1       5.026   3.760  16.337  0.00  0.00    +0.000 A 
ATOM     12  C   UNL     1       5.962   4.121  15.367  0.00  0.00    +0.000 A 
ATOM     13  C   UNL     1       7.133   4.772  15.743  0.00  0.00    +0.000 A 
ATOM     14  C   UNL     1       7.371   5.056  17.086  0.00  0.00    +0.000 A 
ATOM     15  C   UNL     1       6.443   4.678  18.060  0.00  0.00    +0.000 A 
ENDBRANCH   5  10
ENDBRANCH   2   4
ENDBRANCH   1   2
BRANCH   1  16
ATOM     16  C   UNL     1       3.039   6.736  19.021  0.00  0.00    +0.000 C 
BRANCH  16  18
ATOM     17  N   UNL     1       1.784   8.702  18.304  0.00  0.00    +0.000 N 
ATOM     18  C   UNL     1       2.033   7.817  19.344  0.00  0.00    +0.000 C 
ATOM     19  O   UNL     1       1.479   7.817  20.446  0.00  0.00    +0.000 OA
ATOM     20  H   UNL     1       2.204   8.501  17.400  0.00  0.00    +0.000 HD
BRANCH  17  25
ATOM     21  C   UNL     1      -1.340  10.707  18.006  0.00  0.00    +0.000 A 
ATOM     22  C   UNL     1      -0.901  11.959  18.454  0.00  0.00    +0.000 A 
ATOM     23  C   UNL     1       0.422  12.134  18.850  0.00  0.00    +0.000 A 
ATOM     24  C   UNL     1       1.314  11.068  18.801  0.00  0.00    +0.000 A 
ATOM     25  C   UNL     1       0.905   9.805  18.360  0.00  0.00    +0.000 A 
ATOM     26  C   UNL     1      -0.426   9.639  17.945  0.00  0.00    +0.000 A 
BRANCH  21  28
ATOM     27  C   UNL     1      -2.904   9.977  16.172  0.00  0.00    +0.000 C 
ATOM     28  C   UNL     1      -2.778  10.518  17.588  0.00  0.00    +0.000 C 
ENDBRANCH  21  28
ENDBRANCH  17  25
ENDBRANCH  16  18
ENDBRANCH   1  16
TORSDOF 7
ENDMDL
MODEL 4
REMARK VINA RESULT:      -8.1      3.062      7.801
REMARK  Name = 
REMARK  9 active torsions:
REMARK  status: ('A' for Active; 'I' for Inactive)
REMARK    1  A    between atoms: C_1  and  C_2
REMARK    2  A    between atoms: C_2  and  C_3
REMARK    3  A    between atoms: C_7  and  N_8
REMARK    4  A    between atoms: C_9  and  C_11
REMARK    5  A    between atoms: C_11  and  O_12
REMARK    6  A    between atoms: O_12  and  C_13
REMARK    7  A    between atoms: C_13  and  C_15
REMARK    8  A    between atoms: C_16  and  C_17
REMARK    9  A    between atoms: C_25  and  C_26
REMARK                            x       y       z     vdW  Elec       q    Type
REMARK                         _______ _______ _______ _____ _____    ______ ____
ROOT
ATOM      1  O   UNL     1       2.680   6.110  17.829  0.00  0.00    +0.000 OA
ENDROOT
BRANCH   1   2
ATOM      2  C   UNL     1       2.137   4.882  18.017  0.00  0.00    +0.000 C 
ATOM      3  O   UNL     1       1.110   4.505  17.466  0.00  0.00    +0.000 OA
BRANCH   2   4
ATOM      4  C   UNL     1       2.914   4.048  18.900  0.00  0.00    +0.000 A 
ATOM      5  C   UNL     1       4.269   3.623  18.743  0.00  0.00    +0.000 A 
ATOM      6  N   UNL     1       4.608   2.779  19.733  0.00  0.00    +0.000 NA
ATOM      7  O   UNL     1       3.515   2.689  20.561  0.00  0.00    +0.000 OA
ATOM      8  C   UNL     1       2.506   3.457  20.077  0.00  0.00    +0.000 A 
ATOM      9  C   UNL     1       1.257   3.444  20.864  0.00  0.00    +0.000 C 
BRANCH   5  10
ATOM     10  C   UNL     1       5.245   4.015  17.723  0.00  0.00    +0.000 A 
ATOM     11  C   UNL     1       5.019   3.742  16.365  0.00  0.00    +0.000 A 
ATOM     12  C   UNL     1       5.954   4.106  15.396  0.00  0.00    +0.000 A 
ATOM     13  C   UNL     1       7.114   4.776  15.771  0.00  0.00    +0.000 A 
ATOM     14  C   UNL     1       7.342   5.076  17.113  0.00  0.00    +0.000 A 
ATOM     15  C   UNL     1       6.415   4.696  18.086  0.00  0.00    +0.000 A 
ENDBRANCH   5  10
ENDBRANCH   2   4
ENDBRANCH   1   2
BRANCH   1  16
ATOM     16  C   UNL     1       2.619   6.986  18.958  0.00  0.00    +0.000 C 
BRANCH  16  18
ATOM     17  N   UNL     1       1.276   8.965  19.441  0.00  0.00    +0.000 N 
ATOM     18  C   UNL     1       2.038   8.301  18.490  0.00  0.00    +0.000 C 
ATOM     19  O   UNL     1       2.308   8.713  17.360  0.00  0.00    +0.000 OA
ATOM     20  H   UNL     1       1.252   8.581  20.382  0.00  0.00    +0.000 HD
BRANCH  17  25
ATOM     21  C   UNL     1      -1.232  11.434  18.222  0.00  0.00    +0.000 A 
ATOM     22  C   UNL     1      -0.761  12.612  18.815  0.00  0.00    +0.000 A 
ATOM     23  C   UNL     1       0.380  12.584  19.612  0.00  0.00    +0.000 A 
ATOM     24  C   UNL     1       1.059  11.389  19.822  0.00  0.00    +0.000 A 
ATOM     25  C   UNL     1       0.613  10.195  19.245  0.00  0.00    +0.000 A 
ATOM     26  C   UNL     1      -0.528  10.232  18.427  0.00  0.00    +0.000 A 
BRANCH  21  28
ATOM     27  C   UNL     1      -3.746  11.578  18.196  0.00  0.00    +0.000 C 
ATOM     28  C   UNL     1      -2.475  11.465  17.367  0.00  0.00    +0.000 C 
ENDBRANCH  21  28
ENDBRANCH  17  25
ENDBRANCH  16  18
ENDBRANCH   1  16
TORSDOF 7
ENDMDL
MODEL 5
REMARK VINA RESULT:      -8.0      2.981      8.206
REMARK  Name = 
REMARK  9 active torsions:
REMARK  status: ('A' for Active; 'I' for Inactive)
REMARK    1  A    between atoms: C_1  and  C_2
REMARK    2  A    between atoms: C_2  and  C_3
REMARK    3  A    between atoms: C_7  and  N_8
REMARK    4  A    between atoms: C_9  and  C_11
REMARK    5  A    between atoms: C_11  and  O_12
REMARK    6  A    between atoms: O_12  and  C_13
REMARK    7  A    between atoms: C_13  and  C_15
REMARK    8  A    between atoms: C_16  and  C_17
REMARK    9  A    between atoms: C_25  and  C_26
REMARK                            x       y       z     vdW  Elec       q    Type
REMARK                         _______ _______ _______ _____ _____    ______ ____
ROOT
ATOM      1  O   UNL     1       2.228   6.112  19.250  0.00  0.00    +0.000 OA
ENDROOT
BRANCH   1   2
ATOM      2  C   UNL     1       2.186   4.871  18.705  0.00  0.00    +0.000 C 
ATOM      3  O   UNL     1       1.502   4.584  17.731  0.00  0.00    +0.000 OA
BRANCH   2   4
ATOM      4  C   UNL     1       3.059   3.933  19.365  0.00  0.00    +0.000 A 
ATOM      5  C   UNL     1       4.389   3.560  18.998  0.00  0.00    +0.000 A 
ATOM      6  N   UNL     1       4.839   2.588  19.809  0.00  0.00    +0.000 NA
ATOM      7  O   UNL     1       3.847   2.358  20.732  0.00  0.00    +0.000 OA
ATOM      8  C   UNL     1       2.789   3.169  20.481  0.00  0.00    +0.000 A 
ATOM      9  C   UNL     1       1.636   3.019  21.392  0.00  0.00    +0.000 C 
BRANCH   5  10
ATOM     10  C   UNL     1       5.243   4.114  17.944  0.00  0.00    +0.000 A 
ATOM     11  C   UNL     1       6.399   4.842  18.261  0.00  0.00    +0.000 A 
ATOM     12  C   UNL     1       7.206   5.379  17.257  0.00  0.00    +0.000 A 
ATOM     13  C   UNL     1       6.882   5.165  15.921  0.00  0.00    +0.000 A 
ATOM     14  C   UNL     1       5.750   4.422  15.589  0.00  0.00    +0.000 A 
ATOM     15  C   UNL     1       4.932   3.901  16.594  0.00  0.00    +0.000 A 
ENDBRANCH   5  10
ENDBRANCH   2   4
ENDBRANCH   1   2
BRANCH   1  16
ATOM     16  C   UNL     1       2.966   7.084  18.503  0.00  0.00    +0.000 C 
BRANCH  16  18
ATOM     17  N   UNL     1       1.375   8.602  19.559  0.00  0.00    +0.000 N 
ATOM     18  C   UNL     1       2.126   8.338  18.423  0.00  0.00    +0.000 C 
ATOM     19  O   UNL     1       2.195   9.049  17.417  0.00  0.00    +0.000 OA
ATOM     20  H   UNL     1       1.521   8.009  20.372  0.00  0.00    +0.000 HD
BRANCH  17  25
ATOM     21  C   UNL     1      -0.578  11.302  21.223  0.00  0.00    +0.000 A 
ATOM     22  C   UNL     1      -1.231  11.877  20.127  0.00  0.00    +0.000 A 
ATOM     23  C   UNL     1      -1.024  11.371  18.846  0.00  0.00    +0.000 A 
ATOM     24  C   UNL     1      -0.170  10.291  18.650  0.00  0.00    +0.000 A 
ATOM     25  C   UNL     1       0.499   9.696  19.725  0.00  0.00    +0.000 A 
ATOM     26  C   UNL     1       0.272  10.199  21.016  0.00  0.00    +0.000 A 
BRANCH  21  28
ATOM     27  C   UNL     1      -2.269  11.927  22.982  0.00  0.00    +0.000 C 
ATOM     28  C   UNL     1      -0.796  11.860  22.608  0.00  0.00    +0.000 C 
ENDBRANCH  21  28
ENDBRANCH  17  25
ENDBRANCH  16  18
ENDBRANCH   1  16
TORSDOF 7
ENDMDL
MODEL 6
REMARK VINA RESULT:      -8.0      4.838      7.027
REMARK  Name = 
REMARK  9 active torsions:
REMARK  status: ('A' for Active; 'I' for Inactive)
REMARK    1  A    between atoms: C_1  and  C_2
REMARK    2  A    between atoms: C_2  and  C_3
REMARK    3  A    between atoms: C_7  and  N_8
REMARK    4  A    between atoms: C_9  and  C_11
REMARK    5  A    between atoms: C_11  and  O_12
REMARK    6  A    between atoms: O_12  and  C_13
REMARK    7  A    between atoms: C_13  and  C_15
REMARK    8  A    between atoms: C_16  and  C_17
REMARK    9  A    between atoms: C_25  and  C_26
REMARK                            x       y       z     vdW  Elec       q    Type
REMARK                         _______ _______ _______ _____ _____    ______ ____
ROOT
ATOM      1  O   UNL     1       6.711   6.731  18.350  0.00  0.00    +0.000 OA
ENDROOT
BRANCH   1   2
ATOM      2  C   UNL     1       6.404   5.472  18.750  0.00  0.00    +0.000 C 
ATOM      3  O   UNL     1       6.735   5.008  19.834  0.00  0.00    +0.000 OA
BRANCH   2   4
ATOM      4  C   UNL     1       5.613   4.749  17.786  0.00  0.00    +0.000 A 
ATOM      5  C   UNL     1       4.398   4.030  18.006  0.00  0.00    +0.000 A 
ATOM      6  N   UNL     1       4.013   3.413  16.876  0.00  0.00    +0.000 NA
ATOM      7  O   UNL     1       4.927   3.760  15.909  0.00  0.00    +0.000 OA
ATOM      8  C   UNL     1       5.875   4.570  16.444  0.00  0.00    +0.000 A 
ATOM      9  C   UNL     1       6.936   5.012  15.517  0.00  0.00    +0.000 C 
BRANCH   5  10
ATOM     10  C   UNL     1       3.587   3.943  19.223  0.00  0.00    +0.000 A 
ATOM     11  C   UNL     1       2.761   5.007  19.617  0.00  0.00    +0.000 A 
ATOM     12  C   UNL     1       1.997   4.928  20.781  0.00  0.00    +0.000 A 
ATOM     13  C   UNL     1       2.027   3.769  21.551  0.00  0.00    +0.000 A 
ATOM     14  C   UNL     1       2.822   2.694  21.160  0.00  0.00    +0.000 A 
ATOM     15  C   UNL     1       3.602   2.779  20.003  0.00  0.00    +0.000 A 
ENDBRANCH   5  10
ENDBRANCH   2   4
ENDBRANCH   1   2
BRANCH   1  16
ATOM     16  C   UNL     1       8.105   7.055  18.362  0.00  0.00    +0.000 C 
BRANCH  16  18
ATOM     17  N   UNL     1       9.183   9.092  19.162  0.00  0.00    +0.000 N 
ATOM     18  C   UNL     1       8.228   8.561  18.307  0.00  0.00    +0.000 C 
ATOM     19  O   UNL     1       7.540   9.195  17.504  0.00  0.00    +0.000 OA
ATOM     20  H   UNL     1       9.780   8.443  19.668  0.00  0.00    +0.000 HD
BRANCH  17  25
ATOM     21  C   UNL     1      10.259  12.555  18.314  0.00  0.00    +0.000 A 
ATOM     22  C   UNL     1      10.069  13.204  19.540  0.00  0.00    +0.000 A 
ATOM     23  C   UNL     1       9.589  12.496  20.638  0.00  0.00    +0.000 A 
ATOM     24  C   UNL     1       9.297  11.141  20.524  0.00  0.00    +0.000 A 
ATOM     25  C   UNL     1       9.474  10.465  19.312  0.00  0.00    +0.000 A 
ATOM     26  C   UNL     1       9.976  11.180  18.213  0.00  0.00    +0.000 A 
BRANCH  21  28
ATOM     27  C   UNL     1      12.064  14.068  17.422  0.00  0.00    +0.000 C 
ATOM     28  C   UNL     1      10.769  13.328  17.123  0.00  0.00    +0.000 C 
ENDBRANCH  21  28
ENDBRANCH  17  25
ENDBRANCH  16  18
ENDBRANCH   1  16
TORSDOF 7
ENDMDL
MODEL 7
REMARK VINA RESULT:      -8.0      3.645      7.783
REMARK  Name = 
REMARK  9 active torsions:
REMARK  status: ('A' for Active; 'I' for Inactive)
REMARK    1  A    between atoms: C_1  and  C_2
REMARK    2  A    between atoms: C_2  and  C_3
REMARK    3  A    between atoms: C_7  and  N_8
REMARK    4  A    between atoms: C_9  and  C_11
REMARK    5  A    between atoms: C_11  and  O_12
REMARK    6  A    between atoms: O_12  and  C_13
REMARK    7  A    between atoms: C_13  and  C_15
REMARK    8  A    between atoms: C_16  and  C_17
REMARK    9  A    between atoms: C_25  and  C_26
REMARK                            x       y       z     vdW  Elec       q    Type
REMARK                         _______ _______ _______ _____ _____    ______ ____
ROOT
ATOM      1  O   UNL     1       3.345   6.892  17.419  0.00  0.00    +0.000 OA
ENDROOT
BRANCH   1   2
ATOM      2  C   UNL     1       4.514   6.313  17.047  0.00  0.00    +0.000 C 
ATOM      3  O   UNL     1       4.957   6.357  15.906  0.00  0.00    +0.000 OA
BRANCH   2   4
ATOM      4  C   UNL     1       5.203   5.677  18.141  0.00  0.00    +0.000 A 
ATOM      5  C   UNL     1       4.691   4.714  19.064  0.00  0.00    +0.000 A 
ATOM      6  N   UNL     1       5.615   4.427  19.997  0.00  0.00    +0.000 NA
ATOM      7  O   UNL     1       6.740   5.146  19.667  0.00  0.00    +0.000 OA
ATOM      8  C   UNL     1       6.505   5.881  18.551  0.00  0.00    +0.000 A 
ATOM      9  C   UNL     1       7.629   6.719  18.087  0.00  0.00    +0.000 C 
BRANCH   5  10
ATOM     10  C   UNL     1       3.389   4.043  19.066  0.00  0.00    +0.000 A 
ATOM     11  C   UNL     1       3.151   2.927  18.250  0.00  0.00    +0.000 A 
ATOM     12  C   UNL     1       1.907   2.295  18.244  0.00  0.00    +0.000 A 
ATOM     13  C   UNL     1       0.895   2.753  19.081  0.00  0.00    +0.000 A 
ATOM     14  C   UNL     1       1.123   3.845  19.917  0.00  0.00    +0.000 A 
ATOM     15  C   UNL     1       2.362   4.490  19.909  0.00  0.00    +0.000 A 
ENDBRANCH   5  10
ENDBRANCH   2   4
ENDBRANCH   1   2
BRANCH   1  16
ATOM     16  C   UNL     1       3.399   8.308  17.618  0.00  0.00    +0.000 C 
BRANCH  16  18
ATOM     17  N   UNL     1       1.451   9.772  17.740  0.00  0.00    +0.000 N 
ATOM     18  C   UNL     1       2.134   8.720  18.336  0.00  0.00    +0.000 C 
ATOM     19  O   UNL     1       1.773   8.092  19.334  0.00  0.00    +0.000 OA
ATOM     20  H   UNL     1       1.784  10.105  16.840  0.00  0.00    +0.000 HD
BRANCH  17  25
ATOM     21  C   UNL     1      -2.182  10.484  18.150  0.00  0.00    +0.000 A 
ATOM     22  C   UNL     1      -2.153  11.463  19.151  0.00  0.00    +0.000 A 
ATOM     23  C   UNL     1      -0.937  11.883  19.683  0.00  0.00    +0.000 A 
ATOM     24  C   UNL     1       0.255  11.334  19.222  0.00  0.00    +0.000 A 
ATOM     25  C   UNL     1       0.259  10.352  18.226  0.00  0.00    +0.000 A 
ATOM     26  C   UNL     1      -0.969   9.946  17.680  0.00  0.00    +0.000 A 
BRANCH  21  28
ATOM     27  C   UNL     1      -4.308  11.167  16.986  0.00  0.00    +0.000 C 
ATOM     28  C   UNL     1      -3.502  10.024  17.584  0.00  0.00    +0.000 C 
ENDBRANCH  21  28
ENDBRANCH  17  25
ENDBRANCH  16  18
ENDBRANCH   1  16
TORSDOF 7
ENDMDL
MODEL 8
REMARK VINA RESULT:      -7.9      3.037      7.915
REMARK  Name = 
REMARK  9 active torsions:
REMARK  status: ('A' for Active; 'I' for Inactive)
REMARK    1  A    between atoms: C_1  and  C_2
REMARK    2  A    between atoms: C_2  and  C_3
REMARK    3  A    between atoms: C_7  and  N_8
REMARK    4  A    between atoms: C_9  and  C_11
REMARK    5  A    between atoms: C_11  and  O_12
REMARK    6  A    between atoms: O_12  and  C_13
REMARK    7  A    between atoms: C_13  and  C_15
REMARK    8  A    between atoms: C_16  and  C_17
REMARK    9  A    between atoms: C_25  and  C_26
REMARK                            x       y       z     vdW  Elec       q    Type
REMARK                         _______ _______ _______ _____ _____    ______ ____
ROOT
ATOM      1  O   UNL     1       2.681   6.192  17.809  0.00  0.00    +0.000 OA
ENDROOT
BRANCH   1   2
ATOM      2  C   UNL     1       2.170   4.948  17.983  0.00  0.00    +0.000 C 
ATOM      3  O   UNL     1       1.162   4.545  17.416  0.00  0.00    +0.000 OA
BRANCH   2   4
ATOM      4  C   UNL     1       2.957   4.133  18.874  0.00  0.00    +0.000 A 
ATOM      5  C   UNL     1       4.303   3.686  18.702  0.00  0.00    +0.000 A 
ATOM      6  N   UNL     1       4.654   2.869  19.709  0.00  0.00    +0.000 NA
ATOM      7  O   UNL     1       3.578   2.817  20.564  0.00  0.00    +0.000 OA
ATOM      8  C   UNL     1       2.568   3.583  20.078  0.00  0.00    +0.000 A 
ATOM      9  C   UNL     1       1.336   3.609  20.892  0.00  0.00    +0.000 C 
BRANCH   5  10
ATOM     10  C   UNL     1       5.260   4.034  17.649  0.00  0.00    +0.000 A 
ATOM     11  C   UNL     1       4.974   3.780  16.299  0.00  0.00    +0.000 A 
ATOM     12  C   UNL     1       5.891   4.102  15.299  0.00  0.00    +0.000 A 
ATOM     13  C   UNL     1       7.095   4.712  15.635  0.00  0.00    +0.000 A 
ATOM     14  C   UNL     1       7.385   4.995  16.968  0.00  0.00    +0.000 A 
ATOM     15  C   UNL     1       6.474   4.655  17.973  0.00  0.00    +0.000 A 
ENDBRANCH   5  10
ENDBRANCH   2   4
ENDBRANCH   1   2
BRANCH   1  16
ATOM     16  C   UNL     1       2.491   7.091  18.905  0.00  0.00    +0.000 C 
BRANCH  16  18
ATOM     17  N   UNL     1       1.155   9.110  19.217  0.00  0.00    +0.000 N 
ATOM     18  C   UNL     1       1.965   8.394  18.346  0.00  0.00    +0.000 C 
ATOM     19  O   UNL     1       2.314   8.753  17.219  0.00  0.00    +0.000 OA
ATOM     20  H   UNL     1       1.064   8.767  20.169  0.00  0.00    +0.000 HD
BRANCH  17  25
ATOM     21  C   UNL     1       0.644  12.782  18.872  0.00  0.00    +0.000 A 
ATOM     22  C   UNL     1      -0.660  12.827  18.364  0.00  0.00    +0.000 A 
ATOM     23  C   UNL     1      -1.362  11.645  18.139  0.00  0.00    +0.000 A 
ATOM     24  C   UNL     1      -0.774  10.417  18.419  0.00  0.00    +0.000 A 
ATOM     25  C   UNL     1       0.528  10.340  18.926  0.00  0.00    +0.000 A 
ATOM     26  C   UNL     1       1.225  11.535  19.168  0.00  0.00    +0.000 A 
BRANCH  21  28
ATOM     27  C   UNL     1       2.886  13.821  19.358  0.00  0.00    +0.000 C 
ATOM     28  C   UNL     1       1.406  14.064  19.105  0.00  0.00    +0.000 C 
ENDBRANCH  21  28
ENDBRANCH  17  25
ENDBRANCH  16  18
ENDBRANCH   1  16
TORSDOF 7
ENDMDL
MODEL 9
REMARK VINA RESULT:      -7.9      2.902      7.806
REMARK  Name = 
REMARK  9 active torsions:
REMARK  status: ('A' for Active; 'I' for Inactive)
REMARK    1  A    between atoms: C_1  and  C_2
REMARK    2  A    between atoms: C_2  and  C_3
REMARK    3  A    between atoms: C_7  and  N_8
REMARK    4  A    between atoms: C_9  and  C_11
REMARK    5  A    between atoms: C_11  and  O_12
REMARK    6  A    between atoms: O_12  and  C_13
REMARK    7  A    between atoms: C_13  and  C_15
REMARK    8  A    between atoms: C_16  and  C_17
REMARK    9  A    between atoms: C_25  and  C_26
REMARK                            x       y       z     vdW  Elec       q    Type
REMARK                         _______ _______ _______ _____ _____    ______ ____
ROOT
ATOM      1  O   UNL     1       2.488   5.995  18.093  0.00  0.00    +0.000 OA
ENDROOT
BRANCH   1   2
ATOM      2  C   UNL     1       2.095   4.698  18.140  0.00  0.00    +0.000 C 
ATOM      3  O   UNL     1       1.155   4.253  17.494  0.00  0.00    +0.000 OA
BRANCH   2   4
ATOM      4  C   UNL     1       2.924   3.886  18.996  0.00  0.00    +0.000 A 
ATOM      5  C   UNL     1       4.291   3.519  18.807  0.00  0.00    +0.000 A 
ATOM      6  N   UNL     1       4.684   2.677  19.778  0.00  0.00    +0.000 NA
ATOM      7  O   UNL     1       3.612   2.531  20.627  0.00  0.00    +0.000 OA
ATOM      8  C   UNL     1       2.564   3.263  20.173  0.00  0.00    +0.000 A 
ATOM      9  C   UNL     1       1.332   3.189  20.984  0.00  0.00    +0.000 C 
BRANCH   5  10
ATOM     10  C   UNL     1       5.230   3.964  17.774  0.00  0.00    +0.000 A 
ATOM     11  C   UNL     1       6.381   4.693  18.110  0.00  0.00    +0.000 A 
ATOM     12  C   UNL     1       7.268   5.126  17.125  0.00  0.00    +0.000 A 
ATOM     13  C   UNL     1       7.031   4.806  15.791  0.00  0.00    +0.000 A 
ATOM     14  C   UNL     1       5.906   4.061  15.443  0.00  0.00    +0.000 A 
ATOM     15  C   UNL     1       5.007   3.643  16.428  0.00  0.00    +0.000 A 
ENDBRANCH   5  10
ENDBRANCH   2   4
ENDBRANCH   1   2
BRANCH   1  16
ATOM     16  C   UNL     1       2.985   6.529  19.324  0.00  0.00    +0.000 C 
BRANCH  16  18
ATOM     17  N   UNL     1       1.745   8.625  19.162  0.00  0.00    +0.000 N 
ATOM     18  C   UNL     1       1.928   7.454  19.884  0.00  0.00    +0.000 C 
ATOM     19  O   UNL     1       1.283   7.104  20.876  0.00  0.00    +0.000 OA
ATOM     20  H   UNL     1       2.244   8.722  18.282  0.00  0.00    +0.000 HD
BRANCH  17  25
ATOM     21  C   UNL     1      -1.027  11.087  18.816  0.00  0.00    +0.000 A 
ATOM     22  C   UNL     1      -1.006  11.696  20.076  0.00  0.00    +0.000 A 
ATOM     23  C   UNL     1      -0.077  11.291  21.032  0.00  0.00    +0.000 A 
ATOM     24  C   UNL     1       0.834  10.283  20.739  0.00  0.00    +0.000 A 
ATOM     25  C   UNL     1       0.837   9.654  19.489  0.00  0.00    +0.000 A 
ATOM     26  C   UNL     1      -0.090  10.079  18.523  0.00  0.00    +0.000 A 
BRANCH  21  28
ATOM     27  C   UNL     1      -3.455  11.567  18.348  0.00  0.00    +0.000 C 
ATOM     28  C   UNL     1      -2.041  11.521  17.786  0.00  0.00    +0.000 C 
ENDBRANCH  21  28
ENDBRANCH  17  25
ENDBRANCH  16  18
ENDBRANCH   1  16
TORSDOF 7
ENDMDL
