MODEL 1
REMARK VINA RESULT:      -8.5      0.000      0.000
REMARK  Name = 
REMARK  11 active torsions:
REMARK  status: ('A' for Active; 'I' for Inactive)
REMARK    1  A    between atoms: C_1  and  C_2
REMARK    2  A    between atoms: C_2  and  C_3
REMARK    3  A    between atoms: C_6  and  N_7
REMARK    4  A    between atoms: N_7  and  C_8
REMARK    5  A    between atoms: C_8  and  C_9
REMARK    6  A    between atoms: C_14  and  O_15
REMARK    7  A    between atoms: O_15  and  C_16
REMARK    8  A    between atoms: N_19  and  C_20
REMARK    9  A    between atoms: C_20  and  C_21
REMARK   10  A    between atoms: N_23  and  C_24
REMARK   11  A    between atoms: C_27  and  C_28
REMARK                            x       y       z     vdW  Elec       q    Type
REMARK                         _______ _______ _______ _____ _____    ______ ____
ROOT
ATOM      1  C   UNL     1       5.775   4.759  16.908  0.00  0.00    +0.000 A 
ATOM      2  C   UNL     1       4.950   3.710  16.743  0.00  0.00    +0.000 A 
ATOM      3  C   UNL     1       3.942   3.435  17.769  0.00  0.00    +0.000 A 
ATOM      4  C   UNL     1       3.283   2.213  17.838  0.00  0.00    +0.000 A 
ATOM      5  C   UNL     1       2.280   2.027  18.790  0.00  0.00    +0.000 A 
ATOM      6  C   UNL     1       1.904   3.057  19.663  0.00  0.00    +0.000 A 
ATOM      7  C   UNL     1       2.529   4.305  19.569  0.00  0.00    +0.000 A 
ATOM      8  C   UNL     1       3.556   4.484  18.630  0.00  0.00    +0.000 A 
ATOM      9  N   UNL     1       4.301   5.714  18.577  0.00  0.00    +0.000 N 
ATOM     10  C   UNL     1       5.638   5.561  18.165  0.00  0.00    +0.000 A 
ATOM     11  O   UNL     1       6.545   6.246  18.622  0.00  0.00    +0.000 OA
ENDROOT
BRANCH   6  12
ATOM     12  O   UNL     1       0.938   2.681  20.554  0.00  0.00    +0.000 OA
ATOM     13  C   UNL     1       1.314   2.469  21.905  0.00  0.00    +0.000 C 
ENDBRANCH   6  12
BRANCH   1  14
ATOM     14  C   UNL     1       6.555   5.422  15.822  0.00  0.00    +0.000 C 
BRANCH  14  15
ATOM     15  N   UNL     1       5.771   5.606  14.614  0.00  0.00    +0.000 N 
ATOM     16  H   UNL     1       5.789   6.559  14.266  0.00  0.00    +0.000 HD
BRANCH  15  20
ATOM     17  C   UNL     1       6.505   2.648  11.666  0.00  0.00    +0.000 A 
ATOM     18  C   UNL     1       7.527   3.516  12.049  0.00  0.00    +0.000 A 
ATOM     19  C   UNL     1       7.295   4.499  13.011  0.00  0.00    +0.000 A 
ATOM     20  C   UNL     1       6.027   4.670  13.592  0.00  0.00    +0.000 A 
ATOM     21  C   UNL     1       5.016   3.776  13.222  0.00  0.00    +0.000 A 
ATOM     22  C   UNL     1       5.245   2.787  12.259  0.00  0.00    +0.000 A 
BRANCH  17  24
ATOM     23  C   UNL     1       6.126   0.236  11.194  0.00  0.00    +0.000 C 
ATOM     24  C   UNL     1       6.792   1.516  10.718  0.00  0.00    +0.000 C 
ENDBRANCH  17  24
ENDBRANCH  15  20
ENDBRANCH  14  15
ENDBRANCH   1  14
BRANCH   9  25
ATOM     25  C   UNL     1       3.676   6.745  17.732  0.00  0.00    +0.000 C 
BRANCH  25  26
ATOM     26  C   UNL     1       2.735   7.713  18.400  0.00  0.00    +0.000 C 
ATOM     27  O   UNL     1       2.364   7.488  19.551  0.00  0.00    +0.000 OA
ATOM     28  N   UNL     1       2.233   8.688  17.563  0.00  0.00    +0.000 N 
ATOM     29  H   UNL     1       2.447   8.595  16.569  0.00  0.00    +0.000 HD
BRANCH  28  30
ATOM     30  C   UNL     1       1.426   9.766  17.965  0.00  0.00    +0.000 A 
ATOM     31  C   UNL     1       0.041   9.651  18.088  0.00  0.00    +0.000 A 
ATOM     32  C   UNL     1      -0.720  10.704  18.590  0.00  0.00    +0.000 A 
ATOM     33  C   UNL     1      -0.111  11.904  18.973  0.00  0.00    +0.000 A 
ATOM     34  C   UNL     1      -0.956  12.977  19.591  0.00  0.00    +0.000 C 
ATOM     35  C   UNL     1       1.273  12.036  18.791  0.00  0.00    +0.000 A 
ATOM     36 CL   UNL     1       2.086  13.511  19.177  0.00  0.00    +0.000 Cl
ATOM     37  C   UNL     1       2.039  10.973  18.302  0.00  0.00    +0.000 A 
ENDBRANCH  28  30
ENDBRANCH  25  26
ENDBRANCH   9  25
TORSDOF 8
ENDMDL
MODEL 2
REMARK VINA RESULT:      -8.4      4.075      5.417
REMARK  Name = 
REMARK  11 active torsions:
REMARK  status: ('A' for Active; 'I' for Inactive)
REMARK    1  A    between atoms: C_1  and  C_2
REMARK    2  A    between atoms: C_2  and  C_3
REMARK    3  A    between atoms: C_6  and  N_7
REMARK    4  A    between atoms: N_7  and  C_8
REMARK    5  A    between atoms: C_8  and  C_9
REMARK    6  A    between atoms: C_14  and  O_15
REMARK    7  A    between atoms: O_15  and  C_16
REMARK    8  A    between atoms: N_19  and  C_20
REMARK    9  A    between atoms: C_20  and  C_21
REMARK   10  A    between atoms: N_23  and  C_24
REMARK   11  A    between atoms: C_27  and  C_28
REMARK                            x       y       z     vdW  Elec       q    Type
REMARK                         _______ _______ _______ _____ _____    ______ ____
ROOT
ATOM      1  C   UNL     1       6.266   4.455  15.682  0.00  0.00    +0.000 A 
ATOM      2  C   UNL     1       4.925   4.447  15.769  0.00  0.00    +0.000 A 
ATOM      3  C   UNL     1       4.301   4.617  17.084  0.00  0.00    +0.000 A 
ATOM      4  C   UNL     1       2.965   4.303  17.306  0.00  0.00    +0.000 A 
ATOM      5  C   UNL     1       2.401   4.551  18.557  0.00  0.00    +0.000 A 
ATOM      6  C   UNL     1       3.146   5.135  19.590  0.00  0.00    +0.000 A 
ATOM      7  C   UNL     1       4.478   5.498  19.361  0.00  0.00    +0.000 A 
ATOM      8  C   UNL     1       5.054   5.225  18.111  0.00  0.00    +0.000 A 
ATOM      9  N   UNL     1       6.449   5.478  17.870  0.00  0.00    +0.000 N 
ATOM     10  C   UNL     1       7.046   4.594  16.953  0.00  0.00    +0.000 A 
ATOM     11  O   UNL     1       8.205   4.215  17.069  0.00  0.00    +0.000 OA
ENDROOT
BRANCH   6  12
ATOM     12  O   UNL     1       2.444   5.262  20.756  0.00  0.00    +0.000 OA
ATOM     13  C   UNL     1       2.230   4.101  21.543  0.00  0.00    +0.000 C 
ENDBRANCH   6  12
BRANCH   1  14
ATOM     14  C   UNL     1       7.048   4.705  14.435  0.00  0.00    +0.000 C 
BRANCH  14  15
ATOM     15  N   UNL     1       7.153   3.519  13.604  0.00  0.00    +0.000 N 
ATOM     16  H   UNL     1       7.264   2.664  14.138  0.00  0.00    +0.000 HD
BRANCH  15  20
ATOM     17  C   UNL     1       4.009   3.173  10.780  0.00  0.00    +0.000 A 
ATOM     18  C   UNL     1       4.847   2.085  11.023  0.00  0.00    +0.000 A 
ATOM     19  C   UNL     1       5.891   2.191  11.943  0.00  0.00    +0.000 A 
ATOM     20  C   UNL     1       6.152   3.394  12.619  0.00  0.00    +0.000 A 
ATOM     21  C   UNL     1       5.288   4.470  12.389  0.00  0.00    +0.000 A 
ATOM     22  C   UNL     1       4.239   4.369  11.469  0.00  0.00    +0.000 A 
BRANCH  17  24
ATOM     23  C   UNL     1       2.407   4.361   9.295  0.00  0.00    +0.000 C 
ATOM     24  C   UNL     1       2.816   3.019   9.878  0.00  0.00    +0.000 C 
ENDBRANCH  17  24
ENDBRANCH  15  20
ENDBRANCH  14  15
ENDBRANCH   1  14
BRANCH   9  25
ATOM     25  C   UNL     1       6.731   6.854  17.430  0.00  0.00    +0.000 C 
BRANCH  25  26
ATOM     26  C   UNL     1       7.793   7.619  18.177  0.00  0.00    +0.000 C 
ATOM     27  O   UNL     1       8.487   7.025  19.002  0.00  0.00    +0.000 OA
ATOM     28  N   UNL     1       7.756   8.983  17.980  0.00  0.00    +0.000 N 
ATOM     29  H   UNL     1       6.962   9.351  17.455  0.00  0.00    +0.000 HD
BRANCH  28  30
ATOM     30  C   UNL     1       8.698   9.900  18.476  0.00  0.00    +0.000 A 
ATOM     31  C   UNL     1       9.051   9.947  19.824  0.00  0.00    +0.000 A 
ATOM     32  C   UNL     1      10.064  10.794  20.268  0.00  0.00    +0.000 A 
ATOM     33  C   UNL     1      10.744  11.623  19.369  0.00  0.00    +0.000 A 
ATOM     34  C   UNL     1      11.886  12.451  19.873  0.00  0.00    +0.000 C 
ATOM     35  C   UNL     1      10.345  11.617  18.025  0.00  0.00    +0.000 A 
ATOM     36 CL   UNL     1      11.090  12.662  16.868  0.00  0.00    +0.000 Cl
ATOM     37  C   UNL     1       9.338  10.755  17.576  0.00  0.00    +0.000 A 
ENDBRANCH  28  30
ENDBRANCH  25  26
ENDBRANCH   9  25
TORSDOF 8
ENDMDL
MODEL 3
REMARK VINA RESULT:      -8.4      1.034      1.311
REMARK  Name = 
REMARK  11 active torsions:
REMARK  status: ('A' for Active; 'I' for Inactive)
REMARK    1  A    between atoms: C_1  and  C_2
REMARK    2  A    between atoms: C_2  and  C_3
REMARK    3  A    between atoms: C_6  and  N_7
REMARK    4  A    between atoms: N_7  and  C_8
REMARK    5  A    between atoms: C_8  and  C_9
REMARK    6  A    between atoms: C_14  and  O_15
REMARK    7  A    between atoms: O_15  and  C_16
REMARK    8  A    between atoms: N_19  and  C_20
REMARK    9  A    between atoms: C_20  and  C_21
REMARK   10  A    between atoms: N_23  and  C_24
REMARK   11  A    between atoms: C_27  and  C_28
REMARK                            x       y       z     vdW  Elec       q    Type
REMARK                         _______ _______ _______ _____ _____    ______ ____
ROOT
ATOM      1  C   UNL     1       5.718   4.715  16.821  0.00  0.00    +0.000 A 
ATOM      2  C   UNL     1       4.852   3.698  16.667  0.00  0.00    +0.000 A 
ATOM      3  C   UNL     1       3.868   3.440  17.721  0.00  0.00    +0.000 A 
ATOM      4  C   UNL     1       3.170   2.241  17.792  0.00  0.00    +0.000 A 
ATOM      5  C   UNL     1       2.192   2.073  18.773  0.00  0.00    +0.000 A 
ATOM      6  C   UNL     1       1.881   3.099  19.675  0.00  0.00    +0.000 A 
ATOM      7  C   UNL     1       2.547   4.327  19.581  0.00  0.00    +0.000 A 
ATOM      8  C   UNL     1       3.548   4.487  18.611  0.00  0.00    +0.000 A 
ATOM      9  N   UNL     1       4.334   5.691  18.554  0.00  0.00    +0.000 N 
ATOM     10  C   UNL     1       5.650   5.499  18.095  0.00  0.00    +0.000 A 
ATOM     11  O   UNL     1       6.595   6.144  18.533  0.00  0.00    +0.000 OA
ENDROOT
BRANCH   6  12
ATOM     12  O   UNL     1       0.933   2.742  20.591  0.00  0.00    +0.000 OA
ATOM     13  C   UNL     1       1.346   2.486  21.924  0.00  0.00    +0.000 C 
ENDBRANCH   6  12
BRANCH   1  14
ATOM     14  C   UNL     1       6.485   5.370  15.721  0.00  0.00    +0.000 C 
BRANCH  14  15
ATOM     15  N   UNL     1       5.686   5.546  14.522  0.00  0.00    +0.000 N 
ATOM     16  H   UNL     1       5.704   6.495  14.164  0.00  0.00    +0.000 HD
BRANCH  15  20
ATOM     17  C   UNL     1       6.331   2.559  11.583  0.00  0.00    +0.000 A 
ATOM     18  C   UNL     1       7.415   3.260  12.109  0.00  0.00    +0.000 A 
ATOM     19  C   UNL     1       7.214   4.252  13.070  0.00  0.00    +0.000 A 
ATOM     20  C   UNL     1       5.924   4.599  13.506  0.00  0.00    +0.000 A 
ATOM     21  C   UNL     1       4.846   3.869  12.993  0.00  0.00    +0.000 A 
ATOM     22  C   UNL     1       5.043   2.872  12.030  0.00  0.00    +0.000 A 
BRANCH  17  24
ATOM     23  C   UNL     1       6.256   0.087  11.316  0.00  0.00    +0.000 C 
ATOM     24  C   UNL     1       6.562   1.412  10.637  0.00  0.00    +0.000 C 
ENDBRANCH  17  24
ENDBRANCH  15  20
ENDBRANCH  14  15
ENDBRANCH   1  14
BRANCH   9  25
ATOM     25  C   UNL     1       3.719   6.758  17.747  0.00  0.00    +0.000 C 
BRANCH  25  26
ATOM     26  C   UNL     1       2.762   7.690  18.444  0.00  0.00    +0.000 C 
ATOM     27  O   UNL     1       2.506   7.505  19.633  0.00  0.00    +0.000 OA
ATOM     28  N   UNL     1       2.118   8.575  17.604  0.00  0.00    +0.000 N 
ATOM     29  H   UNL     1       2.256   8.441  16.602  0.00  0.00    +0.000 HD
BRANCH  28  30
ATOM     30  C   UNL     1       1.264   9.611  18.019  0.00  0.00    +0.000 A 
ATOM     31  C   UNL     1       1.750  10.813  18.534  0.00  0.00    +0.000 A 
ATOM     32  C   UNL     1       0.884  11.862  18.836  0.00  0.00    +0.000 A 
ATOM     33  C   UNL     1      -0.495  11.727  18.637  0.00  0.00    +0.000 A 
ATOM     34  C   UNL     1      -1.379  12.910  18.890  0.00  0.00    +0.000 C 
ATOM     35  C   UNL     1      -0.984  10.496  18.176  0.00  0.00    +0.000 A 
ATOM     36 CL   UNL     1      -2.679  10.231  17.969  0.00  0.00    +0.000 Cl
ATOM     37  C   UNL     1      -0.113   9.449  17.857  0.00  0.00    +0.000 A 
ENDBRANCH  28  30
ENDBRANCH  25  26
ENDBRANCH   9  25
TORSDOF 8
ENDMDL
MODEL 4
REMARK VINA RESULT:      -8.4      5.200      9.364
REMARK  Name = 
REMARK  11 active torsions:
REMARK  status: ('A' for Active; 'I' for Inactive)
REMARK    1  A    between atoms: C_1  and  C_2
REMARK    2  A    between atoms: C_2  and  C_3
REMARK    3  A    between atoms: C_6  and  N_7
REMARK    4  A    between atoms: N_7  and  C_8
REMARK    5  A    between atoms: C_8  and  C_9
REMARK    6  A    between atoms: C_14  and  O_15
REMARK    7  A    between atoms: O_15  and  C_16
REMARK    8  A    between atoms: N_19  and  C_20
REMARK    9  A    between atoms: C_20  and  C_21
REMARK   10  A    between atoms: N_23  and  C_24
REMARK   11  A    between atoms: C_27  and  C_28
REMARK                            x       y       z     vdW  Elec       q    Type
REMARK                         _______ _______ _______ _____ _____    ______ ____
ROOT
ATOM      1  C   UNL     1       0.791  11.167  18.986  0.00  0.00    +0.000 A 
ATOM      2  C   UNL     1       0.948  10.113  18.166  0.00  0.00    +0.000 A 
ATOM      3  C   UNL     1       1.535   8.882  18.702  0.00  0.00    +0.000 A 
ATOM      4  C   UNL     1       2.023   7.882  17.870  0.00  0.00    +0.000 A 
ATOM      5  C   UNL     1       2.507   6.699  18.428  0.00  0.00    +0.000 A 
ATOM      6  C   UNL     1       2.487   6.486  19.814  0.00  0.00    +0.000 A 
ATOM      7  C   UNL     1       1.954   7.468  20.656  0.00  0.00    +0.000 A 
ATOM      8  C   UNL     1       1.492   8.669  20.096  0.00  0.00    +0.000 A 
ATOM      9  N   UNL     1       1.042   9.749  20.934  0.00  0.00    +0.000 N 
ATOM     10  C   UNL     1       1.271  11.029  20.398  0.00  0.00    +0.000 A 
ATOM     11  O   UNL     1       1.563  11.989  21.100  0.00  0.00    +0.000 OA
ENDROOT
BRANCH   6  12
ATOM     12  O   UNL     1       3.039   5.292  20.183  0.00  0.00    +0.000 OA
ATOM     13  C   UNL     1       2.252   4.391  20.944  0.00  0.00    +0.000 C 
ENDBRANCH   6  12
BRANCH   1  14
ATOM     14  C   UNL     1      -0.131  12.316  18.746  0.00  0.00    +0.000 C 
BRANCH  14  15
ATOM     15  N   UNL     1      -0.926  12.142  17.544  0.00  0.00    +0.000 N 
ATOM     16  H   UNL     1      -0.499  11.518  16.868  0.00  0.00    +0.000 HD
BRANCH  15  20
ATOM     17  C   UNL     1      -5.048  11.304  18.077  0.00  0.00    +0.000 A 
ATOM     18  C   UNL     1      -4.317  11.882  19.114  0.00  0.00    +0.000 A 
ATOM     19  C   UNL     1      -2.958  12.154  18.954  0.00  0.00    +0.000 A 
ATOM     20  C   UNL     1      -2.281  11.822  17.769  0.00  0.00    +0.000 A 
ATOM     21  C   UNL     1      -3.029  11.269  16.725  0.00  0.00    +0.000 A 
ATOM     22  C   UNL     1      -4.393  10.996  16.880  0.00  0.00    +0.000 A 
BRANCH  17  24
ATOM     23  C   UNL     1      -7.262  12.428  17.936  0.00  0.00    +0.000 C 
ATOM     24  C   UNL     1      -6.535  11.123  18.212  0.00  0.00    +0.000 C 
ENDBRANCH  17  24
ENDBRANCH  15  20
ENDBRANCH  14  15
ENDBRANCH   1  14
BRANCH   9  25
ATOM     25  C   UNL     1      -0.380   9.654  21.303  0.00  0.00    +0.000 C 
BRANCH  25  26
ATOM     26  C   UNL     1      -0.871  10.551  22.410  0.00  0.00    +0.000 C 
ATOM     27  O   UNL     1      -0.683  10.214  23.579  0.00  0.00    +0.000 OA
ATOM     28  N   UNL     1      -1.658  11.600  21.986  0.00  0.00    +0.000 N 
ATOM     29  H   UNL     1      -1.927  11.605  21.001  0.00  0.00    +0.000 HD
BRANCH  28  30
ATOM     30  C   UNL     1      -2.147  12.632  22.805  0.00  0.00    +0.000 A 
ATOM     31  C   UNL     1      -1.301  13.550  23.428  0.00  0.00    +0.000 A 
ATOM     32  C   UNL     1      -1.820  14.624  24.147  0.00  0.00    +0.000 A 
ATOM     33  C   UNL     1      -3.203  14.799  24.268  0.00  0.00    +0.000 A 
ATOM     34  C   UNL     1      -3.717  16.017  24.974  0.00  0.00    +0.000 C 
ATOM     35  C   UNL     1      -4.049  13.841  23.691  0.00  0.00    +0.000 A 
ATOM     36 CL   UNL     1      -5.765  13.952  23.854  0.00  0.00    +0.000 Cl
ATOM     37  C   UNL     1      -3.528  12.771  22.955  0.00  0.00    +0.000 A 
ENDBRANCH  28  30
ENDBRANCH  25  26
ENDBRANCH   9  25
TORSDOF 8
ENDMDL
MODEL 5
REMARK VINA RESULT:      -8.2      1.614      1.725
REMARK  Name = 
REMARK  11 active torsions:
REMARK  status: ('A' for Active; 'I' for Inactive)
REMARK    1  A    between atoms: C_1  and  C_2
REMARK    2  A    between atoms: C_2  and  C_3
REMARK    3  A    between atoms: C_6  and  N_7
REMARK    4  A    between atoms: N_7  and  C_8
REMARK    5  A    between atoms: C_8  and  C_9
REMARK    6  A    between atoms: C_14  and  O_15
REMARK    7  A    between atoms: O_15  and  C_16
REMARK    8  A    between atoms: N_19  and  C_20
REMARK    9  A    between atoms: C_20  and  C_21
REMARK   10  A    between atoms: N_23  and  C_24
REMARK   11  A    between atoms: C_27  and  C_28
REMARK                            x       y       z     vdW  Elec       q    Type
REMARK                         _______ _______ _______ _____ _____    ______ ____
ROOT
ATOM      1  C   UNL     1       5.923   4.798  16.997  0.00  0.00    +0.000 A 
ATOM      2  C   UNL     1       5.225   3.659  16.839  0.00  0.00    +0.000 A 
ATOM      3  C   UNL     1       4.211   3.308  17.835  0.00  0.00    +0.000 A 
ATOM      4  C   UNL     1       3.687   2.023  17.923  0.00  0.00    +0.000 A 
ATOM      5  C   UNL     1       2.672   1.758  18.842  0.00  0.00    +0.000 A 
ATOM      6  C   UNL     1       2.149   2.767  19.663  0.00  0.00    +0.000 A 
ATOM      7  C   UNL     1       2.638   4.073  19.548  0.00  0.00    +0.000 A 
ATOM      8  C   UNL     1       3.677   4.335  18.642  0.00  0.00    +0.000 A 
ATOM      9  N   UNL     1       4.285   5.637  18.573  0.00  0.00    +0.000 N 
ATOM     10  C   UNL     1       5.647   5.620  18.218  0.00  0.00    +0.000 A 
ATOM     11  O   UNL     1       6.453   6.415  18.684  0.00  0.00    +0.000 OA
ENDROOT
BRANCH   6  12
ATOM     12  O   UNL     1       1.194   2.315  20.530  0.00  0.00    +0.000 OA
ATOM     13  C   UNL     1       1.206   2.805  21.861  0.00  0.00    +0.000 C 
ENDBRANCH   6  12
BRANCH   1  14
ATOM     14  C   UNL     1       6.671   5.509  15.918  0.00  0.00    +0.000 C 
BRANCH  14  15
ATOM     15  N   UNL     1       5.863   5.707  14.728  0.00  0.00    +0.000 N 
ATOM     16  H   UNL     1       5.866   6.666  14.397  0.00  0.00    +0.000 HD
BRANCH  15  20
ATOM     17  C   UNL     1       6.588   2.812  11.717  0.00  0.00    +0.000 A 
ATOM     18  C   UNL     1       7.571   3.749  12.029  0.00  0.00    +0.000 A 
ATOM     19  C   UNL     1       7.340   4.713  13.012  0.00  0.00    +0.000 A 
ATOM     20  C   UNL     1       6.109   4.793  13.684  0.00  0.00    +0.000 A 
ATOM     21  C   UNL     1       5.140   3.830  13.383  0.00  0.00    +0.000 A 
ATOM     22  C   UNL     1       5.367   2.860  12.400  0.00  0.00    +0.000 A 
BRANCH  17  24
ATOM     23  C   UNL     1       6.170   0.426  11.151  0.00  0.00    +0.000 C 
ATOM     24  C   UNL     1       6.884   1.704  10.743  0.00  0.00    +0.000 C 
ENDBRANCH  17  24
ENDBRANCH  15  20
ENDBRANCH  14  15
ENDBRANCH   1  14
BRANCH   9  25
ATOM     25  C   UNL     1       3.587   6.565  17.668  0.00  0.00    +0.000 C 
BRANCH  25  26
ATOM     26  C   UNL     1       2.851   7.722  18.293  0.00  0.00    +0.000 C 
ATOM     27  O   UNL     1       2.911   8.827  17.757  0.00  0.00    +0.000 OA
ATOM     28  N   UNL     1       2.316   7.451  19.535  0.00  0.00    +0.000 N 
ATOM     29  H   UNL     1       2.562   6.555  19.957  0.00  0.00    +0.000 HD
BRANCH  28  30
ATOM     30  C   UNL     1       1.497   8.322  20.274  0.00  0.00    +0.000 A 
ATOM     31  C   UNL     1       1.461   8.304  21.668  0.00  0.00    +0.000 A 
ATOM     32  C   UNL     1       0.722   9.250  22.375  0.00  0.00    +0.000 A 
ATOM     33  C   UNL     1      -0.008  10.234  21.699  0.00  0.00    +0.000 A 
ATOM     34  C   UNL     1      -0.716  11.285  22.499  0.00  0.00    +0.000 C 
ATOM     35  C   UNL     1      -0.017  10.211  20.297  0.00  0.00    +0.000 A 
ATOM     36 CL   UNL     1      -0.949  11.351  19.392  0.00  0.00    +0.000 Cl
ATOM     37  C   UNL     1       0.738   9.271  19.587  0.00  0.00    +0.000 A 
ENDBRANCH  28  30
ENDBRANCH  25  26
ENDBRANCH   9  25
TORSDOF 8
ENDMDL
MODEL 6
REMARK VINA RESULT:      -8.2      3.848      6.823
REMARK  Name = 
REMARK  11 active torsions:
REMARK  status: ('A' for Active; 'I' for Inactive)
REMARK    1  A    between atoms: C_1  and  C_2
REMARK    2  A    between atoms: C_2  and  C_3
REMARK    3  A    between atoms: C_6  and  N_7
REMARK    4  A    between atoms: N_7  and  C_8
REMARK    5  A    between atoms: C_8  and  C_9
REMARK    6  A    between atoms: C_14  and  O_15
REMARK    7  A    between atoms: O_15  and  C_16
REMARK    8  A    between atoms: N_19  and  C_20
REMARK    9  A    between atoms: C_20  and  C_21
REMARK   10  A    between atoms: N_23  and  C_24
REMARK   11  A    between atoms: C_27  and  C_28
REMARK                            x       y       z     vdW  Elec       q    Type
REMARK                         _______ _______ _______ _____ _____    ______ ____
ROOT
ATOM      1  C   UNL     1       1.695   8.581  19.235  0.00  0.00    +0.000 A 
ATOM      2  C   UNL     1       1.173   8.256  20.431  0.00  0.00    +0.000 A 
ATOM      3  C   UNL     1       0.493   9.293  21.211  0.00  0.00    +0.000 A 
ATOM      4  C   UNL     1       0.218   9.128  22.563  0.00  0.00    +0.000 A 
ATOM      5  C   UNL     1      -0.495  10.115  23.244  0.00  0.00    +0.000 A 
ATOM      6  C   UNL     1      -0.964  11.260  22.585  0.00  0.00    +0.000 A 
ATOM      7  C   UNL     1      -0.733  11.412  21.214  0.00  0.00    +0.000 A 
ATOM      8  C   UNL     1       0.006  10.432  20.535  0.00  0.00    +0.000 A 
ATOM      9  N   UNL     1       0.363  10.603  19.151  0.00  0.00    +0.000 N 
ATOM     10  C   UNL     1       1.587  10.007  18.793  0.00  0.00    +0.000 A 
ATOM     11  O   UNL     1       2.342  10.510  17.970  0.00  0.00    +0.000 OA
ENDROOT
BRANCH   6  12
ATOM     12  O   UNL     1      -1.601  12.136  23.418  0.00  0.00    +0.000 OA
ATOM     13  C   UNL     1      -2.379  13.172  22.839  0.00  0.00    +0.000 C 
ENDBRANCH   6  12
BRANCH   1  14
ATOM     14  C   UNL     1       2.042   7.613  18.153  0.00  0.00    +0.000 C 
BRANCH  14  15
ATOM     15  N   UNL     1       2.831   6.498  18.645  0.00  0.00    +0.000 N 
ATOM     16  H   UNL     1       2.266   5.735  19.003  0.00  0.00    +0.000 HD
BRANCH  15  20
ATOM     17  C   UNL     1       5.768   5.250  15.853  0.00  0.00    +0.000 A 
ATOM     18  C   UNL     1       4.785   4.355  16.274  0.00  0.00    +0.000 A 
ATOM     19  C   UNL     1       3.819   4.752  17.199  0.00  0.00    +0.000 A 
ATOM     20  C   UNL     1       3.828   6.039  17.760  0.00  0.00    +0.000 A 
ATOM     21  C   UNL     1       4.801   6.938  17.310  0.00  0.00    +0.000 A 
ATOM     22  C   UNL     1       5.771   6.546  16.381  0.00  0.00    +0.000 A 
BRANCH  17  24
ATOM     23  C   UNL     1       6.090   3.866  13.813  0.00  0.00    +0.000 C 
ATOM     24  C   UNL     1       6.733   4.856  14.769  0.00  0.00    +0.000 C 
ENDBRANCH  17  24
ENDBRANCH  15  20
ENDBRANCH  14  15
ENDBRANCH   1  14
BRANCH   9  25
ATOM     25  C   UNL     1      -0.668  10.130  18.214  0.00  0.00    +0.000 C 
BRANCH  25  26
ATOM     26  C   UNL     1      -1.763  11.096  17.841  0.00  0.00    +0.000 C 
ATOM     27  O   UNL     1      -1.547  11.935  16.968  0.00  0.00    +0.000 OA
ATOM     28  N   UNL     1      -2.868  11.049  18.666  0.00  0.00    +0.000 N 
ATOM     29  H   UNL     1      -2.795  10.466  19.500  0.00  0.00    +0.000 HD
BRANCH  28  30
ATOM     30  C   UNL     1      -4.059  11.768  18.468  0.00  0.00    +0.000 A 
ATOM     31  C   UNL     1      -4.754  11.736  17.259  0.00  0.00    +0.000 A 
ATOM     32  C   UNL     1      -5.986  12.372  17.128  0.00  0.00    +0.000 A 
ATOM     33  C   UNL     1      -6.549  13.066  18.205  0.00  0.00    +0.000 A 
ATOM     34  C   UNL     1      -7.916  13.659  18.047  0.00  0.00    +0.000 C 
ATOM     35  C   UNL     1      -5.818  13.146  19.400  0.00  0.00    +0.000 A 
ATOM     36 CL   UNL     1      -6.415  14.041  20.752  0.00  0.00    +0.000 Cl
ATOM     37  C   UNL     1      -4.588  12.493  19.537  0.00  0.00    +0.000 A 
ENDBRANCH  28  30
ENDBRANCH  25  26
ENDBRANCH   9  25
TORSDOF 8
ENDMDL
MODEL 7
REMARK VINA RESULT:      -8.2      5.029      9.178
REMARK  Name = 
REMARK  11 active torsions:
REMARK  status: ('A' for Active; 'I' for Inactive)
REMARK    1  A    between atoms: C_1  and  C_2
REMARK    2  A    between atoms: C_2  and  C_3
REMARK    3  A    between atoms: C_6  and  N_7
REMARK    4  A    between atoms: N_7  and  C_8
REMARK    5  A    between atoms: C_8  and  C_9
REMARK    6  A    between atoms: C_14  and  O_15
REMARK    7  A    between atoms: O_15  and  C_16
REMARK    8  A    between atoms: N_19  and  C_20
REMARK    9  A    between atoms: C_20  and  C_21
REMARK   10  A    between atoms: N_23  and  C_24
REMARK   11  A    between atoms: C_27  and  C_28
REMARK                            x       y       z     vdW  Elec       q    Type
REMARK                         _______ _______ _______ _____ _____    ______ ____
ROOT
ATOM      1  C   UNL     1       0.833  11.082  19.078  0.00  0.00    +0.000 A 
ATOM      2  C   UNL     1       0.958  10.047  18.229  0.00  0.00    +0.000 A 
ATOM      3  C   UNL     1       1.545   8.797  18.720  0.00  0.00    +0.000 A 
ATOM      4  C   UNL     1       2.000   7.813  17.850  0.00  0.00    +0.000 A 
ATOM      5  C   UNL     1       2.484   6.611  18.367  0.00  0.00    +0.000 A 
ATOM      6  C   UNL     1       2.497   6.365  19.747  0.00  0.00    +0.000 A 
ATOM      7  C   UNL     1       1.998   7.331  20.627  0.00  0.00    +0.000 A 
ATOM      8  C   UNL     1       1.535   8.550  20.109  0.00  0.00    +0.000 A 
ATOM      9  N   UNL     1       1.118   9.614  20.984  0.00  0.00    +0.000 N 
ATOM     10  C   UNL     1       1.348  10.905  20.473  0.00  0.00    +0.000 A 
ATOM     11  O   UNL     1       1.668  11.844  21.191  0.00  0.00    +0.000 OA
ENDROOT
BRANCH   6  12
ATOM     12  O   UNL     1       3.046   5.156  20.072  0.00  0.00    +0.000 OA
ATOM     13  C   UNL     1       2.380   4.349  21.030  0.00  0.00    +0.000 C 
ENDBRANCH   6  12
BRANCH   1  14
ATOM     14  C   UNL     1      -0.082  12.247  18.891  0.00  0.00    +0.000 C 
BRANCH  14  15
ATOM     15  N   UNL     1      -0.810  12.177  17.637  0.00  0.00    +0.000 N 
ATOM     16  H   UNL     1      -0.369  11.575  16.950  0.00  0.00    +0.000 HD
BRANCH  15  20
ATOM     17  C   UNL     1      -4.910  11.234  18.165  0.00  0.00    +0.000 A 
ATOM     18  C   UNL     1      -4.280  10.938  16.957  0.00  0.00    +0.000 A 
ATOM     19  C   UNL     1      -2.933  11.252  16.768  0.00  0.00    +0.000 A 
ATOM     20  C   UNL     1      -2.188  11.905  17.764  0.00  0.00    +0.000 A 
ATOM     21  C   UNL     1      -2.822  12.171  18.982  0.00  0.00    +0.000 A 
ATOM     22  C   UNL     1      -4.171  11.856  19.177  0.00  0.00    +0.000 A 
BRANCH  17  24
ATOM     23  C   UNL     1      -6.842  11.330  19.727  0.00  0.00    +0.000 C 
ATOM     24  C   UNL     1      -6.326  10.787  18.406  0.00  0.00    +0.000 C 
ENDBRANCH  17  24
ENDBRANCH  15  20
ENDBRANCH  14  15
ENDBRANCH   1  14
BRANCH   9  25
ATOM     25  C   UNL     1      -0.295   9.525  21.387  0.00  0.00    +0.000 C 
BRANCH  25  26
ATOM     26  C   UNL     1      -0.767  10.461  22.470  0.00  0.00    +0.000 C 
ATOM     27  O   UNL     1      -0.623  10.133  23.647  0.00  0.00    +0.000 OA
ATOM     28  N   UNL     1      -1.493  11.540  22.012  0.00  0.00    +0.000 N 
ATOM     29  H   UNL     1      -1.738  11.542  21.021  0.00  0.00    +0.000 HD
BRANCH  28  30
ATOM     30  C   UNL     1      -1.950  12.606  22.805  0.00  0.00    +0.000 A 
ATOM     31  C   UNL     1      -3.197  12.584  23.432  0.00  0.00    +0.000 A 
ATOM     32  C   UNL     1      -3.578  13.607  24.297  0.00  0.00    +0.000 A 
ATOM     33  C   UNL     1      -2.721  14.684  24.548  0.00  0.00    +0.000 A 
ATOM     34  C   UNL     1      -3.134  15.716  25.554  0.00  0.00    +0.000 C 
ATOM     35  C   UNL     1      -1.495  14.732  23.870  0.00  0.00    +0.000 A 
ATOM     36 CL   UNL     1      -0.412  16.063  24.076  0.00  0.00    +0.000 Cl
ATOM     37  C   UNL     1      -1.105  13.697  23.013  0.00  0.00    +0.000 A 
ENDBRANCH  28  30
ENDBRANCH  25  26
ENDBRANCH   9  25
TORSDOF 8
ENDMDL
MODEL 8
REMARK VINA RESULT:      -8.0      4.661      8.245
REMARK  Name = 
REMARK  11 active torsions:
REMARK  status: ('A' for Active; 'I' for Inactive)
REMARK    1  A    between atoms: C_1  and  C_2
REMARK    2  A    between atoms: C_2  and  C_3
REMARK    3  A    between atoms: C_6  and  N_7
REMARK    4  A    between atoms: N_7  and  C_8
REMARK    5  A    between atoms: C_8  and  C_9
REMARK    6  A    between atoms: C_14  and  O_15
REMARK    7  A    between atoms: O_15  and  C_16
REMARK    8  A    between atoms: N_19  and  C_20
REMARK    9  A    between atoms: C_20  and  C_21
REMARK   10  A    between atoms: N_23  and  C_24
REMARK   11  A    between atoms: C_27  and  C_28
REMARK                            x       y       z     vdW  Elec       q    Type
REMARK                         _______ _______ _______ _____ _____    ______ ____
ROOT
ATOM      1  C   UNL     1       0.503   9.247  19.053  0.00  0.00    +0.000 A 
ATOM      2  C   UNL     1      -0.081   9.404  17.852  0.00  0.00    +0.000 A 
ATOM      3  C   UNL     1      -1.378  10.082  17.779  0.00  0.00    +0.000 A 
ATOM      4  C   UNL     1      -2.183   9.999  16.650  0.00  0.00    +0.000 A 
ATOM      5  C   UNL     1      -3.376  10.721  16.603  0.00  0.00    +0.000 A 
ATOM      6  C   UNL     1      -3.767  11.551  17.663  0.00  0.00    +0.000 A 
ATOM      7  C   UNL     1      -2.939  11.677  18.784  0.00  0.00    +0.000 A 
ATOM      8  C   UNL     1      -1.753  10.931  18.842  0.00  0.00    +0.000 A 
ATOM      9  N   UNL     1      -0.930  10.944  20.022  0.00  0.00    +0.000 N 
ATOM     10  C   UNL     1      -0.238   9.741  20.257  0.00  0.00    +0.000 A 
ATOM     11  O   UNL     1      -0.037   9.312  21.386  0.00  0.00    +0.000 OA
ENDROOT
BRANCH   6  12
ATOM     12  O   UNL     1      -4.982  12.144  17.462  0.00  0.00    +0.000 OA
ATOM     13  C   UNL     1      -6.150  11.436  17.847  0.00  0.00    +0.000 C 
ENDBRANCH   6  12
BRANCH   1  14
ATOM     14  C   UNL     1       1.952   8.969  19.278  0.00  0.00    +0.000 C 
BRANCH  14  15
ATOM     15  N   UNL     1       2.164   7.881  20.215  0.00  0.00    +0.000 N 
ATOM     16  H   UNL     1       1.639   7.986  21.077  0.00  0.00    +0.000 HD
BRANCH  15  20
ATOM     17  C   UNL     1       1.865   3.935  18.692  0.00  0.00    +0.000 A 
ATOM     18  C   UNL     1       2.273   4.973  17.855  0.00  0.00    +0.000 A 
ATOM     19  C   UNL     1       2.366   6.277  18.343  0.00  0.00    +0.000 A 
ATOM     20  C   UNL     1       2.019   6.590  19.668  0.00  0.00    +0.000 A 
ATOM     21  C   UNL     1       1.638   5.537  20.506  0.00  0.00    +0.000 A 
ATOM     22  C   UNL     1       1.546   4.227  20.022  0.00  0.00    +0.000 A 
BRANCH  17  24
ATOM     23  C   UNL     1       3.216   1.856  18.496  0.00  0.00    +0.000 C 
ATOM     24  C   UNL     1       1.881   2.516  18.194  0.00  0.00    +0.000 C 
ENDBRANCH  17  24
ENDBRANCH  15  20
ENDBRANCH  14  15
ENDBRANCH   1  14
BRANCH   9  25
ATOM     25  C   UNL     1       0.046  12.045  20.048  0.00  0.00    +0.000 C 
BRANCH  25  26
ATOM     26  C   UNL     1      -0.350  13.307  20.769  0.00  0.00    +0.000 C 
ATOM     27  O   UNL     1       0.218  14.361  20.485  0.00  0.00    +0.000 OA
ATOM     28  N   UNL     1      -1.212  13.110  21.828  0.00  0.00    +0.000 N 
ATOM     29  H   UNL     1      -1.402  12.143  22.093  0.00  0.00    +0.000 HD
BRANCH  28  30
ATOM     30  C   UNL     1      -1.810  14.130  22.588  0.00  0.00    +0.000 A 
ATOM     31  C   UNL     1      -2.921  14.841  22.134  0.00  0.00    +0.000 A 
ATOM     32  C   UNL     1      -3.556  15.771  22.954  0.00  0.00    +0.000 A 
ATOM     33  C   UNL     1      -3.086  16.019  24.248  0.00  0.00    +0.000 A 
ATOM     34  C   UNL     1      -3.852  16.960  25.126  0.00  0.00    +0.000 C 
ATOM     35  C   UNL     1      -1.933  15.346  24.678  0.00  0.00    +0.000 A 
ATOM     36 CL   UNL     1      -1.253  15.648  26.238  0.00  0.00    +0.000 Cl
ATOM     37  C   UNL     1      -1.305  14.400  23.861  0.00  0.00    +0.000 A 
ENDBRANCH  28  30
ENDBRANCH  25  26
ENDBRANCH   9  25
TORSDOF 8
ENDMDL
MODEL 9
REMARK VINA RESULT:      -7.9      1.399      1.883
REMARK  Name = 
REMARK  11 active torsions:
REMARK  status: ('A' for Active; 'I' for Inactive)
REMARK    1  A    between atoms: C_1  and  C_2
REMARK    2  A    between atoms: C_2  and  C_3
REMARK    3  A    between atoms: C_6  and  N_7
REMARK    4  A    between atoms: N_7  and  C_8
REMARK    5  A    between atoms: C_8  and  C_9
REMARK    6  A    between atoms: C_14  and  O_15
REMARK    7  A    between atoms: O_15  and  C_16
REMARK    8  A    between atoms: N_19  and  C_20
REMARK    9  A    between atoms: C_20  and  C_21
REMARK   10  A    between atoms: N_23  and  C_24
REMARK   11  A    between atoms: C_27  and  C_28
REMARK                            x       y       z     vdW  Elec       q    Type
REMARK                         _______ _______ _______ _____ _____    ______ ____
ROOT
ATOM      1  C   UNL     1       5.664   4.348  16.621  0.00  0.00    +0.000 A 
ATOM      2  C   UNL     1       4.715   3.398  16.550  0.00  0.00    +0.000 A 
ATOM      3  C   UNL     1       3.784   3.244  17.671  0.00  0.00    +0.000 A 
ATOM      4  C   UNL     1       3.002   2.105  17.819  0.00  0.00    +0.000 A 
ATOM      5  C   UNL     1       2.080   2.037  18.864  0.00  0.00    +0.000 A 
ATOM      6  C   UNL     1       1.907   3.107  19.753  0.00  0.00    +0.000 A 
ATOM      7  C   UNL     1       2.657   4.275  19.583  0.00  0.00    +0.000 A 
ATOM      8  C   UNL     1       3.603   4.334  18.548  0.00  0.00    +0.000 A 
ATOM      9  N   UNL     1       4.473   5.471  18.407  0.00  0.00    +0.000 N 
ATOM     10  C   UNL     1       5.739   5.166  17.873  0.00  0.00    +0.000 A 
ATOM     11  O   UNL     1       6.756   5.745  18.232  0.00  0.00    +0.000 OA
ENDROOT
BRANCH   6  12
ATOM     12  O   UNL     1       0.995   2.846  20.737  0.00  0.00    +0.000 OA
ATOM     13  C   UNL     1       1.472   2.424  22.005  0.00  0.00    +0.000 C 
ENDBRANCH   6  12
BRANCH   1  14
ATOM     14  C   UNL     1       6.407   4.914  15.456  0.00  0.00    +0.000 C 
BRANCH  14  15
ATOM     15  N   UNL     1       6.892   3.882  14.559  0.00  0.00    +0.000 N 
ATOM     16  H   UNL     1       7.119   3.014  15.032  0.00  0.00    +0.000 HD
BRANCH  15  20
ATOM     17  C   UNL     1       4.341   3.180  11.245  0.00  0.00    +0.000 A 
ATOM     18  C   UNL     1       5.475   2.389  11.428  0.00  0.00    +0.000 A 
ATOM     19  C   UNL     1       6.327   2.617  12.510  0.00  0.00    +0.000 A 
ATOM     20  C   UNL     1       6.093   3.664  13.418  0.00  0.00    +0.000 A 
ATOM     21  C   UNL     1       4.939   4.433  13.241  0.00  0.00    +0.000 A 
ATOM     22  C   UNL     1       4.080   4.207  12.159  0.00  0.00    +0.000 A 
BRANCH  17  24
ATOM     23  C   UNL     1       2.919   4.121   9.435  0.00  0.00    +0.000 C 
ATOM     24  C   UNL     1       3.365   2.856  10.148  0.00  0.00    +0.000 C 
ENDBRANCH  17  24
ENDBRANCH  15  20
ENDBRANCH  14  15
ENDBRANCH   1  14
BRANCH   9  25
ATOM     25  C   UNL     1       3.891   6.563  17.610  0.00  0.00    +0.000 C 
BRANCH  25  26
ATOM     26  C   UNL     1       2.972   7.525  18.317  0.00  0.00    +0.000 C 
ATOM     27  O   UNL     1       2.637   7.287  19.477  0.00  0.00    +0.000 OA
ATOM     28  N   UNL     1       2.448   8.511  17.507  0.00  0.00    +0.000 N 
ATOM     29  H   UNL     1       2.631   8.429  16.506  0.00  0.00    +0.000 HD
BRANCH  28  30
ATOM     30  C   UNL     1       1.656   9.585  17.945  0.00  0.00    +0.000 A 
ATOM     31  C   UNL     1       2.209  10.807  18.330  0.00  0.00    +0.000 A 
ATOM     32  C   UNL     1       1.393  11.888  18.657  0.00  0.00    +0.000 A 
ATOM     33  C   UNL     1      -0.000  11.766  18.617  0.00  0.00    +0.000 A 
ATOM     34  C   UNL     1      -0.838  12.978  18.889  0.00  0.00    +0.000 C 
ATOM     35  C   UNL     1      -0.551  10.519  18.288  0.00  0.00    +0.000 A 
ATOM     36 CL   UNL     1      -2.262  10.273  18.282  0.00  0.00    +0.000 Cl
ATOM     37  C   UNL     1       0.268   9.439  17.943  0.00  0.00    +0.000 A 
ENDBRANCH  28  30
ENDBRANCH  25  26
ENDBRANCH   9  25
TORSDOF 8
ENDMDL
