MODEL 1
REMARK VINA RESULT:      -8.1      0.000      0.000
REMARK  Name = 
REMARK  6 active torsions:
REMARK  status: ('A' for Active; 'I' for Inactive)
REMARK    1  A    between atoms: C_4  and  C_5
REMARK    2  A    between atoms: N_7  and  C_8
REMARK    3  A    between atoms: C_8  and  C_9
REMARK    4  A    between atoms: C_19  and  N_20
REMARK    5  A    between atoms: N_20  and  C_21
REMARK    6  A    between atoms: C_21  and  C_22
REMARK                            x       y       z     vdW  Elec       q    Type
REMARK                         _______ _______ _______ _____ _____    ______ ____
ROOT
ATOM      1  O   UNL     1       2.201   3.793  21.801  0.00  0.00    +0.000 OA
ATOM      2  C   UNL     1       1.950   3.673  20.603  0.00  0.00    +0.000 C 
ATOM      3  N   UNL     1       2.010   2.498  19.908  0.00  0.00    +0.000 N 
ATOM      4  C   UNL     1       2.049   2.698  18.476  0.00  0.00    +0.000 C 
ATOM      5  C   UNL     1       1.542   4.124  18.267  0.00  0.00    +0.000 C 
ATOM      6  C   UNL     1       1.635   4.756  19.642  0.00  0.00    +0.000 C 
ATOM      7  C   UNL     1       1.481   6.048  19.938  0.00  0.00    +0.000 C 
ATOM      8  H   UNL     1       2.370   1.668  20.364  0.00  0.00    +0.000 HD
ENDROOT
BRANCH   4   9
ATOM      9  C   UNL     1       3.479   2.502  17.939  0.00  0.00    +0.000 C 
ATOM     10  O   UNL     1       4.019   1.398  17.955  0.00  0.00    +0.000 OA
ATOM     11  N   UNL     1       4.048   3.601  17.334  0.00  0.00    +0.000 N 
ATOM     12  H   UNL     1       3.529   4.469  17.275  0.00  0.00    +0.000 HD
BRANCH  11  13
ATOM     13  C   UNL     1       5.389   3.574  16.797  0.00  0.00    +0.000 C 
BRANCH  13  14
ATOM     14  C   UNL     1       6.163   4.791  17.228  0.00  0.00    +0.000 A 
ATOM     15  C   UNL     1       7.005   4.691  18.351  0.00  0.00    +0.000 A 
ATOM     16  C   UNL     1       7.745   5.792  18.790  0.00  0.00    +0.000 A 
ATOM     17  C   UNL     1       7.661   6.999  18.102  0.00  0.00    +0.000 A 
ATOM     18 CL   UNL     1       8.571   8.356  18.643  0.00  0.00    +0.000 Cl
ATOM     19  C   UNL     1       6.847   7.117  16.980  0.00  0.00    +0.000 A 
ATOM     20  C   UNL     1       6.104   6.017  16.543  0.00  0.00    +0.000 A 
ATOM     21 CL   UNL     1       5.125   6.228  15.135  0.00  0.00    +0.000 Cl
ENDBRANCH  13  14
ENDBRANCH  11  13
ENDBRANCH   4   9
BRANCH   7  22
ATOM     22  N   UNL     1       1.487   6.766  21.120  0.00  0.00    +0.000 N 
ATOM     23  H   UNL     1       1.764   6.205  21.926  0.00  0.00    +0.000 HD
BRANCH  22  24
ATOM     24  C   UNL     1       1.934   8.154  21.242  0.00  0.00    +0.000 C 
BRANCH  24  25
ATOM     25  C   UNL     1       0.998   9.041  20.441  0.00  0.00    +0.000 A 
ATOM     26  C   UNL     1       1.283   9.268  19.079  0.00  0.00    +0.000 A 
ATOM     27  C   UNL     1       0.466  10.092  18.296  0.00  0.00    +0.000 A 
ATOM     28  C   UNL     1      -0.637  10.716  18.865  0.00  0.00    +0.000 A 
ATOM     29 CL   UNL     1      -1.655  11.714  17.903  0.00  0.00    +0.000 Cl
ATOM     30  C   UNL     1      -0.936  10.519  20.209  0.00  0.00    +0.000 A 
ATOM     31  C   UNL     1      -0.128   9.681  20.991  0.00  0.00    +0.000 A 
ATOM     32 CL   UNL     1      -0.607   9.461  22.638  0.00  0.00    +0.000 Cl
ENDBRANCH  24  25
ENDBRANCH  22  24
ENDBRANCH   7  22
TORSDOF 6
ENDMDL
MODEL 2
REMARK VINA RESULT:      -8.0      1.128      1.785
REMARK  Name = 
REMARK  6 active torsions:
REMARK  status: ('A' for Active; 'I' for Inactive)
REMARK    1  A    between atoms: C_4  and  C_5
REMARK    2  A    between atoms: N_7  and  C_8
REMARK    3  A    between atoms: C_8  and  C_9
REMARK    4  A    between atoms: C_19  and  N_20
REMARK    5  A    between atoms: N_20  and  C_21
REMARK    6  A    between atoms: C_21  and  C_22
REMARK                            x       y       z     vdW  Elec       q    Type
REMARK                         _______ _______ _______ _____ _____    ______ ____
ROOT
ATOM      1  O   UNL     1       2.098   3.895  21.798  0.00  0.00    +0.000 OA
ATOM      2  C   UNL     1       1.864   3.785  20.597  0.00  0.00    +0.000 C 
ATOM      3  N   UNL     1       1.899   2.610  19.901  0.00  0.00    +0.000 N 
ATOM      4  C   UNL     1       1.968   2.810  18.469  0.00  0.00    +0.000 C 
ATOM      5  C   UNL     1       1.510   4.252  18.255  0.00  0.00    +0.000 C 
ATOM      6  C   UNL     1       1.599   4.878  19.632  0.00  0.00    +0.000 C 
ATOM      7  C   UNL     1       1.481   6.175  19.928  0.00  0.00    +0.000 C 
ATOM      8  H   UNL     1       2.225   1.768  20.361  0.00  0.00    +0.000 HD
ENDROOT
BRANCH   4   9
ATOM      9  C   UNL     1       3.400   2.570  17.956  0.00  0.00    +0.000 C 
ATOM     10  O   UNL     1       3.856   1.434  17.848  0.00  0.00    +0.000 OA
ATOM     11  N   UNL     1       4.074   3.687  17.514  0.00  0.00    +0.000 N 
ATOM     12  H   UNL     1       3.624   4.595  17.550  0.00  0.00    +0.000 HD
BRANCH  11  13
ATOM     13  C   UNL     1       5.430   3.622  17.019  0.00  0.00    +0.000 C 
BRANCH  13  14
ATOM     14  C   UNL     1       6.193   4.869  17.381  0.00  0.00    +0.000 A 
ATOM     15  C   UNL     1       7.040   4.838  18.504  0.00  0.00    +0.000 A 
ATOM     16  C   UNL     1       7.769   5.968  18.880  0.00  0.00    +0.000 A 
ATOM     17  C   UNL     1       7.670   7.135  18.128  0.00  0.00    +0.000 A 
ATOM     18 CL   UNL     1       8.568   8.529  18.590  0.00  0.00    +0.000 Cl
ATOM     19  C   UNL     1       6.851   7.184  17.004  0.00  0.00    +0.000 A 
ATOM     20  C   UNL     1       6.118   6.055  16.631  0.00  0.00    +0.000 A 
ATOM     21 CL   UNL     1       5.131   6.179  15.218  0.00  0.00    +0.000 Cl
ENDBRANCH  13  14
ENDBRANCH  11  13
ENDBRANCH   4   9
BRANCH   7  22
ATOM     22  N   UNL     1       1.490   6.890  21.111  0.00  0.00    +0.000 N 
ATOM     23  H   UNL     1       1.655   6.305  21.930  0.00  0.00    +0.000 HD
BRANCH  22  24
ATOM     24  C   UNL     1       2.073   8.223  21.267  0.00  0.00    +0.000 C 
BRANCH  24  25
ATOM     25  C   UNL     1       0.957   9.217  21.537  0.00  0.00    +0.000 A 
ATOM     26  C   UNL     1       0.416   9.289  22.837  0.00  0.00    +0.000 A 
ATOM     27  C   UNL     1      -0.628  10.172  23.138  0.00  0.00    +0.000 A 
ATOM     28  C   UNL     1      -1.159  10.983  22.143  0.00  0.00    +0.000 A 
ATOM     29 CL   UNL     1      -2.427  12.083  22.513  0.00  0.00    +0.000 Cl
ATOM     30  C   UNL     1      -0.651  10.926  20.850  0.00  0.00    +0.000 A 
ATOM     31  C   UNL     1       0.405  10.053  20.549  0.00  0.00    +0.000 A 
ATOM     32 CL   UNL     1       0.999  10.087  18.925  0.00  0.00    +0.000 Cl
ENDBRANCH  24  25
ENDBRANCH  22  24
ENDBRANCH   7  22
TORSDOF 6
ENDMDL
MODEL 3
REMARK VINA RESULT:      -7.8      2.536      8.353
REMARK  Name = 
REMARK  6 active torsions:
REMARK  status: ('A' for Active; 'I' for Inactive)
REMARK    1  A    between atoms: C_4  and  C_5
REMARK    2  A    between atoms: N_7  and  C_8
REMARK    3  A    between atoms: C_8  and  C_9
REMARK    4  A    between atoms: C_19  and  N_20
REMARK    5  A    between atoms: N_20  and  C_21
REMARK    6  A    between atoms: C_21  and  C_22
REMARK                            x       y       z     vdW  Elec       q    Type
REMARK                         _______ _______ _______ _____ _____    ______ ____
ROOT
ATOM      1  O   UNL     1       1.518   5.015  20.701  0.00  0.00    +0.000 OA
ATOM      2  C   UNL     1       1.756   6.173  20.365  0.00  0.00    +0.000 C 
ATOM      3  N   UNL     1       1.804   7.238  21.219  0.00  0.00    +0.000 N 
ATOM      4  C   UNL     1       1.716   8.509  20.533  0.00  0.00    +0.000 C 
ATOM      5  C   UNL     1       2.067   8.193  19.081  0.00  0.00    +0.000 C 
ATOM      6  C   UNL     1       1.938   6.686  18.987  0.00  0.00    +0.000 C 
ATOM      7  C   UNL     1       1.962   5.951  17.873  0.00  0.00    +0.000 C 
ATOM      8  H   UNL     1       1.541   7.111  22.189  0.00  0.00    +0.000 HD
ENDROOT
BRANCH   4   9
ATOM      9  C   UNL     1       0.303   9.106  20.675  0.00  0.00    +0.000 C 
ATOM     10  O   UNL     1      -0.526   8.606  21.432  0.00  0.00    +0.000 OA
ATOM     11  N   UNL     1       0.082  10.290  20.006  0.00  0.00    +0.000 N 
ATOM     12  H   UNL     1       0.826  10.705  19.457  0.00  0.00    +0.000 HD
BRANCH  11  13
ATOM     13  C   UNL     1      -1.198  10.960  20.032  0.00  0.00    +0.000 C 
BRANCH  13  14
ATOM     14  C   UNL     1      -1.903  10.820  18.709  0.00  0.00    +0.000 A 
ATOM     15  C   UNL     1      -1.327   9.997  17.723  0.00  0.00    +0.000 A 
ATOM     16  C   UNL     1      -1.943   9.833  16.480  0.00  0.00    +0.000 A 
ATOM     17  C   UNL     1      -3.148  10.479  16.217  0.00  0.00    +0.000 A 
ATOM     18 CL   UNL     1      -3.907  10.279  14.685  0.00  0.00    +0.000 Cl
ATOM     19  C   UNL     1      -3.743  11.284  17.181  0.00  0.00    +0.000 A 
ATOM     20  C   UNL     1      -3.125  11.451  18.423  0.00  0.00    +0.000 A 
ATOM     21 CL   UNL     1      -3.925  12.454  19.581  0.00  0.00    +0.000 Cl
ENDBRANCH  13  14
ENDBRANCH  11  13
ENDBRANCH   4   9
BRANCH   7  22
ATOM     22  N   UNL     1       1.906   4.592  17.622  0.00  0.00    +0.000 N 
ATOM     23  H   UNL     1       1.055   4.312  17.134  0.00  0.00    +0.000 HD
BRANCH  22  24
ATOM     24  C   UNL     1       3.055   3.776  17.228  0.00  0.00    +0.000 C 
BRANCH  24  25
ATOM     25  C   UNL     1       4.328   4.496  17.634  0.00  0.00    +0.000 A 
ATOM     26  C   UNL     1       4.894   5.425  16.737  0.00  0.00    +0.000 A 
ATOM     27  C   UNL     1       6.077   6.105  17.049  0.00  0.00    +0.000 A 
ATOM     28  C   UNL     1       6.723   5.854  18.254  0.00  0.00    +0.000 A 
ATOM     29 CL   UNL     1       8.166   6.700  18.651  0.00  0.00    +0.000 Cl
ATOM     30  C   UNL     1       6.193   4.935  19.153  0.00  0.00    +0.000 A 
ATOM     31  C   UNL     1       5.000   4.265  18.849  0.00  0.00    +0.000 A 
ATOM     32 CL   UNL     1       4.395   3.176  20.049  0.00  0.00    +0.000 Cl
ENDBRANCH  24  25
ENDBRANCH  22  24
ENDBRANCH   7  22
TORSDOF 6
ENDMDL
MODEL 4
REMARK VINA RESULT:      -7.8      2.357      8.459
REMARK  Name = 
REMARK  6 active torsions:
REMARK  status: ('A' for Active; 'I' for Inactive)
REMARK    1  A    between atoms: C_4  and  C_5
REMARK    2  A    between atoms: N_7  and  C_8
REMARK    3  A    between atoms: C_8  and  C_9
REMARK    4  A    between atoms: C_19  and  N_20
REMARK    5  A    between atoms: N_20  and  C_21
REMARK    6  A    between atoms: C_21  and  C_22
REMARK                            x       y       z     vdW  Elec       q    Type
REMARK                         _______ _______ _______ _____ _____    ______ ____
ROOT
ATOM      1  O   UNL     1       1.817   5.134  20.763  0.00  0.00    +0.000 OA
ATOM      2  C   UNL     1       1.966   6.272  20.325  0.00  0.00    +0.000 C 
ATOM      3  N   UNL     1       1.971   7.406  21.088  0.00  0.00    +0.000 N 
ATOM      4  C   UNL     1       1.775   8.607  20.305  0.00  0.00    +0.000 C 
ATOM      5  C   UNL     1       2.098   8.194  18.870  0.00  0.00    +0.000 C 
ATOM      6  C   UNL     1       2.066   6.679  18.904  0.00  0.00    +0.000 C 
ATOM      7  C   UNL     1       2.102   5.857  17.853  0.00  0.00    +0.000 C 
ATOM      8  H   UNL     1       1.751   7.343  22.075  0.00  0.00    +0.000 HD
ENDROOT
BRANCH   4   9
ATOM      9  C   UNL     1       0.332   9.122  20.453  0.00  0.00    +0.000 C 
ATOM     10  O   UNL     1      -0.452   8.602  21.245  0.00  0.00    +0.000 OA
ATOM     11  N   UNL     1       0.026  10.264  19.745  0.00  0.00    +0.000 N 
ATOM     12  H   UNL     1       0.734  10.703  19.167  0.00  0.00    +0.000 HD
BRANCH  11  13
ATOM     13  C   UNL     1      -1.291  10.856  19.773  0.00  0.00    +0.000 C 
BRANCH  13  14
ATOM     14  C   UNL     1      -1.981  10.689  18.445  0.00  0.00    +0.000 A 
ATOM     15  C   UNL     1      -1.380   9.869  17.472  0.00  0.00    +0.000 A 
ATOM     16  C   UNL     1      -1.980   9.681  16.225  0.00  0.00    +0.000 A 
ATOM     17  C   UNL     1      -3.195  10.299  15.944  0.00  0.00    +0.000 A 
ATOM     18 CL   UNL     1      -3.936  10.069  14.408  0.00  0.00    +0.000 Cl
ATOM     19  C   UNL     1      -3.816  11.102  16.895  0.00  0.00    +0.000 A 
ATOM     20  C   UNL     1      -3.213  11.293  18.141  0.00  0.00    +0.000 A 
ATOM     21 CL   UNL     1      -4.044  12.291  19.281  0.00  0.00    +0.000 Cl
ENDBRANCH  13  14
ENDBRANCH  11  13
ENDBRANCH   4   9
BRANCH   7  22
ATOM     22  N   UNL     1       2.128   4.481  17.715  0.00  0.00    +0.000 N 
ATOM     23  H   UNL     1       1.265   4.103  17.324  0.00  0.00    +0.000 HD
BRANCH  22  24
ATOM     24  C   UNL     1       3.301   3.714  17.292  0.00  0.00    +0.000 C 
BRANCH  24  25
ATOM     25  C   UNL     1       4.550   4.515  17.613  0.00  0.00    +0.000 A 
ATOM     26  C   UNL     1       4.977   4.593  18.954  0.00  0.00    +0.000 A 
ATOM     27  C   UNL     1       6.110   5.333  19.312  0.00  0.00    +0.000 A 
ATOM     28  C   UNL     1       6.824   6.021  18.338  0.00  0.00    +0.000 A 
ATOM     29 CL   UNL     1       8.228   6.915  18.769  0.00  0.00    +0.000 Cl
ATOM     30  C   UNL     1       6.420   5.970  17.008  0.00  0.00    +0.000 A 
ATOM     31  C   UNL     1       5.294   5.217  16.646  0.00  0.00    +0.000 A 
ATOM     32 CL   UNL     1       4.898   5.177  14.963  0.00  0.00    +0.000 Cl
ENDBRANCH  24  25
ENDBRANCH  22  24
ENDBRANCH   7  22
TORSDOF 6
ENDMDL
MODEL 5
REMARK VINA RESULT:      -7.7      4.559      8.500
REMARK  Name = 
REMARK  6 active torsions:
REMARK  status: ('A' for Active; 'I' for Inactive)
REMARK    1  A    between atoms: C_4  and  C_5
REMARK    2  A    between atoms: N_7  and  C_8
REMARK    3  A    between atoms: C_8  and  C_9
REMARK    4  A    between atoms: C_19  and  N_20
REMARK    5  A    between atoms: N_20  and  C_21
REMARK    6  A    between atoms: C_21  and  C_22
REMARK                            x       y       z     vdW  Elec       q    Type
REMARK                         _______ _______ _______ _____ _____    ______ ____
ROOT
ATOM      1  O   UNL     1       2.312   9.380  17.527  0.00  0.00    +0.000 OA
ATOM      2  C   UNL     1       1.456   9.673  18.359  0.00  0.00    +0.000 C 
ATOM      3  N   UNL     1       0.627  10.755  18.276  0.00  0.00    +0.000 N 
ATOM      4  C   UNL     1       0.002  11.079  19.541  0.00  0.00    +0.000 C 
ATOM      5  C   UNL     1       0.146   9.812  20.382  0.00  0.00    +0.000 C 
ATOM      6  C   UNL     1       1.201   9.002  19.656  0.00  0.00    +0.000 C 
ATOM      7  C   UNL     1       1.807   7.899  20.102  0.00  0.00    +0.000 C 
ATOM      8  H   UNL     1       0.763  11.431  17.535  0.00  0.00    +0.000 HD
ENDROOT
BRANCH   4   9
ATOM      9  C   UNL     1       0.691  12.293  20.191  0.00  0.00    +0.000 C 
ATOM     10  O   UNL     1       1.300  12.186  21.253  0.00  0.00    +0.000 OA
ATOM     11  N   UNL     1       0.684  13.455  19.451  0.00  0.00    +0.000 N 
ATOM     12  H   UNL     1       0.235  13.471  18.542  0.00  0.00    +0.000 HD
BRANCH  11  13
ATOM     13  C   UNL     1       1.277  14.680  19.937  0.00  0.00    +0.000 C 
BRANCH  13  14
ATOM     14  C   UNL     1       2.698  14.814  19.457  0.00  0.00    +0.000 A 
ATOM     15  C   UNL     1       2.933  14.937  18.075  0.00  0.00    +0.000 A 
ATOM     16  C   UNL     1       4.233  15.065  17.580  0.00  0.00    +0.000 A 
ATOM     17  C   UNL     1       5.309  15.085  18.462  0.00  0.00    +0.000 A 
ATOM     18 CL   UNL     1       6.911  15.242  17.854  0.00  0.00    +0.000 Cl
ATOM     19  C   UNL     1       5.099  14.982  19.834  0.00  0.00    +0.000 A 
ATOM     20  C   UNL     1       3.799  14.849  20.328  0.00  0.00    +0.000 A 
ATOM     21 CL   UNL     1       3.609  14.738  22.042  0.00  0.00    +0.000 Cl
ENDBRANCH  13  14
ENDBRANCH  11  13
ENDBRANCH   4   9
BRANCH   7  22
ATOM     22  N   UNL     1       2.736   7.032  19.557  0.00  0.00    +0.000 N 
ATOM     23  H   UNL     1       3.544   6.881  20.163  0.00  0.00    +0.000 HD
BRANCH  22  24
ATOM     24  C   UNL     1       2.398   5.833  18.790  0.00  0.00    +0.000 C 
BRANCH  24  25
ATOM     25  C   UNL     1       3.519   5.553  17.803  0.00  0.00    +0.000 A 
ATOM     26  C   UNL     1       4.363   6.614  17.420  0.00  0.00    +0.000 A 
ATOM     27  C   UNL     1       5.400   6.419  16.500  0.00  0.00    +0.000 A 
ATOM     28  C   UNL     1       5.598   5.165  15.935  0.00  0.00    +0.000 A 
ATOM     29 CL   UNL     1       6.882   4.915  14.819  0.00  0.00    +0.000 Cl
ATOM     30  C   UNL     1       4.774   4.102  16.287  0.00  0.00    +0.000 A 
ATOM     31  C   UNL     1       3.744   4.292  17.220  0.00  0.00    +0.000 A 
ATOM     32 CL   UNL     1       2.802   2.900  17.629  0.00  0.00    +0.000 Cl
ENDBRANCH  24  25
ENDBRANCH  22  24
ENDBRANCH   7  22
TORSDOF 6
ENDMDL
MODEL 6
REMARK VINA RESULT:      -7.7      1.038      1.076
REMARK  Name = 
REMARK  6 active torsions:
REMARK  status: ('A' for Active; 'I' for Inactive)
REMARK    1  A    between atoms: C_4  and  C_5
REMARK    2  A    between atoms: N_7  and  C_8
REMARK    3  A    between atoms: C_8  and  C_9
REMARK    4  A    between atoms: C_19  and  N_20
REMARK    5  A    between atoms: N_20  and  C_21
REMARK    6  A    between atoms: C_21  and  C_22
REMARK                            x       y       z     vdW  Elec       q    Type
REMARK                         _______ _______ _______ _____ _____    ______ ____
ROOT
ATOM      1  O   UNL     1       2.292   4.447  21.794  0.00  0.00    +0.000 OA
ATOM      2  C   UNL     1       2.096   4.322  20.587  0.00  0.00    +0.000 C 
ATOM      3  N   UNL     1       2.152   3.138  19.907  0.00  0.00    +0.000 N 
ATOM      4  C   UNL     1       2.267   3.320  18.477  0.00  0.00    +0.000 C 
ATOM      5  C   UNL     1       1.818   4.760  18.229  0.00  0.00    +0.000 C 
ATOM      6  C   UNL     1       1.864   5.403  19.601  0.00  0.00    +0.000 C 
ATOM      7  C   UNL     1       1.739   6.704  19.876  0.00  0.00    +0.000 C 
ATOM      8  H   UNL     1       2.462   2.302  20.388  0.00  0.00    +0.000 HD
ENDROOT
BRANCH   4   9
ATOM      9  C   UNL     1       3.714   3.072  18.012  0.00  0.00    +0.000 C 
ATOM     10  O   UNL     1       4.071   1.970  17.601  0.00  0.00    +0.000 OA
ATOM     11  N   UNL     1       4.529   4.182  17.971  0.00  0.00    +0.000 N 
ATOM     12  H   UNL     1       4.164   5.087  18.245  0.00  0.00    +0.000 HD
BRANCH  11  13
ATOM     13  C   UNL     1       5.916   4.103  17.571  0.00  0.00    +0.000 C 
BRANCH  13  14
ATOM     14  C   UNL     1       6.596   5.437  17.731  0.00  0.00    +0.000 A 
ATOM     15  C   UNL     1       7.581   5.575  18.726  0.00  0.00    +0.000 A 
ATOM     16  C   UNL     1       8.241   6.792  18.914  0.00  0.00    +0.000 A 
ATOM     17  C   UNL     1       7.933   7.877  18.100  0.00  0.00    +0.000 A 
ATOM     18 CL   UNL     1       8.745   9.377  18.331  0.00  0.00    +0.000 Cl
ATOM     19  C   UNL     1       6.974   7.760  17.099  0.00  0.00    +0.000 A 
ATOM     20  C   UNL     1       6.310   6.544  16.915  0.00  0.00    +0.000 A 
ATOM     21 CL   UNL     1       5.140   6.463  15.646  0.00  0.00    +0.000 Cl
ENDBRANCH  13  14
ENDBRANCH  11  13
ENDBRANCH   4   9
BRANCH   7  22
ATOM     22  N   UNL     1       1.710   7.434  21.050  0.00  0.00    +0.000 N 
ATOM     23  H   UNL     1       2.558   7.981  21.199  0.00  0.00    +0.000 HD
BRANCH  22  24
ATOM     24  C   UNL     1       0.524   8.112  21.574  0.00  0.00    +0.000 C 
BRANCH  24  25
ATOM     25  C   UNL     1       0.407   9.473  20.911  0.00  0.00    +0.000 A 
ATOM     26  C   UNL     1       0.907   9.633  19.603  0.00  0.00    +0.000 A 
ATOM     27  C   UNL     1       0.844  10.870  18.950  0.00  0.00    +0.000 A 
ATOM     28  C   UNL     1       0.296  11.969  19.599  0.00  0.00    +0.000 A 
ATOM     29 CL   UNL     1       0.199  13.486  18.795  0.00  0.00    +0.000 Cl
ATOM     30  C   UNL     1      -0.196  11.843  20.894  0.00  0.00    +0.000 A 
ATOM     31  C   UNL     1      -0.148  10.601  21.544  0.00  0.00    +0.000 A 
ATOM     32 CL   UNL     1      -0.827  10.532  23.133  0.00  0.00    +0.000 Cl
ENDBRANCH  24  25
ENDBRANCH  22  24
ENDBRANCH   7  22
TORSDOF 6
ENDMDL
MODEL 7
REMARK VINA RESULT:      -7.6      3.521      9.351
REMARK  Name = 
REMARK  6 active torsions:
REMARK  status: ('A' for Active; 'I' for Inactive)
REMARK    1  A    between atoms: C_4  and  C_5
REMARK    2  A    between atoms: N_7  and  C_8
REMARK    3  A    between atoms: C_8  and  C_9
REMARK    4  A    between atoms: C_19  and  N_20
REMARK    5  A    between atoms: N_20  and  C_21
REMARK    6  A    between atoms: C_21  and  C_22
REMARK                            x       y       z     vdW  Elec       q    Type
REMARK                         _______ _______ _______ _____ _____    ______ ____
ROOT
ATOM      1  O   UNL     1       1.323   7.802  20.705  0.00  0.00    +0.000 OA
ATOM      2  C   UNL     1       1.322   9.020  20.543  0.00  0.00    +0.000 C 
ATOM      3  N   UNL     1       0.948   9.932  21.489  0.00  0.00    +0.000 N 
ATOM      4  C   UNL     1       0.672  11.237  20.929  0.00  0.00    +0.000 C 
ATOM      5  C   UNL     1       1.347  11.224  19.559  0.00  0.00    +0.000 C 
ATOM      6  C   UNL     1       1.616   9.757  19.292  0.00  0.00    +0.000 C 
ATOM      7  C   UNL     1       2.024   9.218  18.140  0.00  0.00    +0.000 C 
ATOM      8  H   UNL     1       0.555   9.608  22.365  0.00  0.00    +0.000 HD
ENDROOT
BRANCH   4   9
ATOM      9  C   UNL     1      -0.847  11.475  20.829  0.00  0.00    +0.000 C 
ATOM     10  O   UNL     1      -1.566  11.427  21.825  0.00  0.00    +0.000 OA
ATOM     11  N   UNL     1      -1.312  11.864  19.592  0.00  0.00    +0.000 N 
ATOM     12  H   UNL     1      -0.665  11.967  18.819  0.00  0.00    +0.000 HD
BRANCH  11  13
ATOM     13  C   UNL     1      -2.714  12.108  19.341  0.00  0.00    +0.000 C 
BRANCH  13  14
ATOM     14  C   UNL     1      -3.119  11.567  17.995  0.00  0.00    +0.000 A 
ATOM     15  C   UNL     1      -2.170  10.849  17.245  0.00  0.00    +0.000 A 
ATOM     16  C   UNL     1      -2.496  10.326  15.991  0.00  0.00    +0.000 A 
ATOM     17  C   UNL     1      -3.779  10.505  15.482  0.00  0.00    +0.000 A 
ATOM     18 CL   UNL     1      -4.183   9.863  13.937  0.00  0.00    +0.000 Cl
ATOM     19  C   UNL     1      -4.739  11.198  16.212  0.00  0.00    +0.000 A 
ATOM     20  C   UNL     1      -4.410  11.724  17.465  0.00  0.00    +0.000 A 
ATOM     21 CL   UNL     1      -5.653  12.563  18.325  0.00  0.00    +0.000 Cl
ENDBRANCH  13  14
ENDBRANCH  11  13
ENDBRANCH   4   9
BRANCH   7  22
ATOM     22  N   UNL     1       2.353   7.933  17.750  0.00  0.00    +0.000 N 
ATOM     23  H   UNL     1       1.768   7.584  16.990  0.00  0.00    +0.000 HD
BRANCH  22  24
ATOM     24  C   UNL     1       3.721   7.420  17.664  0.00  0.00    +0.000 C 
BRANCH  24  25
ATOM     25  C   UNL     1       3.684   5.907  17.787  0.00  0.00    +0.000 A 
ATOM     26  C   UNL     1       2.927   5.332  18.827  0.00  0.00    +0.000 A 
ATOM     27  C   UNL     1       2.872   3.944  19.001  0.00  0.00    +0.000 A 
ATOM     28  C   UNL     1       3.586   3.110  18.149  0.00  0.00    +0.000 A 
ATOM     29 CL   UNL     1       3.506   1.404  18.346  0.00  0.00    +0.000 Cl
ATOM     30  C   UNL     1       4.349   3.650  17.120  0.00  0.00    +0.000 A 
ATOM     31  C   UNL     1       4.394   5.040  16.935  0.00  0.00    +0.000 A 
ATOM     32 CL   UNL     1       5.333   5.614  15.601  0.00  0.00    +0.000 Cl
ENDBRANCH  24  25
ENDBRANCH  22  24
ENDBRANCH   7  22
TORSDOF 6
ENDMDL
MODEL 8
REMARK VINA RESULT:      -7.5      4.431      9.344
REMARK  Name = 
REMARK  6 active torsions:
REMARK  status: ('A' for Active; 'I' for Inactive)
REMARK    1  A    between atoms: C_4  and  C_5
REMARK    2  A    between atoms: N_7  and  C_8
REMARK    3  A    between atoms: C_8  and  C_9
REMARK    4  A    between atoms: C_19  and  N_20
REMARK    5  A    between atoms: N_20  and  C_21
REMARK    6  A    between atoms: C_21  and  C_22
REMARK                            x       y       z     vdW  Elec       q    Type
REMARK                         _______ _______ _______ _____ _____    ______ ____
ROOT
ATOM      1  O   UNL     1       2.045   9.141  17.805  0.00  0.00    +0.000 OA
ATOM      2  C   UNL     1       1.259   9.424  18.707  0.00  0.00    +0.000 C 
ATOM      3  N   UNL     1       0.400  10.485  18.686  0.00  0.00    +0.000 N 
ATOM      4  C   UNL     1      -0.119  10.810  19.998  0.00  0.00    +0.000 C 
ATOM      5  C   UNL     1       0.130   9.557  20.836  0.00  0.00    +0.000 C 
ATOM      6  C   UNL     1       1.136   8.763  20.027  0.00  0.00    +0.000 C 
ATOM      7  C   UNL     1       1.806   7.680  20.429  0.00  0.00    +0.000 C 
ATOM      8  H   UNL     1       0.454  11.155  17.929  0.00  0.00    +0.000 HD
ENDROOT
BRANCH   4   9
ATOM      9  C   UNL     1       0.595  12.048  20.573  0.00  0.00    +0.000 C 
ATOM     10  O   UNL     1       1.714  11.962  21.074  0.00  0.00    +0.000 OA
ATOM     11  N   UNL     1      -0.042  13.253  20.373  0.00  0.00    +0.000 N 
ATOM     12  H   UNL     1      -0.928  13.281  19.882  0.00  0.00    +0.000 HD
BRANCH  11  13
ATOM     13  C   UNL     1       0.498  14.499  20.869  0.00  0.00    +0.000 C 
BRANCH  13  14
ATOM     14  C   UNL     1       0.588  15.520  19.766  0.00  0.00    +0.000 A 
ATOM     15  C   UNL     1      -0.583  16.196  19.376  0.00  0.00    +0.000 A 
ATOM     16  C   UNL     1      -0.551  17.152  18.359  0.00  0.00    +0.000 A 
ATOM     17  C   UNL     1       0.654  17.452  17.731  0.00  0.00    +0.000 A 
ATOM     18 CL   UNL     1       0.694  18.630  16.477  0.00  0.00    +0.000 Cl
ATOM     19  C   UNL     1       1.827  16.809  18.110  0.00  0.00    +0.000 A 
ATOM     20  C   UNL     1       1.795  15.849  19.125  0.00  0.00    +0.000 A 
ATOM     21 CL   UNL     1       3.290  15.097  19.556  0.00  0.00    +0.000 Cl
ENDBRANCH  13  14
ENDBRANCH  11  13
ENDBRANCH   4   9
BRANCH   7  22
ATOM     22  N   UNL     1       2.705   6.829  19.813  0.00  0.00    +0.000 N 
ATOM     23  H   UNL     1       3.490   6.576  20.414  0.00  0.00    +0.000 HD
BRANCH  22  24
ATOM     24  C   UNL     1       2.327   5.734  18.919  0.00  0.00    +0.000 C 
BRANCH  24  25
ATOM     25  C   UNL     1       3.450   5.507  17.923  0.00  0.00    +0.000 A 
ATOM     26  C   UNL     1       4.204   6.617  17.490  0.00  0.00    +0.000 A 
ATOM     27  C   UNL     1       5.239   6.470  16.559  0.00  0.00    +0.000 A 
ATOM     28  C   UNL     1       5.524   5.217  16.032  0.00  0.00    +0.000 A 
ATOM     29 CL   UNL     1       6.807   5.029  14.902  0.00  0.00    +0.000 Cl
ATOM     30  C   UNL     1       4.790   4.106  16.433  0.00  0.00    +0.000 A 
ATOM     31  C   UNL     1       3.763   4.248  17.377  0.00  0.00    +0.000 A 
ATOM     32 CL   UNL     1       2.939   2.803  17.847  0.00  0.00    +0.000 Cl
ENDBRANCH  24  25
ENDBRANCH  22  24
ENDBRANCH   7  22
TORSDOF 6
ENDMDL
MODEL 9
REMARK VINA RESULT:      -7.5      3.739      7.518
REMARK  Name = 
REMARK  6 active torsions:
REMARK  status: ('A' for Active; 'I' for Inactive)
REMARK    1  A    between atoms: C_4  and  C_5
REMARK    2  A    between atoms: N_7  and  C_8
REMARK    3  A    between atoms: C_8  and  C_9
REMARK    4  A    between atoms: C_19  and  N_20
REMARK    5  A    between atoms: N_20  and  C_21
REMARK    6  A    between atoms: C_21  and  C_22
REMARK                            x       y       z     vdW  Elec       q    Type
REMARK                         _______ _______ _______ _____ _____    ______ ____
ROOT
ATOM      1  O   UNL     1       7.629   6.241  15.899  0.00  0.00    +0.000 OA
ATOM      2  C   UNL     1       7.392   5.729  16.991  0.00  0.00    +0.000 C 
ATOM      3  N   UNL     1       6.949   4.449  17.171  0.00  0.00    +0.000 N 
ATOM      4  C   UNL     1       6.390   4.232  18.488  0.00  0.00    +0.000 C 
ATOM      5  C   UNL     1       6.925   5.385  19.334  0.00  0.00    +0.000 C 
ATOM      6  C   UNL     1       7.430   6.389  18.316  0.00  0.00    +0.000 C 
ATOM      7  C   UNL     1       7.819   7.643  18.558  0.00  0.00    +0.000 C 
ATOM      8  H   UNL     1       6.704   3.888  16.364  0.00  0.00    +0.000 HD
ENDROOT
BRANCH   4   9
ATOM      9  C   UNL     1       4.851   4.217  18.428  0.00  0.00    +0.000 C 
ATOM     10  O   UNL     1       4.253   3.569  17.572  0.00  0.00    +0.000 OA
ATOM     11  N   UNL     1       4.205   4.864  19.459  0.00  0.00    +0.000 N 
ATOM     12  H   UNL     1       4.744   5.318  20.187  0.00  0.00    +0.000 HD
BRANCH  11  13
ATOM     13  C   UNL     1       2.764   4.948  19.530  0.00  0.00    +0.000 C 
BRANCH  13  14
ATOM     14  C   UNL     1       2.315   6.383  19.613  0.00  0.00    +0.000 A 
ATOM     15  C   UNL     1       1.634   6.810  20.768  0.00  0.00    +0.000 A 
ATOM     16  C   UNL     1       1.197   8.131  20.893  0.00  0.00    +0.000 A 
ATOM     17  C   UNL     1       1.451   9.041  19.871  0.00  0.00    +0.000 A 
ATOM     18 CL   UNL     1       0.913  10.669  20.023  0.00  0.00    +0.000 Cl
ATOM     19  C   UNL     1       2.136   8.646  18.727  0.00  0.00    +0.000 A 
ATOM     20  C   UNL     1       2.569   7.323  18.600  0.00  0.00    +0.000 A 
ATOM     21 CL   UNL     1       3.426   6.903  17.160  0.00  0.00    +0.000 Cl
ENDBRANCH  13  14
ENDBRANCH  11  13
ENDBRANCH   4   9
BRANCH   7  22
ATOM     22  N   UNL     1       8.338   8.652  17.768  0.00  0.00    +0.000 N 
ATOM     23  H   UNL     1       8.660   8.321  16.859  0.00  0.00    +0.000 HD
BRANCH  22  24
ATOM     24  C   UNL     1       7.792  10.008  17.693  0.00  0.00    +0.000 C 
BRANCH  24  25
ATOM     25  C   UNL     1       8.862  10.990  18.136  0.00  0.00    +0.000 A 
ATOM     26  C   UNL     1       9.999  10.495  18.805  0.00  0.00    +0.000 A 
ATOM     27  C   UNL     1      11.008  11.356  19.253  0.00  0.00    +0.000 A 
ATOM     28  C   UNL     1      10.888  12.726  19.056  0.00  0.00    +0.000 A 
ATOM     29 CL   UNL     1      12.133  13.786  19.588  0.00  0.00    +0.000 Cl
ATOM     30  C   UNL     1       9.771  13.244  18.408  0.00  0.00    +0.000 A 
ATOM     31  C   UNL     1       8.767  12.381  17.945  0.00  0.00    +0.000 A 
ATOM     32 CL   UNL     1       7.441  13.114  17.110  0.00  0.00    +0.000 Cl
ENDBRANCH  24  25
ENDBRANCH  22  24
ENDBRANCH   7  22
TORSDOF 6
ENDMDL
