MODEL 1
REMARK VINA RESULT:      -8.5      0.000      0.000
REMARK  Name = 
REMARK  6 active torsions:
REMARK  status: ('A' for Active; 'I' for Inactive)
REMARK    1  A    between atoms: C_1  and  C_2
REMARK    2  A    between atoms: C_2  and  C_3
REMARK    3  A    between atoms: C_2  and  C_4
REMARK    4  A    between atoms: C_9  and  O_10
REMARK    5  A    between atoms: C_11  and  C_12
REMARK    6  A    between atoms: C_12  and  C_13
REMARK                            x       y       z     vdW  Elec       q    Type
REMARK                         _______ _______ _______ _____ _____    ______ ____
ROOT
ATOM      1  C   UNL     1      -1.185  16.293  23.992  0.00  0.00    +0.000 C 
ATOM      2  N   UNL     1      -0.009  15.505  22.735  0.00  0.00    +0.000 N 
ATOM      3  C   UNL     1      -0.240  14.590  21.377  0.00  0.00    +0.000 C 
ATOM      4  O   UNL     1      -1.069  15.150  20.628  0.00  0.00    +0.000 OA
ATOM      5  C   UNL     1       0.802  13.206  20.470  0.00  0.00    +0.000 C 
ATOM      6  C   UNL     1       1.420  11.889  19.201  0.00  0.00    +0.000 C 
ATOM      7  C   UNL     1       0.965  10.317  18.267  0.00  0.00    +0.000 C 
ATOM      8  N   UNL     1       2.111   9.129  17.984  0.00  0.00    +0.000 N 
ATOM      9  C   UNL     1       2.265   7.804  18.416  0.00  0.00    +0.000 C 
ATOM     10  O   UNL     1       2.646   6.955  17.567  0.00  0.00    +0.000 OA
ATOM     11  C   UNL     1       2.116   7.345  19.900  0.00  0.00    +0.000 C 
ATOM     12  C   UNL     1       1.258   8.396  20.458  0.00  0.00    +0.000 C 
ATOM     13  C   UNL     1       0.867   8.735  21.861  0.00  0.00    +0.000 C 
ATOM     14  C   UNL     1       0.032   9.990  21.581  0.00  0.00    +0.000 C 
ATOM     15  C   UNL     1      -0.486  10.710  22.770  0.00  0.00    +0.000 C 
ATOM     16  C   UNL     1      -1.482  11.731  22.267  0.00  0.00    +0.000 C 
ATOM     17  C   UNL     1      -1.928  12.566  23.423  0.00  0.00    +0.000 C 
ATOM     18  C   UNL     1      -3.003  13.495  22.929  0.00  0.00    +0.000 C 
ATOM     19  C   UNL     1      -3.754  14.078  24.098  0.00  0.00    +0.000 C 
ATOM     20  C   UNL     1      -4.409  15.355  23.607  0.00  0.00    +0.000 C 
ATOM     21  C   UNL     1      -4.199  16.471  24.588  0.00  0.00    +0.000 C 
ATOM     22  N   UNL     1      -3.415  17.500  23.917  0.00  0.00    +0.000 N 
ATOM     23  C   UNL     1      -2.118  17.413  23.436  0.00  0.00    +0.000 C 
ATOM     24  O   UNL     1      -1.665  18.374  22.812  0.00  0.00    +0.000 OA
ATOM     25  H   UNL     1       0.104  16.399  22.228  0.00  0.00    +0.000 HD
ATOM     26  H   UNL     1       2.216   9.008  16.959  0.00  0.00    +0.000 HD
ATOM     27  H   UNL     1      -3.878  18.385  23.748  0.00  0.00    +0.000 HD
ENDROOT
BRANCH   1  29
ATOM     28  C   UNL     1       0.313  18.228  25.783  0.00  0.00    +0.000 C 
ATOM     29  C   UNL     1      -0.858  17.269  25.536  0.00  0.00    +0.000 C 
ATOM     30  C   UNL     1      -0.690  16.431  26.974  0.00  0.00    +0.000 C 
ENDBRANCH   1  29
BRANCH   6  31
ATOM     31  O   UNL     1       2.187  12.586  18.188  0.00  0.00    +0.000 OA
ATOM     32  H   UNL     1       1.816  12.356  17.327  0.00  0.00    +0.000 HD
ENDBRANCH   6  31
BRANCH   7  33
ATOM     33  C   UNL     1      -0.427   9.627  17.949  0.00  0.00    +0.000 C 
BRANCH  33  34
ATOM     34  C   UNL     1      -1.423  10.473  17.131  0.00  0.00    +0.000 C 
ATOM     35  C   UNL     1      -2.718   9.719  16.746  0.00  0.00    +0.000 C 
ATOM     36  C   UNL     1      -3.802   9.701  17.827  0.00  0.00    +0.000 C 
ATOM     37  C   UNL     1      -4.153  11.114  18.257  0.00  0.00    +0.000 C 
ATOM     38  C   UNL     1      -2.921  11.817  18.807  0.00  0.00    +0.000 C 
ATOM     39  C   UNL     1      -1.756  11.822  17.809  0.00  0.00    +0.000 C 
ENDBRANCH  33  34
ENDBRANCH   7  33
TORSDOF 4
ENDMDL
MODEL 2
REMARK VINA RESULT:      -7.9      0.546      1.009
REMARK  Name = 
REMARK  6 active torsions:
REMARK  status: ('A' for Active; 'I' for Inactive)
REMARK    1  A    between atoms: C_1  and  C_2
REMARK    2  A    between atoms: C_2  and  C_3
REMARK    3  A    between atoms: C_2  and  C_4
REMARK    4  A    between atoms: C_9  and  O_10
REMARK    5  A    between atoms: C_11  and  C_12
REMARK    6  A    between atoms: C_12  and  C_13
REMARK                            x       y       z     vdW  Elec       q    Type
REMARK                         _______ _______ _______ _____ _____    ______ ____
ROOT
ATOM      1  C   UNL     1      -1.281  16.290  23.921  0.00  0.00    +0.000 C 
ATOM      2  N   UNL     1      -0.092  15.515  22.668  0.00  0.00    +0.000 N 
ATOM      3  C   UNL     1      -0.308  14.588  21.316  0.00  0.00    +0.000 C 
ATOM      4  O   UNL     1      -1.147  15.129  20.564  0.00  0.00    +0.000 OA
ATOM      5  C   UNL     1       0.758  13.217  20.416  0.00  0.00    +0.000 C 
ATOM      6  C   UNL     1       1.397  11.904  19.155  0.00  0.00    +0.000 C 
ATOM      7  C   UNL     1       0.969  10.318  18.230  0.00  0.00    +0.000 C 
ATOM      8  N   UNL     1       2.135   9.149  17.953  0.00  0.00    +0.000 N 
ATOM      9  C   UNL     1       2.312   7.829  18.393  0.00  0.00    +0.000 C 
ATOM     10  O   UNL     1       2.707   6.981  17.549  0.00  0.00    +0.000 OA
ATOM     11  C   UNL     1       2.173   7.376  19.880  0.00  0.00    +0.000 C 
ATOM     12  C   UNL     1       1.296   8.416  20.432  0.00  0.00    +0.000 C 
ATOM     13  C   UNL     1       0.901   8.756  21.834  0.00  0.00    +0.000 C 
ATOM     14  C   UNL     1       0.044   9.994  21.547  0.00  0.00    +0.000 C 
ATOM     15  C   UNL     1      -0.486  10.712  22.731  0.00  0.00    +0.000 C 
ATOM     16  C   UNL     1      -1.499  11.713  22.224  0.00  0.00    +0.000 C 
ATOM     17  C   UNL     1      -1.959  12.547  23.375  0.00  0.00    +0.000 C 
ATOM     18  C   UNL     1      -3.050  13.454  22.877  0.00  0.00    +0.000 C 
ATOM     19  C   UNL     1      -3.810  14.031  24.042  0.00  0.00    +0.000 C 
ATOM     20  C   UNL     1      -4.488  15.294  23.544  0.00  0.00    +0.000 C 
ATOM     21  C   UNL     1      -4.297  16.418  24.519  0.00  0.00    +0.000 C 
ATOM     22  N   UNL     1      -3.531  17.457  23.841  0.00  0.00    +0.000 N 
ATOM     23  C   UNL     1      -2.233  17.390  23.360  0.00  0.00    +0.000 C 
ATOM     24  O   UNL     1      -1.797  18.355  22.730  0.00  0.00    +0.000 OA
ATOM     25  H   UNL     1       0.005  16.407  22.156  0.00  0.00    +0.000 HD
ATOM     26  H   UNL     1       2.241   9.023  16.929  0.00  0.00    +0.000 HD
ATOM     27  H   UNL     1      -4.010  18.333  23.668  0.00  0.00    +0.000 HD
ENDROOT
BRANCH   1  29
ATOM     28  C   UNL     1       0.161  18.292  25.684  0.00  0.00    +0.000 C 
ATOM     29  C   UNL     1      -0.969  17.280  25.459  0.00  0.00    +0.000 C 
ATOM     30  C   UNL     1      -0.736  16.451  26.893  0.00  0.00    +0.000 C 
ENDBRANCH   1  29
BRANCH   6  31
ATOM     31  O   UNL     1       2.151  12.608  18.137  0.00  0.00    +0.000 OA
ATOM     32  H   UNL     1       1.524  12.938  17.481  0.00  0.00    +0.000 HD
ENDBRANCH   6  31
BRANCH   7  33
ATOM     33  C   UNL     1      -0.412   9.603  17.918  0.00  0.00    +0.000 C 
BRANCH  33  34
ATOM     34  C   UNL     1      -1.678  10.387  18.315  0.00  0.00    +0.000 C 
ATOM     35  C   UNL     1      -1.865  11.712  17.538  0.00  0.00    +0.000 C 
ATOM     36  C   UNL     1      -2.525  11.569  16.164  0.00  0.00    +0.000 C 
ATOM     37  C   UNL     1      -3.865  10.866  16.284  0.00  0.00    +0.000 C 
ATOM     38  C   UNL     1      -3.678   9.481  16.886  0.00  0.00    +0.000 C 
ATOM     39  C   UNL     1      -2.959   9.524  18.241  0.00  0.00    +0.000 C 
ENDBRANCH  33  34
ENDBRANCH   7  33
TORSDOF 4
ENDMDL
MODEL 3
REMARK VINA RESULT:      -6.7      7.014      9.457
REMARK  Name = 
REMARK  6 active torsions:
REMARK  status: ('A' for Active; 'I' for Inactive)
REMARK    1  A    between atoms: C_1  and  C_2
REMARK    2  A    between atoms: C_2  and  C_3
REMARK    3  A    between atoms: C_2  and  C_4
REMARK    4  A    between atoms: C_9  and  O_10
REMARK    5  A    between atoms: C_11  and  C_12
REMARK    6  A    between atoms: C_12  and  C_13
REMARK                            x       y       z     vdW  Elec       q    Type
REMARK                         _______ _______ _______ _____ _____    ______ ____
ROOT
ATOM      1  C   UNL     1       0.469  16.433  20.020  0.00  0.00    +0.000 C 
ATOM      2  N   UNL     1       2.158  17.252  19.774  0.00  0.00    +0.000 N 
ATOM      3  C   UNL     1       3.623  16.702  19.239  0.00  0.00    +0.000 C 
ATOM      4  O   UNL     1       3.476  16.100  18.154  0.00  0.00    +0.000 OA
ATOM      5  C   UNL     1       5.481  17.199  19.595  0.00  0.00    +0.000 C 
ATOM      6  C   UNL     1       7.407  17.313  19.546  0.00  0.00    +0.000 C 
ATOM      7  C   UNL     1       9.013  16.336  19.688  0.00  0.00    +0.000 C 
ATOM      8  N   UNL     1      10.358  17.007  20.427  0.00  0.00    +0.000 N 
ATOM      9  C   UNL     1      11.076  16.709  21.593  0.00  0.00    +0.000 C 
ATOM     10  O   UNL     1      12.333  16.766  21.535  0.00  0.00    +0.000 OA
ATOM     11  C   UNL     1      10.416  16.438  22.982  0.00  0.00    +0.000 C 
ATOM     12  C   UNL     1       9.071  15.996  22.596  0.00  0.00    +0.000 C 
ATOM     13  C   UNL     1       7.823  15.766  23.389  0.00  0.00    +0.000 C 
ATOM     14  C   UNL     1       6.874  15.402  22.241  0.00  0.00    +0.000 C 
ATOM     15  C   UNL     1       5.456  15.178  22.611  0.00  0.00    +0.000 C 
ATOM     16  C   UNL     1       4.774  14.579  21.402  0.00  0.00    +0.000 C 
ATOM     17  C   UNL     1       3.313  14.462  21.691  0.00  0.00    +0.000 C 
ATOM     18  C   UNL     1       2.670  13.757  20.528  0.00  0.00    +0.000 C 
ATOM     19  C   UNL     1       1.300  13.268  20.918  0.00  0.00    +0.000 C 
ATOM     20  C   UNL     1       0.519  13.077  19.632  0.00  0.00    +0.000 C 
ATOM     21  C   UNL     1      -0.855  13.668  19.752  0.00  0.00    +0.000 C 
ATOM     22  N   UNL     1      -0.954  14.743  18.773  0.00  0.00    +0.000 N 
ATOM     23  C   UNL     1      -0.233  15.927  18.723  0.00  0.00    +0.000 C 
ATOM     24  O   UNL     1      -0.402  16.668  17.754  0.00  0.00    +0.000 OA
ATOM     25  H   UNL     1       1.871  17.653  18.866  0.00  0.00    +0.000 HD
ATOM     26  H   UNL     1      11.129  17.048  19.734  0.00  0.00    +0.000 HD
ATOM     27  H   UNL     1      -1.607  14.605  18.012  0.00  0.00    +0.000 HD
ENDROOT
BRANCH   1  29
ATOM     28  C   UNL     1      -1.437  18.553  21.054  0.00  0.00    +0.000 C 
ATOM     29  C   UNL     1      -1.133  17.097  20.682  0.00  0.00    +0.000 C 
ATOM     30  C   UNL     1      -1.731  16.437  22.098  0.00  0.00    +0.000 C 
ENDBRANCH   1  29
BRANCH   6  31
ATOM     31  O   UNL     1       7.761  18.254  18.503  0.00  0.00    +0.000 OA
ATOM     32  H   UNL     1       7.966  17.748  17.706  0.00  0.00    +0.000 HD
ENDBRANCH   6  31
BRANCH   7  33
ATOM     33  C   UNL     1       9.335  14.788  19.577  0.00  0.00    +0.000 C 
BRANCH  33  34
ATOM     34  C   UNL     1      10.308  14.385  18.451  0.00  0.00    +0.000 C 
ATOM     35  C   UNL     1      11.757  14.135  18.933  0.00  0.00    +0.000 C 
ATOM     36  C   UNL     1      12.017  12.736  19.500  0.00  0.00    +0.000 C 
ATOM     37  C   UNL     1      11.634  11.669  18.491  0.00  0.00    +0.000 C 
ATOM     38  C   UNL     1      10.159  11.789  18.136  0.00  0.00    +0.000 C 
ATOM     39  C   UNL     1       9.792  13.187  17.621  0.00  0.00    +0.000 C 
ENDBRANCH  33  34
ENDBRANCH   7  33
TORSDOF 4
ENDMDL
MODEL 4
REMARK VINA RESULT:      -6.6      5.908      9.732
REMARK  Name = 
REMARK  6 active torsions:
REMARK  status: ('A' for Active; 'I' for Inactive)
REMARK    1  A    between atoms: C_1  and  C_2
REMARK    2  A    between atoms: C_2  and  C_3
REMARK    3  A    between atoms: C_2  and  C_4
REMARK    4  A    between atoms: C_9  and  O_10
REMARK    5  A    between atoms: C_11  and  C_12
REMARK    6  A    between atoms: C_12  and  C_13
REMARK                            x       y       z     vdW  Elec       q    Type
REMARK                         _______ _______ _______ _____ _____    ______ ____
ROOT
ATOM      1  C   UNL     1       9.143  15.444  19.492  0.00  0.00    +0.000 C 
ATOM      2  N   UNL     1       7.613  15.955  20.484  0.00  0.00    +0.000 N 
ATOM      3  C   UNL     1       6.190  15.198  20.853  0.00  0.00    +0.000 C 
ATOM      4  O   UNL     1       6.426  14.063  21.323  0.00  0.00    +0.000 OA
ATOM      5  C   UNL     1       4.369  15.813  21.213  0.00  0.00    +0.000 C 
ATOM      6  C   UNL     1       2.497  15.880  21.678  0.00  0.00    +0.000 C 
ATOM      7  C   UNL     1       0.787  15.189  21.290  0.00  0.00    +0.000 C 
ATOM      8  N   UNL     1      -0.567  16.173  21.357  0.00  0.00    +0.000 N 
ATOM      9  C   UNL     1      -1.478  16.638  20.398  0.00  0.00    +0.000 C 
ATOM     10  O   UNL     1      -2.699  16.652  20.712  0.00  0.00    +0.000 OA
ATOM     11  C   UNL     1      -1.066  17.254  19.024  0.00  0.00    +0.000 C 
ATOM     12  C   UNL     1       0.262  16.666  18.816  0.00  0.00    +0.000 C 
ATOM     13  C   UNL     1       1.345  16.956  17.825  0.00  0.00    +0.000 C 
ATOM     14  C   UNL     1       2.405  15.971  18.334  0.00  0.00    +0.000 C 
ATOM     15  C   UNL     1       3.718  16.011  17.647  0.00  0.00    +0.000 C 
ATOM     16  C   UNL     1       4.498  14.805  18.116  0.00  0.00    +0.000 C 
ATOM     17  C   UNL     1       5.877  14.881  17.547  0.00  0.00    +0.000 C 
ATOM     18  C   UNL     1       6.600  13.617  17.925  0.00  0.00    +0.000 C 
ATOM     19  C   UNL     1       7.833  13.456  17.075  0.00  0.00    +0.000 C 
ATOM     20  C   UNL     1       8.768  12.528  17.826  0.00  0.00    +0.000 C 
ATOM     21  C   UNL     1      10.167  13.070  17.824  0.00  0.00    +0.000 C 
ATOM     22  N   UNL     1      10.532  13.340  19.209  0.00  0.00    +0.000 N 
ATOM     23  C   UNL     1       9.966  14.258  20.082  0.00  0.00    +0.000 C 
ATOM     24  O   UNL     1      10.360  14.267  21.249  0.00  0.00    +0.000 OA
ATOM     25  H   UNL     1       8.075  15.728  21.380  0.00  0.00    +0.000 HD
ATOM     26  H   UNL     1      -1.218  15.791  22.068  0.00  0.00    +0.000 HD
ATOM     27  H   UNL     1      11.270  12.770  19.604  0.00  0.00    +0.000 HD
ENDROOT
BRANCH   1  29
ATOM     28  C   UNL     1      11.127  17.734  19.613  0.00  0.00    +0.000 C 
ATOM     29  C   UNL     1      10.695  16.368  19.066  0.00  0.00    +0.000 C 
ATOM     30  C   UNL     1      10.971  16.739  17.459  0.00  0.00    +0.000 C 
ENDBRANCH   1  29
BRANCH   6  31
ATOM     31  O   UNL     1       2.410  16.006  23.119  0.00  0.00    +0.000 OA
ATOM     32  H   UNL     1       3.261  16.332  23.438  0.00  0.00    +0.000 HD
ENDBRANCH   6  31
BRANCH   7  33
ATOM     33  C   UNL     1       0.310  13.886  20.523  0.00  0.00    +0.000 C 
BRANCH  33  34
ATOM     34  C   UNL     1       1.258  12.674  20.607  0.00  0.00    +0.000 C 
ATOM     35  C   UNL     1       0.646  11.446  21.324  0.00  0.00    +0.000 C 
ATOM     36  C   UNL     1      -0.230  10.553  20.441  0.00  0.00    +0.000 C 
ATOM     37  C   UNL     1       0.541  10.086  19.219  0.00  0.00    +0.000 C 
ATOM     38  C   UNL     1       1.001  11.284  18.401  0.00  0.00    +0.000 C 
ATOM     39  C   UNL     1       1.833  12.273  19.229  0.00  0.00    +0.000 C 
ENDBRANCH  33  34
ENDBRANCH   7  33
TORSDOF 4
ENDMDL
MODEL 5
REMARK VINA RESULT:      -6.5      5.334      8.993
REMARK  Name = 
REMARK  6 active torsions:
REMARK  status: ('A' for Active; 'I' for Inactive)
REMARK    1  A    between atoms: C_1  and  C_2
REMARK    2  A    between atoms: C_2  and  C_3
REMARK    3  A    between atoms: C_2  and  C_4
REMARK    4  A    between atoms: C_9  and  O_10
REMARK    5  A    between atoms: C_11  and  C_12
REMARK    6  A    between atoms: C_12  and  C_13
REMARK                            x       y       z     vdW  Elec       q    Type
REMARK                         _______ _______ _______ _____ _____    ______ ____
ROOT
ATOM      1  C   UNL     1       7.671  16.190  20.296  0.00  0.00    +0.000 C 
ATOM      2  N   UNL     1       6.051  16.401  21.253  0.00  0.00    +0.000 N 
ATOM      3  C   UNL     1       4.656  15.518  21.339  0.00  0.00    +0.000 C 
ATOM      4  O   UNL     1       4.929  14.320  21.570  0.00  0.00    +0.000 OA
ATOM      5  C   UNL     1       2.781  15.957  21.680  0.00  0.00    +0.000 C 
ATOM      6  C   UNL     1       0.882  15.835  22.001  0.00  0.00    +0.000 C 
ATOM      7  C   UNL     1      -0.754  15.170  21.341  0.00  0.00    +0.000 C 
ATOM      8  N   UNL     1      -2.167  16.053  21.513  0.00  0.00    +0.000 N 
ATOM      9  C   UNL     1      -3.039  16.675  20.609  0.00  0.00    +0.000 C 
ATOM     10  O   UNL     1      -4.276  16.564  20.823  0.00  0.00    +0.000 OA
ATOM     11  C   UNL     1      -2.575  17.595  19.437  0.00  0.00    +0.000 C 
ATOM     12  C   UNL     1      -1.203  17.127  19.210  0.00  0.00    +0.000 C 
ATOM     13  C   UNL     1      -0.077  17.676  18.392  0.00  0.00    +0.000 C 
ATOM     14  C   UNL     1       1.005  16.653  18.759  0.00  0.00    +0.000 C 
ATOM     15  C   UNL     1       2.356  16.902  18.200  0.00  0.00    +0.000 C 
ATOM     16  C   UNL     1       3.175  15.658  18.458  0.00  0.00    +0.000 C 
ATOM     17  C   UNL     1       4.582  15.920  18.028  0.00  0.00    +0.000 C 
ATOM     18  C   UNL     1       5.354  14.638  18.180  0.00  0.00    +0.000 C 
ATOM     19  C   UNL     1       6.648  14.724  17.413  0.00  0.00    +0.000 C 
ATOM     20  C   UNL     1       7.587  13.697  18.017  0.00  0.00    +0.000 C 
ATOM     21  C   UNL     1       8.947  14.288  18.241  0.00  0.00    +0.000 C 
ATOM     22  N   UNL     1       9.202  14.264  19.676  0.00  0.00    +0.000 N 
ATOM     23  C   UNL     1       8.525  14.942  20.679  0.00  0.00    +0.000 C 
ATOM     24  O   UNL     1       8.839  14.713  21.847  0.00  0.00    +0.000 OA
ATOM     25  H   UNL     1       6.466  16.005  22.113  0.00  0.00    +0.000 HD
ATOM     26  H   UNL     1      -2.839  15.495  22.073  0.00  0.00    +0.000 HD
ATOM     27  H   UNL     1       9.946  13.656  19.995  0.00  0.00    +0.000 HD
ENDROOT
BRANCH   1  29
ATOM     28  C   UNL     1       9.494  18.493  21.052  0.00  0.00    +0.000 C 
ATOM     29  C   UNL     1       9.189  17.254  20.201  0.00  0.00    +0.000 C 
ATOM     30  C   UNL     1       9.556  17.967  18.733  0.00  0.00    +0.000 C 
ENDBRANCH   1  29
BRANCH   6  31
ATOM     31  O   UNL     1       0.692  15.638  23.425  0.00  0.00    +0.000 OA
ATOM     32  H   UNL     1      -0.198  15.937  23.647  0.00  0.00    +0.000 HD
ENDBRANCH   6  31
BRANCH   7  33
ATOM     33  C   UNL     1      -1.099  14.046  20.277  0.00  0.00    +0.000 C 
BRANCH  33  34
ATOM     34  C   UNL     1       0.098  13.226  19.756  0.00  0.00    +0.000 C 
ATOM     35  C   UNL     1       0.732  12.296  20.818  0.00  0.00    +0.000 C 
ATOM     36  C   UNL     1       0.032  10.946  20.996  0.00  0.00    +0.000 C 
ATOM     37  C   UNL     1      -0.052  10.209  19.671  0.00  0.00    +0.000 C 
ATOM     38  C   UNL     1      -0.831  11.036  18.660  0.00  0.00    +0.000 C 
ATOM     39  C   UNL     1      -0.237  12.438  18.469  0.00  0.00    +0.000 C 
ENDBRANCH  33  34
ENDBRANCH   7  33
TORSDOF 4
ENDMDL
MODEL 6
REMARK VINA RESULT:      -6.4      4.287      7.732
REMARK  Name = 
REMARK  6 active torsions:
REMARK  status: ('A' for Active; 'I' for Inactive)
REMARK    1  A    between atoms: C_1  and  C_2
REMARK    2  A    between atoms: C_2  and  C_3
REMARK    3  A    between atoms: C_2  and  C_4
REMARK    4  A    between atoms: C_9  and  O_10
REMARK    5  A    between atoms: C_11  and  C_12
REMARK    6  A    between atoms: C_12  and  C_13
REMARK                            x       y       z     vdW  Elec       q    Type
REMARK                         _______ _______ _______ _____ _____    ______ ____
ROOT
ATOM      1  C   UNL     1       5.470  16.101  21.113  0.00  0.00    +0.000 C 
ATOM      2  N   UNL     1       3.903  15.597  22.048  0.00  0.00    +0.000 N 
ATOM      3  C   UNL     1       2.667  14.549  21.718  0.00  0.00    +0.000 C 
ATOM      4  O   UNL     1       3.135  13.436  21.394  0.00  0.00    +0.000 OA
ATOM      5  C   UNL     1       0.774  14.474  22.201  0.00  0.00    +0.000 C 
ATOM      6  C   UNL     1      -1.059  13.911  22.416  0.00  0.00    +0.000 C 
ATOM      7  C   UNL     1      -2.614  13.343  21.514  0.00  0.00    +0.000 C 
ATOM      8  N   UNL     1      -4.131  13.812  22.047  0.00  0.00    +0.000 N 
ATOM      9  C   UNL     1      -5.145  14.614  21.507  0.00  0.00    +0.000 C 
ATOM     10  O   UNL     1      -6.334  14.217  21.637  0.00  0.00    +0.000 OA
ATOM     11  C   UNL     1      -4.905  16.020  20.872  0.00  0.00    +0.000 C 
ATOM     12  C   UNL     1      -3.495  15.935  20.474  0.00  0.00    +0.000 C 
ATOM     13  C   UNL     1      -2.523  16.966  19.997  0.00  0.00    +0.000 C 
ATOM     14  C   UNL     1      -1.275  16.082  19.879  0.00  0.00    +0.000 C 
ATOM     15  C   UNL     1      -0.018  16.772  19.503  0.00  0.00    +0.000 C 
ATOM     16  C   UNL     1       0.997  15.697  19.188  0.00  0.00    +0.000 C 
ATOM     17  C   UNL     1       2.316  16.350  18.932  0.00  0.00    +0.000 C 
ATOM     18  C   UNL     1       3.283  15.280  18.504  0.00  0.00    +0.000 C 
ATOM     19  C   UNL     1       4.496  15.909  17.869  0.00  0.00    +0.000 C 
ATOM     20  C   UNL     1       5.618  14.892  17.961  0.00  0.00    +0.000 C 
ATOM     21  C   UNL     1       6.884  15.541  18.438  0.00  0.00    +0.000 C 
ATOM     22  N   UNL     1       7.233  14.930  19.714  0.00  0.00    +0.000 N 
ATOM     23  C   UNL     1       6.527  14.973  20.907  0.00  0.00    +0.000 C 
ATOM     24  O   UNL     1       6.949  14.309  21.854  0.00  0.00    +0.000 OA
ATOM     25  H   UNL     1       4.429  14.938  22.645  0.00  0.00    +0.000 HD
ATOM     26  H   UNL     1      -4.672  12.962  22.293  0.00  0.00    +0.000 HD
ATOM     27  H   UNL     1       8.080  14.376  19.735  0.00  0.00    +0.000 HD
ENDROOT
BRANCH   1  29
ATOM     28  C   UNL     1       6.924  18.155  22.805  0.00  0.00    +0.000 C 
ATOM     29  C   UNL     1       6.798  17.334  21.516  0.00  0.00    +0.000 C 
ATOM     30  C   UNL     1       7.011  18.626  20.476  0.00  0.00    +0.000 C 
ENDBRANCH   1  29
BRANCH   6  31
ATOM     31  O   UNL     1      -1.123  13.078  23.601  0.00  0.00    +0.000 OA
ATOM     32  H   UNL     1      -1.468  13.618  24.323  0.00  0.00    +0.000 HD
ENDBRANCH   6  31
BRANCH   7  33
ATOM     33  C   UNL     1      -2.852  12.763  20.057  0.00  0.00    +0.000 C 
BRANCH  33  34
ATOM     34  C   UNL     1      -1.591  12.602  19.185  0.00  0.00    +0.000 C 
ATOM     35  C   UNL     1      -0.454  11.806  19.868  0.00  0.00    +0.000 C 
ATOM     36  C   UNL     1      -0.579  10.283  19.765  0.00  0.00    +0.000 C 
ATOM     37  C   UNL     1      -0.691   9.852  18.313  0.00  0.00    +0.000 C 
ATOM     38  C   UNL     1      -1.914  10.490  17.670  0.00  0.00    +0.000 C 
ATOM     39  C   UNL     1      -1.906  12.019  17.788  0.00  0.00    +0.000 C 
ENDBRANCH  33  34
ENDBRANCH   7  33
TORSDOF 4
ENDMDL
MODEL 7
REMARK VINA RESULT:      -6.3      5.831      9.442
REMARK  Name = 
REMARK  6 active torsions:
REMARK  status: ('A' for Active; 'I' for Inactive)
REMARK    1  A    between atoms: C_1  and  C_2
REMARK    2  A    between atoms: C_2  and  C_3
REMARK    3  A    between atoms: C_2  and  C_4
REMARK    4  A    between atoms: C_9  and  O_10
REMARK    5  A    between atoms: C_11  and  C_12
REMARK    6  A    between atoms: C_12  and  C_13
REMARK                            x       y       z     vdW  Elec       q    Type
REMARK                         _______ _______ _______ _____ _____    ______ ____
ROOT
ATOM      1  C   UNL     1       8.743  15.695  20.201  0.00  0.00    +0.000 C 
ATOM      2  N   UNL     1       7.105  16.094  21.062  0.00  0.00    +0.000 N 
ATOM      3  C   UNL     1       5.653  15.310  21.166  0.00  0.00    +0.000 C 
ATOM      4  O   UNL     1       5.839  14.125  21.518  0.00  0.00    +0.000 OA
ATOM      5  C   UNL     1       3.799  15.892  21.384  0.00  0.00    +0.000 C 
ATOM      6  C   UNL     1       1.885  15.918  21.631  0.00  0.00    +0.000 C 
ATOM      7  C   UNL     1       0.236  15.295  20.964  0.00  0.00    +0.000 C 
ATOM      8  N   UNL     1      -1.122  16.274  20.992  0.00  0.00    +0.000 N 
ATOM      9  C   UNL     1      -1.918  16.861  19.998  0.00  0.00    +0.000 C 
ATOM     10  O   UNL     1      -3.166  16.847  20.166  0.00  0.00    +0.000 OA
ATOM     11  C   UNL     1      -1.351  17.637  18.768  0.00  0.00    +0.000 C 
ATOM     12  C   UNL     1      -0.004  17.067  18.645  0.00  0.00    +0.000 C 
ATOM     13  C   UNL     1       1.185  17.467  17.831  0.00  0.00    +0.000 C 
ATOM     14  C   UNL     1       2.184  16.419  18.336  0.00  0.00    +0.000 C 
ATOM     15  C   UNL     1       3.569  16.531  17.817  0.00  0.00    +0.000 C 
ATOM     16  C   UNL     1       4.295  15.269  18.223  0.00  0.00    +0.000 C 
ATOM     17  C   UNL     1       5.731  15.403  17.833  0.00  0.00    +0.000 C 
ATOM     18  C   UNL     1       6.412  14.096  18.135  0.00  0.00    +0.000 C 
ATOM     19  C   UNL     1       7.737  14.030  17.421  0.00  0.00    +0.000 C 
ATOM     20  C   UNL     1       8.583  13.009  18.157  0.00  0.00    +0.000 C 
ATOM     21  C   UNL     1       9.970  13.534  18.385  0.00  0.00    +0.000 C 
ATOM     22  N   UNL     1      10.168  13.630  19.826  0.00  0.00    +0.000 N 
ATOM     23  C   UNL     1       9.499  14.439  20.733  0.00  0.00    +0.000 C 
ATOM     24  O   UNL     1       9.753  14.302  21.930  0.00  0.00    +0.000 OA
ATOM     25  H   UNL     1       7.460  15.756  21.972  0.00  0.00    +0.000 HD
ATOM     26  H   UNL     1      -1.850  15.814  21.570  0.00  0.00    +0.000 HD
ATOM     27  H   UNL     1      10.858  13.010  20.232  0.00  0.00    +0.000 HD
ENDROOT
BRANCH   1  29
ATOM     28  C   UNL     1      10.674  17.954  20.807  0.00  0.00    +0.000 C 
ATOM     29  C   UNL     1      10.329  16.651  20.076  0.00  0.00    +0.000 C 
ATOM     30  C   UNL     1      10.809  17.180  18.563  0.00  0.00    +0.000 C 
ENDBRANCH   1  29
BRANCH   6  31
ATOM     31  O   UNL     1       1.629  15.867  23.057  0.00  0.00    +0.000 OA
ATOM     32  H   UNL     1       1.682  16.769  23.398  0.00  0.00    +0.000 HD
ENDBRANCH   6  31
BRANCH   7  33
ATOM     33  C   UNL     1      -0.141  14.099  19.993  0.00  0.00    +0.000 C 
BRANCH  33  34
ATOM     34  C   UNL     1      -0.950  12.950  20.627  0.00  0.00    +0.000 C 
ATOM     35  C   UNL     1      -1.773  12.125  19.609  0.00  0.00    +0.000 C 
ATOM     36  C   UNL     1      -0.992  11.023  18.887  0.00  0.00    +0.000 C 
ATOM     37  C   UNL     1      -0.346  10.082  19.888  0.00  0.00    +0.000 C 
ATOM     38  C   UNL     1       0.609  10.851  20.789  0.00  0.00    +0.000 C 
ATOM     39  C   UNL     1      -0.077  12.023  21.504  0.00  0.00    +0.000 C 
ENDBRANCH  33  34
ENDBRANCH   7  33
TORSDOF 4
ENDMDL
MODEL 8
REMARK VINA RESULT:      -6.2      4.237      7.586
REMARK  Name = 
REMARK  6 active torsions:
REMARK  status: ('A' for Active; 'I' for Inactive)
REMARK    1  A    between atoms: C_1  and  C_2
REMARK    2  A    between atoms: C_2  and  C_3
REMARK    3  A    between atoms: C_2  and  C_4
REMARK    4  A    between atoms: C_9  and  O_10
REMARK    5  A    between atoms: C_11  and  C_12
REMARK    6  A    between atoms: C_12  and  C_13
REMARK                            x       y       z     vdW  Elec       q    Type
REMARK                         _______ _______ _______ _____ _____    ______ ____
ROOT
ATOM      1  C   UNL     1      -5.431  13.414  22.152  0.00  0.00    +0.000 C 
ATOM      2  N   UNL     1      -3.674  12.923  21.648  0.00  0.00    +0.000 N 
ATOM      3  C   UNL     1      -2.172  13.455  22.090  0.00  0.00    +0.000 C 
ATOM      4  O   UNL     1      -2.081  13.469  23.337  0.00  0.00    +0.000 OA
ATOM      5  C   UNL     1      -0.437  13.547  21.193  0.00  0.00    +0.000 C 
ATOM      6  C   UNL     1       1.438  13.806  20.813  0.00  0.00    +0.000 C 
ATOM      7  C   UNL     1       2.862  15.040  20.853  0.00  0.00    +0.000 C 
ATOM      8  N   UNL     1       4.020  15.048  19.643  0.00  0.00    +0.000 N 
ATOM      9  C   UNL     1       4.379  15.970  18.649  0.00  0.00    +0.000 C 
ATOM     10  O   UNL     1       5.609  16.143  18.432  0.00  0.00    +0.000 OA
ATOM     11  C   UNL     1       3.359  16.694  17.716  0.00  0.00    +0.000 C 
ATOM     12  C   UNL     1       2.129  16.642  18.514  0.00  0.00    +0.000 C 
ATOM     13  C   UNL     1       0.703  16.949  18.183  0.00  0.00    +0.000 C 
ATOM     14  C   UNL     1       0.060  16.569  19.522  0.00  0.00    +0.000 C 
ATOM     15  C   UNL     1      -1.420  16.649  19.583  0.00  0.00    +0.000 C 
ATOM     16  C   UNL     1      -1.810  16.499  21.036  0.00  0.00    +0.000 C 
ATOM     17  C   UNL     1      -3.300  16.441  21.123  0.00  0.00    +0.000 C 
ATOM     18  C   UNL     1      -3.674  16.412  22.580  0.00  0.00    +0.000 C 
ATOM     19  C   UNL     1      -5.134  16.742  22.742  0.00  0.00    +0.000 C 
ATOM     20  C   UNL     1      -5.566  16.183  24.084  0.00  0.00    +0.000 C 
ATOM     21  C   UNL     1      -6.868  15.448  23.959  0.00  0.00    +0.000 C 
ATOM     22  N   UNL     1      -6.616  14.054  24.301  0.00  0.00    +0.000 N 
ATOM     23  C   UNL     1      -5.810  13.140  23.640  0.00  0.00    +0.000 C 
ATOM     24  O   UNL     1      -5.657  12.028  24.146  0.00  0.00    +0.000 OA
ATOM     25  H   UNL     1      -3.679  12.112  22.288  0.00  0.00    +0.000 HD
ATOM     26  H   UNL     1       4.945  14.858  20.069  0.00  0.00    +0.000 HD
ATOM     27  H   UNL     1      -7.057  13.707  25.144  0.00  0.00    +0.000 HD
ENDROOT
BRANCH   1  29
ATOM     28  C   UNL     1      -7.390  11.467  20.899  0.00  0.00    +0.000 C 
ATOM     29  C   UNL     1      -7.088  12.812  21.572  0.00  0.00    +0.000 C 
ATOM     30  C   UNL     1      -7.916  13.744  20.457  0.00  0.00    +0.000 C 
ENDBRANCH   1  29
BRANCH   6  31
ATOM     31  O   UNL     1       2.131  12.590  21.188  0.00  0.00    +0.000 OA
ATOM     32  H   UNL     1       1.646  12.188  21.920  0.00  0.00    +0.000 HD
ENDBRANCH   6  31
BRANCH   7  33
ATOM     33  C   UNL     1       3.071  16.407  21.630  0.00  0.00    +0.000 C 
BRANCH  33  34
ATOM     34  C   UNL     1       3.690  16.291  23.036  0.00  0.00    +0.000 C 
ATOM     35  C   UNL     1       4.674  15.108  23.194  0.00  0.00    +0.000 C 
ATOM     36  C   UNL     1       6.101  15.386  22.715  0.00  0.00    +0.000 C 
ATOM     37  C   UNL     1       6.672  16.608  23.412  0.00  0.00    +0.000 C 
ATOM     38  C   UNL     1       5.810  17.827  23.122  0.00  0.00    +0.000 C 
ATOM     39  C   UNL     1       4.341  17.612  23.510  0.00  0.00    +0.000 C 
ENDBRANCH  33  34
ENDBRANCH   7  33
TORSDOF 4
ENDMDL
MODEL 9
REMARK VINA RESULT:      -6.2      5.611      9.273
REMARK  Name = 
REMARK  6 active torsions:
REMARK  status: ('A' for Active; 'I' for Inactive)
REMARK    1  A    between atoms: C_1  and  C_2
REMARK    2  A    between atoms: C_2  and  C_3
REMARK    3  A    between atoms: C_2  and  C_4
REMARK    4  A    between atoms: C_9  and  O_10
REMARK    5  A    between atoms: C_11  and  C_12
REMARK    6  A    between atoms: C_12  and  C_13
REMARK                            x       y       z     vdW  Elec       q    Type
REMARK                         _______ _______ _______ _____ _____    ______ ____
ROOT
ATOM      1  C   UNL     1       8.257  15.890  20.362  0.00  0.00    +0.000 C 
ATOM      2  N   UNL     1       6.598  16.174  21.229  0.00  0.00    +0.000 N 
ATOM      3  C   UNL     1       5.170  15.342  21.255  0.00  0.00    +0.000 C 
ATOM      4  O   UNL     1       5.387  14.139  21.516  0.00  0.00    +0.000 OA
ATOM      5  C   UNL     1       3.297  15.851  21.492  0.00  0.00    +0.000 C 
ATOM      6  C   UNL     1       1.380  15.802  21.715  0.00  0.00    +0.000 C 
ATOM      7  C   UNL     1      -0.242  15.184  20.980  0.00  0.00    +0.000 C 
ATOM      8  N   UNL     1      -1.629  16.119  21.066  0.00  0.00    +0.000 N 
ATOM      9  C   UNL     1      -2.431  16.757  20.109  0.00  0.00    +0.000 C 
ATOM     10  O   UNL     1      -3.680  16.693  20.260  0.00  0.00    +0.000 OA
ATOM     11  C   UNL     1      -1.874  17.641  18.950  0.00  0.00    +0.000 C 
ATOM     12  C   UNL     1      -0.510  17.122  18.802  0.00  0.00    +0.000 C 
ATOM     13  C   UNL     1       0.675  17.618  18.036  0.00  0.00    +0.000 C 
ATOM     14  C   UNL     1       1.700  16.563  18.472  0.00  0.00    +0.000 C 
ATOM     15  C   UNL     1       3.086  16.756  17.981  0.00  0.00    +0.000 C 
ATOM     16  C   UNL     1       3.846  15.488  18.299  0.00  0.00    +0.000 C 
ATOM     17  C   UNL     1       5.281  15.693  17.939  0.00  0.00    +0.000 C 
ATOM     18  C   UNL     1       5.998  14.387  18.149  0.00  0.00    +0.000 C 
ATOM     19  C   UNL     1       7.332  14.415  17.450  0.00  0.00    +0.000 C 
ATOM     20  C   UNL     1       8.200  13.366  18.117  0.00  0.00    +0.000 C 
ATOM     21  C   UNL     1       9.568  13.912  18.402  0.00  0.00    +0.000 C 
ATOM     22  N   UNL     1       9.747  13.903  19.849  0.00  0.00    +0.000 N 
ATOM     23  C   UNL     1       9.045  14.619  20.805  0.00  0.00    +0.000 C 
ATOM     24  O   UNL     1       9.290  14.398  21.992  0.00  0.00    +0.000 OA
ATOM     25  H   UNL     1       6.954  15.777  22.115  0.00  0.00    +0.000 HD
ATOM     26  H   UNL     1      -2.349  15.594  21.597  0.00  0.00    +0.000 HD
ATOM     27  H   UNL     1      10.452  13.274  20.214  0.00  0.00    +0.000 HD
ENDROOT
BRANCH   1  29
ATOM     28  C   UNL     1      10.108  18.158  21.156  0.00  0.00    +0.000 C 
ATOM     29  C   UNL     1       9.815  16.899  20.331  0.00  0.00    +0.000 C 
ATOM     30  C   UNL     1      10.302  17.545  18.867  0.00  0.00    +0.000 C 
ENDBRANCH   1  29
BRANCH   6  31
ATOM     31  O   UNL     1       1.111  15.634  23.129  0.00  0.00    +0.000 OA
ATOM     32  H   UNL     1       1.000  14.690  23.298  0.00  0.00    +0.000 HD
ENDBRANCH   6  31
BRANCH   7  33
ATOM     33  C   UNL     1      -0.572  14.056  19.916  0.00  0.00    +0.000 C 
BRANCH  33  34
ATOM     34  C   UNL     1      -0.906  12.667  20.494  0.00  0.00    +0.000 C 
ATOM     35  C   UNL     1      -0.416  12.456  21.946  0.00  0.00    +0.000 C 
ATOM     36  C   UNL     1      -1.350  13.004  23.029  0.00  0.00    +0.000 C 
ATOM     37  C   UNL     1      -2.743  12.419  22.881  0.00  0.00    +0.000 C 
ATOM     38  C   UNL     1      -3.316  12.769  21.515  0.00  0.00    +0.000 C 
ATOM     39  C   UNL     1      -2.407  12.316  20.366  0.00  0.00    +0.000 C 
ENDBRANCH  33  34
ENDBRANCH   7  33
TORSDOF 4
ENDMDL
