MODEL 1
REMARK VINA RESULT:      -9.3      0.000      0.000
REMARK  Name = 
REMARK  9 active torsions:
REMARK  status: ('A' for Active; 'I' for Inactive)
REMARK    1  A    between atoms: C_1  and  C_2
REMARK    2  A    between atoms: C_2  and  C_3
REMARK    3  A    between atoms: C_7  and  N_8
REMARK    4  A    between atoms: C_9  and  C_11
REMARK    5  A    between atoms: C_11  and  N_12
REMARK    6  A    between atoms: N_12  and  C_13
REMARK    7  A    between atoms: N_12  and  S_20
REMARK    8  A    between atoms: C_16  and  C_17
REMARK    9  A    between atoms: S_20  and  C_23
REMARK                            x       y       z     vdW  Elec       q    Type
REMARK                         _______ _______ _______ _____ _____    ______ ____
ROOT
ATOM      1  N   UNL     1       3.394   5.818  17.932  0.00  0.00    +0.000 N 
ENDROOT
BRANCH   1   2
ATOM      2  C   UNL     1       2.667   6.930  18.442  0.00  0.00    +0.000 A 
ATOM      3  C   UNL     1       2.304   7.980  17.597  0.00  0.00    +0.000 A 
ATOM      4  C   UNL     1       1.618   9.082  18.114  0.00  0.00    +0.000 A 
ATOM      5  C   UNL     1       1.296   9.141  19.475  0.00  0.00    +0.000 A 
ATOM      6  C   UNL     1       0.583  10.330  20.047  0.00  0.00    +0.000 C 
ATOM      7  C   UNL     1       1.634   8.063  20.304  0.00  0.00    +0.000 A 
ATOM      8  C   UNL     1       2.322   6.962  19.790  0.00  0.00    +0.000 A 
ENDBRANCH   1   2
BRANCH   1   9
ATOM      9  S   UNL     1       2.608   4.328  17.820  0.00  0.00    +0.000 S 
ATOM     10  O   UNL     1       1.250   4.545  17.367  0.00  0.00    +0.000 OA
ATOM     11  O   UNL     1       3.467   3.383  17.133  0.00  0.00    +0.000 OA
BRANCH   9  12
ATOM     12  C   UNL     1       2.440   3.616  19.451  0.00  0.00    +0.000 A 
ATOM     13  C   UNL     1       3.370   3.070  20.318  0.00  0.00    +0.000 A 
ATOM     14  C   UNL     1       2.770   2.512  21.484  0.00  0.00    +0.000 A 
ATOM     15  C   UNL     1       1.404   2.680  21.487  0.00  0.00    +0.000 A 
ATOM     16  S   UNL     1       0.857   3.494  20.084  0.00  0.00    +0.000 S 
ENDBRANCH   9  12
ENDBRANCH   1   9
BRANCH   1  17
ATOM     17  C   UNL     1       4.854   5.893  17.781  0.00  0.00    +0.000 C 
BRANCH  17  19
ATOM     18  N   UNL     1       5.941   4.851  15.854  0.00  0.00    +0.000 N 
ATOM     19  C   UNL     1       5.271   5.975  16.321  0.00  0.00    +0.000 C 
ATOM     20  O   UNL     1       5.035   6.987  15.665  0.00  0.00    +0.000 OA
ATOM     21  H   UNL     1       6.298   4.204  16.547  0.00  0.00    +0.000 HD
BRANCH  18  26
ATOM     22  C   UNL     1       6.064   3.443  12.414  0.00  0.00    +0.000 A 
ATOM     23  C   UNL     1       7.166   4.120  11.880  0.00  0.00    +0.000 A 
ATOM     24  C   UNL     1       7.844   5.065  12.642  0.00  0.00    +0.000 A 
ATOM     25  C   UNL     1       7.444   5.326  13.953  0.00  0.00    +0.000 A 
ATOM     26  C   UNL     1       6.366   4.644  14.520  0.00  0.00    +0.000 A 
ATOM     27  C   UNL     1       5.662   3.719  13.734  0.00  0.00    +0.000 A 
BRANCH  22  29
ATOM     28  C   UNL     1       6.308   1.296  11.142  0.00  0.00    +0.000 C 
ATOM     29  C   UNL     1       5.358   2.398  11.586  0.00  0.00    +0.000 C 
ENDBRANCH  22  29
ENDBRANCH  18  26
ENDBRANCH  17  19
ENDBRANCH   1  17
TORSDOF 7
ENDMDL
MODEL 2
REMARK VINA RESULT:      -8.6      1.239      1.375
REMARK  Name = 
REMARK  9 active torsions:
REMARK  status: ('A' for Active; 'I' for Inactive)
REMARK    1  A    between atoms: C_1  and  C_2
REMARK    2  A    between atoms: C_2  and  C_3
REMARK    3  A    between atoms: C_7  and  N_8
REMARK    4  A    between atoms: C_9  and  C_11
REMARK    5  A    between atoms: C_11  and  N_12
REMARK    6  A    between atoms: N_12  and  C_13
REMARK    7  A    between atoms: N_12  and  S_20
REMARK    8  A    between atoms: C_16  and  C_17
REMARK    9  A    between atoms: S_20  and  C_23
REMARK                            x       y       z     vdW  Elec       q    Type
REMARK                         _______ _______ _______ _____ _____    ______ ____
ROOT
ATOM      1  N   UNL     1       4.214   5.078  18.030  0.00  0.00    +0.000 N 
ENDROOT
BRANCH   1   2
ATOM      2  C   UNL     1       3.446   6.252  18.268  0.00  0.00    +0.000 A 
ATOM      3  C   UNL     1       3.365   7.248  17.293  0.00  0.00    +0.000 A 
ATOM      4  C   UNL     1       2.634   8.411  17.548  0.00  0.00    +0.000 A 
ATOM      5  C   UNL     1       1.986   8.585  18.777  0.00  0.00    +0.000 A 
ATOM      6  C   UNL     1       1.220   9.841  19.073  0.00  0.00    +0.000 C 
ATOM      7  C   UNL     1       2.047   7.562  19.732  0.00  0.00    +0.000 A 
ATOM      8  C   UNL     1       2.779   6.400  19.480  0.00  0.00    +0.000 A 
ENDBRANCH   1   2
BRANCH   1   9
ATOM      9  S   UNL     1       3.399   3.616  17.809  0.00  0.00    +0.000 S 
ATOM     10  O   UNL     1       2.316   3.819  16.870  0.00  0.00    +0.000 OA
ATOM     11  O   UNL     1       4.365   2.555  17.596  0.00  0.00    +0.000 OA
BRANCH   9  12
ATOM     12  C   UNL     1       2.601   3.140  19.337  0.00  0.00    +0.000 A 
ATOM     13  C   UNL     1       1.272   3.146  19.722  0.00  0.00    +0.000 A 
ATOM     14  C   UNL     1       1.096   2.784  21.089  0.00  0.00    +0.000 A 
ATOM     15  C   UNL     1       2.294   2.479  21.695  0.00  0.00    +0.000 A 
ATOM     16  S   UNL     1       3.615   2.643  20.619  0.00  0.00    +0.000 S 
ENDBRANCH   9  12
ENDBRANCH   1   9
BRANCH   1  17
ATOM     17  C   UNL     1       5.667   5.084  18.257  0.00  0.00    +0.000 C 
BRANCH  17  19
ATOM     18  N   UNL     1       5.695   4.822  15.825  0.00  0.00    +0.000 N 
ATOM     19  C   UNL     1       6.439   4.733  16.995  0.00  0.00    +0.000 C 
ATOM     20  O   UNL     1       7.614   4.377  17.066  0.00  0.00    +0.000 OA
ATOM     21  H   UNL     1       4.688   4.871  15.920  0.00  0.00    +0.000 HD
BRANCH  18  26
ATOM     22  C   UNL     1       6.051   3.401  12.407  0.00  0.00    +0.000 A 
ATOM     23  C   UNL     1       7.152   4.119  11.925  0.00  0.00    +0.000 A 
ATOM     24  C   UNL     1       7.752   5.094  12.714  0.00  0.00    +0.000 A 
ATOM     25  C   UNL     1       7.274   5.346  14.001  0.00  0.00    +0.000 A 
ATOM     26  C   UNL     1       6.195   4.625  14.516  0.00  0.00    +0.000 A 
ATOM     27  C   UNL     1       5.571   3.669  13.702  0.00  0.00    +0.000 A 
BRANCH  22  29
ATOM     28  C   UNL     1       6.451   1.274  11.141  0.00  0.00    +0.000 C 
ATOM     29  C   UNL     1       5.430   2.325  11.551  0.00  0.00    +0.000 C 
ENDBRANCH  22  29
ENDBRANCH  18  26
ENDBRANCH  17  19
ENDBRANCH   1  17
TORSDOF 7
ENDMDL
MODEL 3
REMARK VINA RESULT:      -8.4      1.502      1.790
REMARK  Name = 
REMARK  9 active torsions:
REMARK  status: ('A' for Active; 'I' for Inactive)
REMARK    1  A    between atoms: C_1  and  C_2
REMARK    2  A    between atoms: C_2  and  C_3
REMARK    3  A    between atoms: C_7  and  N_8
REMARK    4  A    between atoms: C_9  and  C_11
REMARK    5  A    between atoms: C_11  and  N_12
REMARK    6  A    between atoms: N_12  and  C_13
REMARK    7  A    between atoms: N_12  and  S_20
REMARK    8  A    between atoms: C_16  and  C_17
REMARK    9  A    between atoms: S_20  and  C_23
REMARK                            x       y       z     vdW  Elec       q    Type
REMARK                         _______ _______ _______ _____ _____    ______ ____
ROOT
ATOM      1  N   UNL     1       4.945   4.763  18.456  0.00  0.00    +0.000 N 
ENDROOT
BRANCH   1   2
ATOM      2  C   UNL     1       4.008   5.828  18.573  0.00  0.00    +0.000 A 
ATOM      3  C   UNL     1       3.780   6.685  17.495  0.00  0.00    +0.000 A 
ATOM      4  C   UNL     1       2.882   7.747  17.630  0.00  0.00    +0.000 A 
ATOM      5  C   UNL     1       2.214   7.959  18.842  0.00  0.00    +0.000 A 
ATOM      6  C   UNL     1       1.268   9.112  19.008  0.00  0.00    +0.000 C 
ATOM      7  C   UNL     1       2.426   7.071  19.904  0.00  0.00    +0.000 A 
ATOM      8  C   UNL     1       3.325   6.010  19.772  0.00  0.00    +0.000 A 
ENDBRANCH   1   2
BRANCH   1   9
ATOM      9  S   UNL     1       4.397   3.183  18.691  0.00  0.00    +0.000 S 
ATOM     10  O   UNL     1       4.092   2.595  17.403  0.00  0.00    +0.000 OA
ATOM     11  O   UNL     1       5.282   2.502  19.616  0.00  0.00    +0.000 OA
BRANCH   9  12
ATOM     12  C   UNL     1       2.838   3.214  19.564  0.00  0.00    +0.000 A 
ATOM     13  C   UNL     1       2.535   3.127  20.912  0.00  0.00    +0.000 A 
ATOM     14  C   UNL     1       1.132   3.081  21.156  0.00  0.00    +0.000 A 
ATOM     15  C   UNL     1       0.407   3.168  19.990  0.00  0.00    +0.000 A 
ATOM     16  S   UNL     1       1.419   3.292  18.615  0.00  0.00    +0.000 S 
ENDBRANCH   9  12
ENDBRANCH   1   9
BRANCH   1  17
ATOM     17  C   UNL     1       6.387   5.044  18.420  0.00  0.00    +0.000 C 
BRANCH  17  19
ATOM     18  N   UNL     1       6.164   4.884  15.990  0.00  0.00    +0.000 N 
ATOM     19  C   UNL     1       7.003   4.680  17.079  0.00  0.00    +0.000 C 
ATOM     20  O   UNL     1       8.142   4.220  17.024  0.00  0.00    +0.000 OA
ATOM     21  H   UNL     1       5.179   5.017  16.184  0.00  0.00    +0.000 HD
BRANCH  18  26
ATOM     22  C   UNL     1       6.133   3.509  12.535  0.00  0.00    +0.000 A 
ATOM     23  C   UNL     1       7.189   4.217  11.949  0.00  0.00    +0.000 A 
ATOM     24  C   UNL     1       7.886   5.171  12.682  0.00  0.00    +0.000 A 
ATOM     25  C   UNL     1       7.551   5.410  14.016  0.00  0.00    +0.000 A 
ATOM     26  C   UNL     1       6.520   4.698  14.633  0.00  0.00    +0.000 A 
ATOM     27  C   UNL     1       5.797   3.765  13.877  0.00  0.00    +0.000 A 
BRANCH  22  29
ATOM     28  C   UNL     1       6.355   1.373  11.240  0.00  0.00    +0.000 C 
ATOM     29  C   UNL     1       5.407   2.456  11.736  0.00  0.00    +0.000 C 
ENDBRANCH  22  29
ENDBRANCH  18  26
ENDBRANCH  17  19
ENDBRANCH   1  17
TORSDOF 7
ENDMDL
MODEL 4
REMARK VINA RESULT:      -8.2      0.931      1.299
REMARK  Name = 
REMARK  9 active torsions:
REMARK  status: ('A' for Active; 'I' for Inactive)
REMARK    1  A    between atoms: C_1  and  C_2
REMARK    2  A    between atoms: C_2  and  C_3
REMARK    3  A    between atoms: C_7  and  N_8
REMARK    4  A    between atoms: C_9  and  C_11
REMARK    5  A    between atoms: C_11  and  N_12
REMARK    6  A    between atoms: N_12  and  C_13
REMARK    7  A    between atoms: N_12  and  S_20
REMARK    8  A    between atoms: C_16  and  C_17
REMARK    9  A    between atoms: S_20  and  C_23
REMARK                            x       y       z     vdW  Elec       q    Type
REMARK                         _______ _______ _______ _____ _____    ______ ____
ROOT
ATOM      1  N   UNL     1       3.934   5.511  18.117  0.00  0.00    +0.000 N 
ENDROOT
BRANCH   1   2
ATOM      2  C   UNL     1       3.161   6.676  18.376  0.00  0.00    +0.000 A 
ATOM      3  C   UNL     1       2.552   6.852  19.621  0.00  0.00    +0.000 A 
ATOM      4  C   UNL     1       1.768   7.985  19.856  0.00  0.00    +0.000 A 
ATOM      5  C   UNL     1       1.586   8.941  18.849  0.00  0.00    +0.000 A 
ATOM      6  C   UNL     1       0.725  10.148  19.081  0.00  0.00    +0.000 C 
ATOM      7  C   UNL     1       2.232   8.769  17.618  0.00  0.00    +0.000 A 
ATOM      8  C   UNL     1       3.014   7.637  17.380  0.00  0.00    +0.000 A 
ENDBRANCH   1   2
BRANCH   1   9
ATOM      9  S   UNL     1       3.131   4.034  17.950  0.00  0.00    +0.000 S 
ATOM     10  O   UNL     1       1.872   4.259  17.272  0.00  0.00    +0.000 OA
ATOM     11  O   UNL     1       4.060   3.036  17.457  0.00  0.00    +0.000 OA
BRANCH   9  12
ATOM     12  C   UNL     1       2.681   3.412  19.564  0.00  0.00    +0.000 A 
ATOM     13  C   UNL     1       3.427   2.801  20.556  0.00  0.00    +0.000 A 
ATOM     14  C   UNL     1       2.626   2.360  21.650  0.00  0.00    +0.000 A 
ATOM     15  C   UNL     1       1.299   2.680  21.474  0.00  0.00    +0.000 A 
ATOM     16  S   UNL     1       1.029   3.494  19.993  0.00  0.00    +0.000 S 
ENDBRANCH   9  12
ENDBRANCH   1   9
BRANCH   1  17
ATOM     17  C   UNL     1       5.395   5.539  18.278  0.00  0.00    +0.000 C 
BRANCH  17  19
ATOM     18  N   UNL     1       5.611   5.317  15.852  0.00  0.00    +0.000 N 
ATOM     19  C   UNL     1       6.110   4.921  17.087  0.00  0.00    +0.000 C 
ATOM     20  O   UNL     1       7.026   4.119  17.260  0.00  0.00    +0.000 OA
ATOM     21  H   UNL     1       4.704   5.768  15.842  0.00  0.00    +0.000 HD
BRANCH  18  26
ATOM     22  C   UNL     1       5.958   3.565  12.590  0.00  0.00    +0.000 A 
ATOM     23  C   UNL     1       7.155   4.112  12.112  0.00  0.00    +0.000 A 
ATOM     24  C   UNL     1       7.826   5.082  12.848  0.00  0.00    +0.000 A 
ATOM     25  C   UNL     1       7.322   5.499  14.080  0.00  0.00    +0.000 A 
ATOM     26  C   UNL     1       6.145   4.949  14.594  0.00  0.00    +0.000 A 
ATOM     27  C   UNL     1       5.454   3.999  13.829  0.00  0.00    +0.000 A 
BRANCH  22  29
ATOM     28  C   UNL     1       6.246   1.493  11.208  0.00  0.00    +0.000 C 
ATOM     29  C   UNL     1       5.259   2.491  11.795  0.00  0.00    +0.000 C 
ENDBRANCH  22  29
ENDBRANCH  18  26
ENDBRANCH  17  19
ENDBRANCH   1  17
TORSDOF 7
ENDMDL
MODEL 5
REMARK VINA RESULT:      -8.0      1.207      1.549
REMARK  Name = 
REMARK  9 active torsions:
REMARK  status: ('A' for Active; 'I' for Inactive)
REMARK    1  A    between atoms: C_1  and  C_2
REMARK    2  A    between atoms: C_2  and  C_3
REMARK    3  A    between atoms: C_7  and  N_8
REMARK    4  A    between atoms: C_9  and  C_11
REMARK    5  A    between atoms: C_11  and  N_12
REMARK    6  A    between atoms: N_12  and  C_13
REMARK    7  A    between atoms: N_12  and  S_20
REMARK    8  A    between atoms: C_16  and  C_17
REMARK    9  A    between atoms: S_20  and  C_23
REMARK                            x       y       z     vdW  Elec       q    Type
REMARK                         _______ _______ _______ _____ _____    ______ ____
ROOT
ATOM      1  N   UNL     1       4.479   5.594  18.209  0.00  0.00    +0.000 N 
ENDROOT
BRANCH   1   2
ATOM      2  C   UNL     1       3.464   6.416  18.774  0.00  0.00    +0.000 A 
ATOM      3  C   UNL     1       2.903   7.453  18.026  0.00  0.00    +0.000 A 
ATOM      4  C   UNL     1       1.930   8.275  18.599  0.00  0.00    +0.000 A 
ATOM      5  C   UNL     1       1.518   8.068  19.922  0.00  0.00    +0.000 A 
ATOM      6  C   UNL     1       0.493   8.960  20.558  0.00  0.00    +0.000 C 
ATOM      7  C   UNL     1       2.064   7.002  20.648  0.00  0.00    +0.000 A 
ATOM      8  C   UNL     1       3.038   6.180  20.078  0.00  0.00    +0.000 A 
ENDBRANCH   1   2
BRANCH   1   9
ATOM      9  S   UNL     1       4.373   3.922  18.429  0.00  0.00    +0.000 S 
ATOM     10  O   UNL     1       4.383   3.277  17.132  0.00  0.00    +0.000 OA
ATOM     11  O   UNL     1       5.308   3.514  19.458  0.00  0.00    +0.000 OA
BRANCH   9  12
ATOM     12  C   UNL     1       2.783   3.511  19.135  0.00  0.00    +0.000 A 
ATOM     13  C   UNL     1       1.496   3.636  18.641  0.00  0.00    +0.000 A 
ATOM     14  C   UNL     1       0.504   3.283  19.602  0.00  0.00    +0.000 A 
ATOM     15  C   UNL     1       1.066   2.867  20.788  0.00  0.00    +0.000 A 
ATOM     16  S   UNL     1       2.777   2.917  20.737  0.00  0.00    +0.000 S 
ENDBRANCH   9  12
ENDBRANCH   1   9
BRANCH   1  17
ATOM     17  C   UNL     1       5.724   6.192  17.706  0.00  0.00    +0.000 C 
BRANCH  17  19
ATOM     18  N   UNL     1       6.586   5.111  15.688  0.00  0.00    +0.000 N 
ATOM     19  C   UNL     1       5.803   6.144  16.188  0.00  0.00    +0.000 C 
ATOM     20  O   UNL     1       5.227   6.993  15.510  0.00  0.00    +0.000 OA
ATOM     21  H   UNL     1       7.207   4.645  16.338  0.00  0.00    +0.000 HD
BRANCH  18  26
ATOM     22  C   UNL     1       6.022   3.515  12.376  0.00  0.00    +0.000 A 
ATOM     23  C   UNL     1       7.058   4.078  11.622  0.00  0.00    +0.000 A 
ATOM     24  C   UNL     1       7.917   5.009  12.195  0.00  0.00    +0.000 A 
ATOM     25  C   UNL     1       7.767   5.369  13.535  0.00  0.00    +0.000 A 
ATOM     26  C   UNL     1       6.760   4.801  14.318  0.00  0.00    +0.000 A 
ATOM     27  C   UNL     1       5.873   3.892  13.724  0.00  0.00    +0.000 A 
BRANCH  22  29
ATOM     28  C   UNL     1       3.936   3.130  11.039  0.00  0.00    +0.000 C 
ATOM     29  C   UNL     1       5.118   2.484  11.749  0.00  0.00    +0.000 C 
ENDBRANCH  22  29
ENDBRANCH  18  26
ENDBRANCH  17  19
ENDBRANCH   1  17
TORSDOF 7
ENDMDL
MODEL 6
REMARK VINA RESULT:      -7.9      1.364      1.966
REMARK  Name = 
REMARK  9 active torsions:
REMARK  status: ('A' for Active; 'I' for Inactive)
REMARK    1  A    between atoms: C_1  and  C_2
REMARK    2  A    between atoms: C_2  and  C_3
REMARK    3  A    between atoms: C_7  and  N_8
REMARK    4  A    between atoms: C_9  and  C_11
REMARK    5  A    between atoms: C_11  and  N_12
REMARK    6  A    between atoms: N_12  and  C_13
REMARK    7  A    between atoms: N_12  and  S_20
REMARK    8  A    between atoms: C_16  and  C_17
REMARK    9  A    between atoms: S_20  and  C_23
REMARK                            x       y       z     vdW  Elec       q    Type
REMARK                         _______ _______ _______ _____ _____    ______ ____
ROOT
ATOM      1  N   UNL     1       4.880   4.980  18.447  0.00  0.00    +0.000 N 
ENDROOT
BRANCH   1   2
ATOM      2  C   UNL     1       3.913   5.987  18.718  0.00  0.00    +0.000 A 
ATOM      3  C   UNL     1       3.306   6.058  19.974  0.00  0.00    +0.000 A 
ATOM      4  C   UNL     1       2.334   7.031  20.222  0.00  0.00    +0.000 A 
ATOM      5  C   UNL     1       1.962   7.932  19.216  0.00  0.00    +0.000 A 
ATOM      6  C   UNL     1       0.901   8.964  19.462  0.00  0.00    +0.000 C 
ATOM      7  C   UNL     1       2.604   7.871  17.973  0.00  0.00    +0.000 A 
ATOM      8  C   UNL     1       3.574   6.899  17.722  0.00  0.00    +0.000 A 
ENDBRANCH   1   2
BRANCH   1   9
ATOM      9  S   UNL     1       4.438   3.364  18.661  0.00  0.00    +0.000 S 
ATOM     10  O   UNL     1       4.305   2.737  17.362  0.00  0.00    +0.000 OA
ATOM     11  O   UNL     1       5.281   2.767  19.679  0.00  0.00    +0.000 OA
BRANCH   9  12
ATOM     12  C   UNL     1       2.805   3.280  19.382  0.00  0.00    +0.000 A 
ATOM     13  C   UNL     1       1.552   3.543  18.856  0.00  0.00    +0.000 A 
ATOM     14  C   UNL     1       0.518   3.454  19.834  0.00  0.00    +0.000 A 
ATOM     15  C   UNL     1       1.011   3.093  21.067  0.00  0.00    +0.000 A 
ATOM     16  S   UNL     1       2.709   2.877  21.039  0.00  0.00    +0.000 S 
ENDBRANCH   9  12
ENDBRANCH   1   9
BRANCH   1  17
ATOM     17  C   UNL     1       6.294   5.338  18.269  0.00  0.00    +0.000 C 
BRANCH  17  19
ATOM     18  N   UNL     1       6.565   4.490  15.991  0.00  0.00    +0.000 N 
ATOM     19  C   UNL     1       6.632   5.609  16.812  0.00  0.00    +0.000 C 
ATOM     20  O   UNL     1       6.961   6.738  16.450  0.00  0.00    +0.000 OA
ATOM     21  H   UNL     1       6.538   3.585  16.444  0.00  0.00    +0.000 HD
BRANCH  18  26
ATOM     22  C   UNL     1       6.147   3.547  12.418  0.00  0.00    +0.000 A 
ATOM     23  C   UNL     1       7.102   4.366  11.805  0.00  0.00    +0.000 A 
ATOM     24  C   UNL     1       7.856   5.253  12.565  0.00  0.00    +0.000 A 
ATOM     25  C   UNL     1       7.682   5.313  13.949  0.00  0.00    +0.000 A 
ATOM     26  C   UNL     1       6.756   4.487  14.589  0.00  0.00    +0.000 A 
ATOM     27  C   UNL     1       5.972   3.622  13.812  0.00  0.00    +0.000 A 
BRANCH  22  29
ATOM     28  C   UNL     1       4.027   3.154  11.137  0.00  0.00    +0.000 C 
ATOM     29  C   UNL     1       5.359   2.568  11.584  0.00  0.00    +0.000 C 
ENDBRANCH  22  29
ENDBRANCH  18  26
ENDBRANCH  17  19
ENDBRANCH   1  17
TORSDOF 7
ENDMDL
MODEL 7
REMARK VINA RESULT:      -7.9      1.604      7.444
REMARK  Name = 
REMARK  9 active torsions:
REMARK  status: ('A' for Active; 'I' for Inactive)
REMARK    1  A    between atoms: C_1  and  C_2
REMARK    2  A    between atoms: C_2  and  C_3
REMARK    3  A    between atoms: C_7  and  N_8
REMARK    4  A    between atoms: C_9  and  C_11
REMARK    5  A    between atoms: C_11  and  N_12
REMARK    6  A    between atoms: N_12  and  C_13
REMARK    7  A    between atoms: N_12  and  S_20
REMARK    8  A    between atoms: C_16  and  C_17
REMARK    9  A    between atoms: S_20  and  C_23
REMARK                            x       y       z     vdW  Elec       q    Type
REMARK                         _______ _______ _______ _____ _____    ______ ____
ROOT
ATOM      1  N   UNL     1       4.611   4.296  17.841  0.00  0.00    +0.000 N 
ENDROOT
BRANCH   1   2
ATOM      2  C   UNL     1       5.378   4.435  16.651  0.00  0.00    +0.000 A 
ATOM      3  C   UNL     1       6.734   4.762  16.724  0.00  0.00    +0.000 A 
ATOM      4  C   UNL     1       7.472   4.927  15.549  0.00  0.00    +0.000 A 
ATOM      5  C   UNL     1       6.859   4.770  14.300  0.00  0.00    +0.000 A 
ATOM      6  C   UNL     1       7.635   4.971  13.032  0.00  0.00    +0.000 C 
ATOM      7  C   UNL     1       5.508   4.407  14.243  0.00  0.00    +0.000 A 
ATOM      8  C   UNL     1       4.767   4.244  15.415  0.00  0.00    +0.000 A 
ENDBRANCH   1   2
BRANCH   1   9
ATOM      9  S   UNL     1       3.352   3.171  17.858  0.00  0.00    +0.000 S 
ATOM     10  O   UNL     1       2.247   3.690  17.079  0.00  0.00    +0.000 OA
ATOM     11  O   UNL     1       3.885   1.850  17.585  0.00  0.00    +0.000 OA
BRANCH   9  12
ATOM     12  C   UNL     1       2.710   3.016  19.520  0.00  0.00    +0.000 A 
ATOM     13  C   UNL     1       3.294   2.579  20.696  0.00  0.00    +0.000 A 
ATOM     14  C   UNL     1       2.367   2.515  21.777  0.00  0.00    +0.000 A 
ATOM     15  C   UNL     1       1.113   2.938  21.400  0.00  0.00    +0.000 A 
ATOM     16  S   UNL     1       1.060   3.395  19.751  0.00  0.00    +0.000 S 
ENDBRANCH   9  12
ENDBRANCH   1   9
BRANCH   1  17
ATOM     17  C   UNL     1       4.718   5.296  18.914  0.00  0.00    +0.000 C 
BRANCH  17  19
ATOM     18  N   UNL     1       2.909   6.692  19.785  0.00  0.00    +0.000 N 
ATOM     19  C   UNL     1       3.755   6.454  18.708  0.00  0.00    +0.000 C 
ATOM     20  O   UNL     1       3.749   7.075  17.647  0.00  0.00    +0.000 OA
ATOM     21  H   UNL     1       2.833   5.963  20.483  0.00  0.00    +0.000 HD
BRANCH  18  26
ATOM     22  C   UNL     1       0.335   8.954  21.230  0.00  0.00    +0.000 A 
ATOM     23  C   UNL     1       0.070   9.796  20.144  0.00  0.00    +0.000 A 
ATOM     24  C   UNL     1       0.765   9.640  18.950  0.00  0.00    +0.000 A 
ATOM     25  C   UNL     1       1.714   8.626  18.820  0.00  0.00    +0.000 A 
ATOM     26  C   UNL     1       1.978   7.754  19.878  0.00  0.00    +0.000 A 
ATOM     27  C   UNL     1       1.301   7.941  21.092  0.00  0.00    +0.000 A 
BRANCH  22  29
ATOM     28  C   UNL     1      -0.727  10.581  22.815  0.00  0.00    +0.000 C 
ATOM     29  C   UNL     1      -0.449   9.117  22.508  0.00  0.00    +0.000 C 
ENDBRANCH  22  29
ENDBRANCH  18  26
ENDBRANCH  17  19
ENDBRANCH   1  17
TORSDOF 7
ENDMDL
MODEL 8
REMARK VINA RESULT:      -7.8      1.743      7.489
REMARK  Name = 
REMARK  9 active torsions:
REMARK  status: ('A' for Active; 'I' for Inactive)
REMARK    1  A    between atoms: C_1  and  C_2
REMARK    2  A    between atoms: C_2  and  C_3
REMARK    3  A    between atoms: C_7  and  N_8
REMARK    4  A    between atoms: C_9  and  C_11
REMARK    5  A    between atoms: C_11  and  N_12
REMARK    6  A    between atoms: N_12  and  C_13
REMARK    7  A    between atoms: N_12  and  S_20
REMARK    8  A    between atoms: C_16  and  C_17
REMARK    9  A    between atoms: S_20  and  C_23
REMARK                            x       y       z     vdW  Elec       q    Type
REMARK                         _______ _______ _______ _____ _____    ______ ____
ROOT
ATOM      1  N   UNL     1       4.472   4.228  17.844  0.00  0.00    +0.000 N 
ENDROOT
BRANCH   1   2
ATOM      2  C   UNL     1       5.263   4.426  16.678  0.00  0.00    +0.000 A 
ATOM      3  C   UNL     1       4.696   4.277  15.411  0.00  0.00    +0.000 A 
ATOM      4  C   UNL     1       5.488   4.443  14.272  0.00  0.00    +0.000 A 
ATOM      5  C   UNL     1       6.848   4.754  14.395  0.00  0.00    +0.000 A 
ATOM      6  C   UNL     1       7.715   4.909  13.180  0.00  0.00    +0.000 C 
ATOM      7  C   UNL     1       7.395   4.936  15.671  0.00  0.00    +0.000 A 
ATOM      8  C   UNL     1       6.606   4.769  16.811  0.00  0.00    +0.000 A 
ENDBRANCH   1   2
BRANCH   1   9
ATOM      9  S   UNL     1       3.223   3.093  17.783  0.00  0.00    +0.000 S 
ATOM     10  O   UNL     1       2.178   3.592  16.913  0.00  0.00    +0.000 OA
ATOM     11  O   UNL     1       3.783   1.773  17.572  0.00  0.00    +0.000 OA
BRANCH   9  12
ATOM     12  C   UNL     1       2.457   2.960  19.392  0.00  0.00    +0.000 A 
ATOM     13  C   UNL     1       1.203   3.327  19.849  0.00  0.00    +0.000 A 
ATOM     14  C   UNL     1       1.054   3.136  21.253  0.00  0.00    +0.000 A 
ATOM     15  C   UNL     1       2.187   2.597  21.819  0.00  0.00    +0.000 A 
ATOM     16  S   UNL     1       3.420   2.338  20.660  0.00  0.00    +0.000 S 
ENDBRANCH   9  12
ENDBRANCH   1   9
BRANCH   1  17
ATOM     17  C   UNL     1       4.549   5.178  18.963  0.00  0.00    +0.000 C 
BRANCH  17  19
ATOM     18  N   UNL     1       2.819   6.655  19.863  0.00  0.00    +0.000 N 
ATOM     19  C   UNL     1       3.621   6.365  18.765  0.00  0.00    +0.000 C 
ATOM     20  O   UNL     1       3.600   6.964  17.691  0.00  0.00    +0.000 OA
ATOM     21  H   UNL     1       2.742   5.943  20.579  0.00  0.00    +0.000 HD
BRANCH  18  26
ATOM     22  C   UNL     1       0.347   9.014  21.330  0.00  0.00    +0.000 A 
ATOM     23  C   UNL     1       0.101   9.862  20.245  0.00  0.00    +0.000 A 
ATOM     24  C   UNL     1       0.776   9.678  19.044  0.00  0.00    +0.000 A 
ATOM     25  C   UNL     1       1.686   8.629  18.906  0.00  0.00    +0.000 A 
ATOM     26  C   UNL     1       1.929   7.750  19.963  0.00  0.00    +0.000 A 
ATOM     27  C   UNL     1       1.273   7.965  21.184  0.00  0.00    +0.000 A 
BRANCH  22  29
ATOM     28  C   UNL     1      -0.842  10.657  22.805  0.00  0.00    +0.000 C 
ATOM     29  C   UNL     1      -0.416   9.208  22.617  0.00  0.00    +0.000 C 
ENDBRANCH  22  29
ENDBRANCH  18  26
ENDBRANCH  17  19
ENDBRANCH   1  17
TORSDOF 7
ENDMDL
MODEL 9
REMARK VINA RESULT:      -7.8      1.124      1.714
REMARK  Name = 
REMARK  9 active torsions:
REMARK  status: ('A' for Active; 'I' for Inactive)
REMARK    1  A    between atoms: C_1  and  C_2
REMARK    2  A    between atoms: C_2  and  C_3
REMARK    3  A    between atoms: C_7  and  N_8
REMARK    4  A    between atoms: C_9  and  C_11
REMARK    5  A    between atoms: C_11  and  N_12
REMARK    6  A    between atoms: N_12  and  C_13
REMARK    7  A    between atoms: N_12  and  S_20
REMARK    8  A    between atoms: C_16  and  C_17
REMARK    9  A    between atoms: S_20  and  C_23
REMARK                            x       y       z     vdW  Elec       q    Type
REMARK                         _______ _______ _______ _____ _____    ______ ____
ROOT
ATOM      1  N   UNL     1       4.559   5.591  18.199  0.00  0.00    +0.000 N 
ENDROOT
BRANCH   1   2
ATOM      2  C   UNL     1       3.561   6.458  18.724  0.00  0.00    +0.000 A 
ATOM      3  C   UNL     1       3.106   6.293  20.034  0.00  0.00    +0.000 A 
ATOM      4  C   UNL     1       2.103   7.129  20.532  0.00  0.00    +0.000 A 
ATOM      5  C   UNL     1       1.549   8.129  19.722  0.00  0.00    +0.000 A 
ATOM      6  C   UNL     1       0.453   9.015  20.235  0.00  0.00    +0.000 C 
ATOM      7  C   UNL     1       2.040   8.305  18.422  0.00  0.00    +0.000 A 
ATOM      8  C   UNL     1       3.041   7.470  17.922  0.00  0.00    +0.000 A 
ENDBRANCH   1   2
BRANCH   1   9
ATOM      9  S   UNL     1       4.396   3.930  18.457  0.00  0.00    +0.000 S 
ATOM     10  O   UNL     1       4.316   3.262  17.174  0.00  0.00    +0.000 OA
ATOM     11  O   UNL     1       5.364   3.501  19.447  0.00  0.00    +0.000 OA
BRANCH   9  12
ATOM     12  C   UNL     1       2.828   3.598  19.247  0.00  0.00    +0.000 A 
ATOM     13  C   UNL     1       2.502   3.313  20.562  0.00  0.00    +0.000 A 
ATOM     14  C   UNL     1       1.120   3.001  20.728  0.00  0.00    +0.000 A 
ATOM     15  C   UNL     1       0.430   3.092  19.541  0.00  0.00    +0.000 A 
ATOM     16  S   UNL     1       1.449   3.538  18.240  0.00  0.00    +0.000 S 
ENDBRANCH   9  12
ENDBRANCH   1   9
BRANCH   1  17
ATOM     17  C   UNL     1       5.831   6.137  17.705  0.00  0.00    +0.000 C 
BRANCH  17  19
ATOM     18  N   UNL     1       6.641   5.058  15.665  0.00  0.00    +0.000 N 
ATOM     19  C   UNL     1       5.907   6.117  16.187  0.00  0.00    +0.000 C 
ATOM     20  O   UNL     1       5.371   7.005  15.527  0.00  0.00    +0.000 OA
ATOM     21  H   UNL     1       7.240   4.551  16.305  0.00  0.00    +0.000 HD
BRANCH  18  26
ATOM     22  C   UNL     1       6.047   3.500  12.341  0.00  0.00    +0.000 A 
ATOM     23  C   UNL     1       7.067   4.083  11.580  0.00  0.00    +0.000 A 
ATOM     24  C   UNL     1       7.925   5.015  12.153  0.00  0.00    +0.000 A 
ATOM     25  C   UNL     1       7.789   5.355  13.500  0.00  0.00    +0.000 A 
ATOM     26  C   UNL     1       6.799   4.768  14.289  0.00  0.00    +0.000 A 
ATOM     27  C   UNL     1       5.913   3.857  13.695  0.00  0.00    +0.000 A 
BRANCH  22  29
ATOM     28  C   UNL     1       3.906   3.105  11.098  0.00  0.00    +0.000 C 
ATOM     29  C   UNL     1       5.144   2.469  11.712  0.00  0.00    +0.000 C 
ENDBRANCH  22  29
ENDBRANCH  18  26
ENDBRANCH  17  19
ENDBRANCH   1  17
TORSDOF 7
ENDMDL
