MODEL 1
REMARK VINA RESULT:      -8.1      0.000      0.000
REMARK  Name = 
REMARK  0 active torsions:
REMARK  status: ('A' for Active; 'I' for Inactive)
REMARK                            x       y       z     vdW  Elec       q    Type
REMARK                         _______ _______ _______ _____ _____    ______ ____
ROOT
ATOM      1  O   UNL     1       6.457   3.724  13.788  0.00  0.00    +0.000 OA
ATOM      2  N   UNL     1       6.797   4.760  14.385  0.00  0.00    +0.000 N 
ATOM      3  O   UNL     1       7.733   5.493  14.034  0.00  0.00    +0.000 OA
ATOM      4  C   UNL     1       6.033   5.154  15.602  0.00  0.00    +0.000 A 
ATOM      5  C   UNL     1       4.987   4.308  15.982  0.00  0.00    +0.000 A 
ATOM      6  C   UNL     1       4.253   4.666  17.126  0.00  0.00    +0.000 A 
ATOM      7  C   UNL     1       4.605   5.832  17.801  0.00  0.00    +0.000 A 
ATOM      8  C   UNL     1       5.655   6.638  17.391  0.00  0.00    +0.000 A 
ATOM      9  N   UNL     1       6.358   6.288  16.293  0.00  0.00    +0.000 NA
ATOM     10  N   UNL     1       3.741   5.966  18.862  0.00  0.00    +0.000 N 
ATOM     11  C   UNL     1       2.846   4.924  18.898  0.00  0.00    +0.000 A 
ATOM     12  C   UNL     1       1.803   4.664  19.794  0.00  0.00    +0.000 A 
ATOM     13  C   UNL     1       1.049   3.505  19.592  0.00  0.00    +0.000 A 
ATOM     14  C   UNL     1       1.330   2.641  18.535  0.00  0.00    +0.000 A 
ATOM     15  C   UNL     1       2.374   2.920  17.644  0.00  0.00    +0.000 A 
ATOM     16  C   UNL     1       3.147   4.085  17.825  0.00  0.00    +0.000 A 
ATOM     17  H   UNL     1       3.757   6.726  19.527  0.00  0.00    +0.000 HD
ENDROOT
TORSDOF 0
ENDMDL
MODEL 2
REMARK VINA RESULT:      -8.0      1.414      1.414
REMARK  Name = 
REMARK  0 active torsions:
REMARK  status: ('A' for Active; 'I' for Inactive)
REMARK                            x       y       z     vdW  Elec       q    Type
REMARK                         _______ _______ _______ _____ _____    ______ ____
ROOT
ATOM      1  O   UNL     1       6.306   4.315  13.265  0.00  0.00    +0.000 OA
ATOM      2  N   UNL     1       7.076   4.787  14.119  0.00  0.00    +0.000 N 
ATOM      3  O   UNL     1       8.151   5.347  13.856  0.00  0.00    +0.000 OA
ATOM      4  C   UNL     1       6.687   4.681  15.554  0.00  0.00    +0.000 A 
ATOM      5  C   UNL     1       5.475   4.040  15.825  0.00  0.00    +0.000 A 
ATOM      6  C   UNL     1       5.092   3.933  17.173  0.00  0.00    +0.000 A 
ATOM      7  C   UNL     1       5.931   4.472  18.145  0.00  0.00    +0.000 A 
ATOM      8  C   UNL     1       7.128   5.094  17.830  0.00  0.00    +0.000 A 
ATOM      9  N   UNL     1       7.493   5.191  16.533  0.00  0.00    +0.000 NA
ATOM     10  N   UNL     1       5.335   4.253  19.364  0.00  0.00    +0.000 N 
ATOM     11  C   UNL     1       4.142   3.588  19.213  0.00  0.00    +0.000 A 
ATOM     12  C   UNL     1       3.216   3.170  20.176  0.00  0.00    +0.000 A 
ATOM     13  C   UNL     1       2.077   2.494  19.730  0.00  0.00    +0.000 A 
ATOM     14  C   UNL     1       1.875   2.248  18.373  0.00  0.00    +0.000 A 
ATOM     15  C   UNL     1       2.809   2.678  17.423  0.00  0.00    +0.000 A 
ATOM     16  C   UNL     1       3.964   3.364  17.848  0.00  0.00    +0.000 A 
ATOM     17  H   UNL     1       5.717   4.541  20.254  0.00  0.00    +0.000 HD
ENDROOT
TORSDOF 0
ENDMDL
MODEL 3
REMARK VINA RESULT:      -7.7      1.914      2.083
REMARK  Name = 
REMARK  0 active torsions:
REMARK  status: ('A' for Active; 'I' for Inactive)
REMARK                            x       y       z     vdW  Elec       q    Type
REMARK                         _______ _______ _______ _____ _____    ______ ____
ROOT
ATOM      1  O   UNL     1       7.944   4.387  17.084  0.00  0.00    +0.000 OA
ATOM      2  N   UNL     1       7.319   5.405  16.740  0.00  0.00    +0.000 N 
ATOM      3  O   UNL     1       7.758   6.262  15.958  0.00  0.00    +0.000 OA
ATOM      4  C   UNL     1       5.953   5.616  17.297  0.00  0.00    +0.000 A 
ATOM      5  C   UNL     1       5.483   4.640  18.181  0.00  0.00    +0.000 A 
ATOM      6  C   UNL     1       4.195   4.821  18.714  0.00  0.00    +0.000 A 
ATOM      7  C   UNL     1       3.471   5.946  18.328  0.00  0.00    +0.000 A 
ATOM      8  C   UNL     1       3.980   6.891  17.452  0.00  0.00    +0.000 A 
ATOM      9  N   UNL     1       5.219   6.714  16.945  0.00  0.00    +0.000 NA
ATOM     10  N   UNL     1       2.256   5.887  18.968  0.00  0.00    +0.000 N 
ATOM     11  C   UNL     1       2.172   4.764  19.757  0.00  0.00    +0.000 A 
ATOM     12  C   UNL     1       1.127   4.312  20.570  0.00  0.00    +0.000 A 
ATOM     13  C   UNL     1       1.326   3.124  21.279  0.00  0.00    +0.000 A 
ATOM     14  C   UNL     1       2.524   2.419  21.176  0.00  0.00    +0.000 A 
ATOM     15  C   UNL     1       3.556   2.883  20.353  0.00  0.00    +0.000 A 
ATOM     16  C   UNL     1       3.379   4.078  19.626  0.00  0.00    +0.000 A 
ATOM     17  H   UNL     1       1.520   6.572  18.874  0.00  0.00    +0.000 HD
ENDROOT
TORSDOF 0
ENDMDL
MODEL 4
REMARK VINA RESULT:      -7.5      1.124      1.219
REMARK  Name = 
REMARK  0 active torsions:
REMARK  status: ('A' for Active; 'I' for Inactive)
REMARK                            x       y       z     vdW  Elec       q    Type
REMARK                         _______ _______ _______ _____ _____    ______ ____
ROOT
ATOM      1  O   UNL     1       5.780   3.624  12.745  0.00  0.00    +0.000 OA
ATOM      2  N   UNL     1       6.622   4.324  13.334  0.00  0.00    +0.000 N 
ATOM      3  O   UNL     1       7.686   4.708  12.828  0.00  0.00    +0.000 OA
ATOM      4  C   UNL     1       6.339   4.733  14.738  0.00  0.00    +0.000 A 
ATOM      5  C   UNL     1       5.136   4.281  15.289  0.00  0.00    +0.000 A 
ATOM      6  C   UNL     1       4.852   4.660  16.613  0.00  0.00    +0.000 A 
ATOM      7  C   UNL     1       5.773   5.458  17.285  0.00  0.00    +0.000 A 
ATOM      8  C   UNL     1       6.957   5.879  16.701  0.00  0.00    +0.000 A 
ATOM      9  N   UNL     1       7.227   5.510  15.430  0.00  0.00    +0.000 NA
ATOM     10  N   UNL     1       5.265   5.698  18.540  0.00  0.00    +0.000 N 
ATOM     11  C   UNL     1       4.049   5.078  18.702  0.00  0.00    +0.000 A 
ATOM     12  C   UNL     1       3.189   5.058  19.805  0.00  0.00    +0.000 A 
ATOM     13  C   UNL     1       2.005   4.325  19.690  0.00  0.00    +0.000 A 
ATOM     14  C   UNL     1       1.697   3.639  18.517  0.00  0.00    +0.000 A 
ATOM     15  C   UNL     1       2.566   3.674  17.421  0.00  0.00    +0.000 A 
ATOM     16  C   UNL     1       3.765   4.410  17.511  0.00  0.00    +0.000 A 
ATOM     17  H   UNL     1       5.718   6.255  19.249  0.00  0.00    +0.000 HD
ENDROOT
TORSDOF 0
ENDMDL
MODEL 5
REMARK VINA RESULT:      -7.4      3.109      5.651
REMARK  Name = 
REMARK  0 active torsions:
REMARK  status: ('A' for Active; 'I' for Inactive)
REMARK                            x       y       z     vdW  Elec       q    Type
REMARK                         _______ _______ _______ _____ _____    ______ ____
ROOT
ATOM      1  O   UNL     1       2.680   2.568  18.191  0.00  0.00    +0.000 OA
ATOM      2  N   UNL     1       3.449   3.352  18.773  0.00  0.00    +0.000 N 
ATOM      3  O   UNL     1       3.372   3.642  19.976  0.00  0.00    +0.000 OA
ATOM      4  C   UNL     1       4.540   3.987  17.980  0.00  0.00    +0.000 A 
ATOM      5  C   UNL     1       4.603   3.650  16.625  0.00  0.00    +0.000 A 
ATOM      6  C   UNL     1       5.627   4.238  15.862  0.00  0.00    +0.000 A 
ATOM      7  C   UNL     1       6.510   5.107  16.498  0.00  0.00    +0.000 A 
ATOM      8  C   UNL     1       6.406   5.417  17.844  0.00  0.00    +0.000 A 
ATOM      9  N   UNL     1       5.419   4.852  18.572  0.00  0.00    +0.000 NA
ATOM     10  N   UNL     1       7.413   5.532  15.553  0.00  0.00    +0.000 N 
ATOM     11  C   UNL     1       7.141   4.971  14.328  0.00  0.00    +0.000 A 
ATOM     12  C   UNL     1       7.799   5.123  13.102  0.00  0.00    +0.000 A 
ATOM     13  C   UNL     1       7.286   4.429  12.002  0.00  0.00    +0.000 A 
ATOM     14  C   UNL     1       6.161   3.617  12.126  0.00  0.00    +0.000 A 
ATOM     15  C   UNL     1       5.519   3.472  13.362  0.00  0.00    +0.000 A 
ATOM     16  C   UNL     1       6.018   4.159  14.487  0.00  0.00    +0.000 A 
ATOM     17  H   UNL     1       8.177   6.168  15.730  0.00  0.00    +0.000 HD
ENDROOT
TORSDOF 0
ENDMDL
MODEL 6
REMARK VINA RESULT:      -7.1      2.707      3.552
REMARK  Name = 
REMARK  0 active torsions:
REMARK  status: ('A' for Active; 'I' for Inactive)
REMARK                            x       y       z     vdW  Elec       q    Type
REMARK                         _______ _______ _______ _____ _____    ______ ____
ROOT
ATOM      1  O   UNL     1       5.975   5.826  14.838  0.00  0.00    +0.000 OA
ATOM      2  N   UNL     1       6.046   5.016  15.778  0.00  0.00    +0.000 N 
ATOM      3  O   UNL     1       6.767   4.007  15.777  0.00  0.00    +0.000 OA
ATOM      4  C   UNL     1       5.217   5.269  16.990  0.00  0.00    +0.000 A 
ATOM      5  C   UNL     1       4.407   6.409  16.965  0.00  0.00    +0.000 A 
ATOM      6  C   UNL     1       3.620   6.664  18.101  0.00  0.00    +0.000 A 
ATOM      7  C   UNL     1       3.697   5.779  19.173  0.00  0.00    +0.000 A 
ATOM      8  C   UNL     1       4.510   4.658  19.152  0.00  0.00    +0.000 A 
ATOM      9  N   UNL     1       5.263   4.415  18.057  0.00  0.00    +0.000 NA
ATOM     10  N   UNL     1       2.854   6.250  20.151  0.00  0.00    +0.000 N 
ATOM     11  C   UNL     1       2.232   7.406  19.746  0.00  0.00    +0.000 A 
ATOM     12  C   UNL     1       1.308   8.214  20.418  0.00  0.00    +0.000 A 
ATOM     13  C   UNL     1       0.826   9.342  19.748  0.00  0.00    +0.000 A 
ATOM     14  C   UNL     1       1.252   9.647  18.457  0.00  0.00    +0.000 A 
ATOM     15  C   UNL     1       2.182   8.830  17.802  0.00  0.00    +0.000 A 
ATOM     16  C   UNL     1       2.685   7.689  18.458  0.00  0.00    +0.000 A 
ATOM     17  H   UNL     1       2.709   5.811  21.049  0.00  0.00    +0.000 HD
ENDROOT
TORSDOF 0
ENDMDL
MODEL 7
REMARK VINA RESULT:      -7.1      3.835      5.966
REMARK  Name = 
REMARK  0 active torsions:
REMARK  status: ('A' for Active; 'I' for Inactive)
REMARK                            x       y       z     vdW  Elec       q    Type
REMARK                         _______ _______ _______ _____ _____    ______ ____
ROOT
ATOM      1  O   UNL     1       2.843   2.532  21.941  0.00  0.00    +0.000 OA
ATOM      2  N   UNL     1       2.032   2.887  21.069  0.00  0.00    +0.000 N 
ATOM      3  O   UNL     1       0.843   2.538  21.037  0.00  0.00    +0.000 OA
ATOM      4  C   UNL     1       2.513   3.793  19.988  0.00  0.00    +0.000 A 
ATOM      5  C   UNL     1       3.859   4.167  20.040  0.00  0.00    +0.000 A 
ATOM      6  C   UNL     1       4.329   5.024  19.029  0.00  0.00    +0.000 A 
ATOM      7  C   UNL     1       3.433   5.448  18.051  0.00  0.00    +0.000 A 
ATOM      8  C   UNL     1       2.107   5.047  18.036  0.00  0.00    +0.000 A 
ATOM      9  N   UNL     1       1.661   4.221  19.007  0.00  0.00    +0.000 NA
ATOM     10  N   UNL     1       4.123   6.276  17.199  0.00  0.00    +0.000 N 
ATOM     11  C   UNL     1       5.435   6.397  17.590  0.00  0.00    +0.000 A 
ATOM     12  C   UNL     1       6.480   7.134  17.020  0.00  0.00    +0.000 A 
ATOM     13  C   UNL     1       7.734   7.061  17.634  0.00  0.00    +0.000 A 
ATOM     14  C   UNL     1       7.932   6.281  18.771  0.00  0.00    +0.000 A 
ATOM     15  C   UNL     1       6.873   5.555  19.332  0.00  0.00    +0.000 A 
ATOM     16  C   UNL     1       5.599   5.615  18.733  0.00  0.00    +0.000 A 
ATOM     17  H   UNL     1       3.725   6.736  16.393  0.00  0.00    +0.000 HD
ENDROOT
TORSDOF 0
ENDMDL
MODEL 8
REMARK VINA RESULT:      -7.1      1.831      2.714
REMARK  Name = 
REMARK  0 active torsions:
REMARK  status: ('A' for Active; 'I' for Inactive)
REMARK                            x       y       z     vdW  Elec       q    Type
REMARK                         _______ _______ _______ _____ _____    ______ ____
ROOT
ATOM      1  O   UNL     1       7.494   6.921  18.395  0.00  0.00    +0.000 OA
ATOM      2  N   UNL     1       7.243   6.411  17.290  0.00  0.00    +0.000 N 
ATOM      3  O   UNL     1       7.940   6.563  16.276  0.00  0.00    +0.000 OA
ATOM      4  C   UNL     1       6.028   5.556  17.169  0.00  0.00    +0.000 A 
ATOM      5  C   UNL     1       5.254   5.405  18.323  0.00  0.00    +0.000 A 
ATOM      6  C   UNL     1       4.105   4.601  18.228  0.00  0.00    +0.000 A 
ATOM      7  C   UNL     1       3.815   4.004  17.003  0.00  0.00    +0.000 A 
ATOM      8  C   UNL     1       4.608   4.186  15.882  0.00  0.00    +0.000 A 
ATOM      9  N   UNL     1       5.709   4.963  15.979  0.00  0.00    +0.000 NA
ATOM     10  N   UNL     1       2.666   3.269  17.171  0.00  0.00    +0.000 N 
ATOM     11  C   UNL     1       2.202   3.374  18.461  0.00  0.00    +0.000 A 
ATOM     12  C   UNL     1       1.079   2.795  19.063  0.00  0.00    +0.000 A 
ATOM     13  C   UNL     1       0.842   3.089  20.409  0.00  0.00    +0.000 A 
ATOM     14  C   UNL     1       1.695   3.930  21.121  0.00  0.00    +0.000 A 
ATOM     15  C   UNL     1       2.818   4.495  20.504  0.00  0.00    +0.000 A 
ATOM     16  C   UNL     1       3.080   4.211  19.148  0.00  0.00    +0.000 A 
ATOM     17  H   UNL     1       2.219   2.722  16.449  0.00  0.00    +0.000 HD
ENDROOT
TORSDOF 0
ENDMDL
MODEL 9
REMARK VINA RESULT:      -7.0      3.373      5.518
REMARK  Name = 
REMARK  0 active torsions:
REMARK  status: ('A' for Active; 'I' for Inactive)
REMARK                            x       y       z     vdW  Elec       q    Type
REMARK                         _______ _______ _______ _____ _____    ______ ____
ROOT
ATOM      1  O   UNL     1       0.730   4.248  17.168  0.00  0.00    +0.000 OA
ATOM      2  N   UNL     1       1.224   3.427  17.960  0.00  0.00    +0.000 N 
ATOM      3  O   UNL     1       0.624   2.438  18.405  0.00  0.00    +0.000 OA
ATOM      4  C   UNL     1       2.631   3.637  18.405  0.00  0.00    +0.000 A 
ATOM      5  C   UNL     1       3.285   4.762  17.896  0.00  0.00    +0.000 A 
ATOM      6  C   UNL     1       4.613   4.975  18.303  0.00  0.00    +0.000 A 
ATOM      7  C   UNL     1       5.193   4.057  19.176  0.00  0.00    +0.000 A 
ATOM      8  C   UNL     1       4.504   2.957  19.661  0.00  0.00    +0.000 A 
ATOM      9  N   UNL     1       3.227   2.760  19.269  0.00  0.00    +0.000 NA
ATOM     10  N   UNL     1       6.482   4.475  19.409  0.00  0.00    +0.000 N 
ATOM     11  C   UNL     1       6.753   5.633  18.720  0.00  0.00    +0.000 A 
ATOM     12  C   UNL     1       7.926   6.394  18.665  0.00  0.00    +0.000 A 
ATOM     13  C   UNL     1       7.913   7.549  17.879  0.00  0.00    +0.000 A 
ATOM     14  C   UNL     1       6.770   7.926  17.176  0.00  0.00    +0.000 A 
ATOM     15  C   UNL     1       5.606   7.149  17.238  0.00  0.00    +0.000 A 
ATOM     16  C   UNL     1       5.596   5.978  18.022  0.00  0.00    +0.000 A 
ATOM     17  H   UNL     1       7.144   3.999  20.003  0.00  0.00    +0.000 HD
ENDROOT
TORSDOF 0
ENDMDL
