MODEL 1
REMARK VINA RESULT:      -7.6      0.000      0.000
REMARK  Name = 
REMARK  12 active torsions:
REMARK  status: ('A' for Active; 'I' for Inactive)
REMARK    1  A    between atoms: C_1  and  C_2
REMARK    2  A    between atoms: C_2  and  C_3
REMARK    3  A    between atoms: C_3  and  C_4
REMARK    4  A    between atoms: C_4  and  C_5
REMARK    5  A    between atoms: C_5  and  C_6
REMARK    6  A    between atoms: C_6  and  O_7
REMARK    7  A    between atoms: O_7  and  C_8
REMARK    8  A    between atoms: C_11  and  O_12
REMARK    9  A    between atoms: O_12  and  C_13
REMARK   10  A    between atoms: C_14  and  C_15
REMARK   11  A    between atoms: C_15  and  C_16
REMARK   12  A    between atoms: C_22  and  N_23
REMARK                            x       y       z     vdW  Elec       q    Type
REMARK                         _______ _______ _______ _____ _____    ______ ____
ROOT
ATOM      1  C   UNL     1       5.550   4.451  14.786  0.00  0.00    +0.000 A 
ATOM      2  C   UNL     1       6.937   4.474  14.794  0.00  0.00    +0.000 A 
ATOM      3  C   UNL     1       7.622   4.940  15.913  0.00  0.00    +0.000 A 
ATOM      4  C   UNL     1       6.946   5.314  17.078  0.00  0.00    +0.000 A 
ATOM      5  C   UNL     1       5.531   5.293  17.091  0.00  0.00    +0.000 A 
ATOM      6  C   UNL     1       4.852   4.885  15.917  0.00  0.00    +0.000 A 
ENDROOT
BRANCH   4   7
ATOM      7  O   UNL     1       7.623   5.703  18.209  0.00  0.00    +0.000 OA
ATOM      8  C   UNL     1       7.940   7.104  18.267  0.00  0.00    +0.000 C 
ENDBRANCH   4   7
BRANCH   1   9
ATOM      9  O   UNL     1       4.996   3.911  13.658  0.00  0.00    +0.000 OA
BRANCH   9  10
ATOM     10  C   UNL     1       5.912   3.468  12.662  0.00  0.00    +0.000 C 
BRANCH  10  11
ATOM     11  C   UNL     1       5.124   2.811  11.527  0.00  0.00    +0.000 C 
BRANCH  11  12
ATOM     12  C   UNL     1       3.793   3.529  11.314  0.00  0.00    +0.000 C 
BRANCH  12  13
ATOM     13  C   UNL     1       3.149   3.154   9.979  0.00  0.00    +0.000 C 
BRANCH  13  15
ATOM     14  C   UNL     1       1.918   5.145   9.048  0.00  0.00    +0.000 C 
ATOM     15  C   UNL     1       3.197   4.324   8.996  0.00  0.00    +0.000 C 
ENDBRANCH  13  15
ENDBRANCH  12  13
ENDBRANCH  11  12
ENDBRANCH  10  11
ENDBRANCH   9  10
ENDBRANCH   1   9
BRANCH   5  16
ATOM     16  C   UNL     1       4.688   5.576  18.333  0.00  0.00    +0.000 C 
BRANCH  16  17
ATOM     17  C   UNL     1       3.612   4.544  18.564  0.00  0.00    +0.000 A 
ATOM     18  C   UNL     1       2.297   4.772  18.217  0.00  0.00    +0.000 A 
ATOM     19  N   UNL     1       1.325   3.839  18.284  0.00  0.00    +0.000 NA
ATOM     20  C   UNL     1       1.706   2.630  18.703  0.00  0.00    +0.000 A 
ATOM     21  N   UNL     1       0.758   1.626  18.692  0.00  0.00    +0.000 N 
ATOM     22  N   UNL     1       2.925   2.322  19.143  0.00  0.00    +0.000 NA
ATOM     23  C   UNL     1       3.866   3.284  19.064  0.00  0.00    +0.000 A 
ATOM     24  H   UNL     1      -0.165   2.024  18.745  0.00  0.00    +0.000 HD
ATOM     25  H   UNL     1       1.008   0.908  19.354  0.00  0.00    +0.000 HD
BRANCH  23  26
ATOM     26  N   UNL     1       5.104   2.947  19.599  0.00  0.00    +0.000 N 
ATOM     27  H   UNL     1       5.616   3.805  19.776  0.00  0.00    +0.000 HD
ATOM     28  H   UNL     1       5.010   2.361  20.424  0.00  0.00    +0.000 HD
ENDBRANCH  23  26
ENDBRANCH  16  17
ENDBRANCH   5  16
TORSDOF 10
ENDMDL
MODEL 2
REMARK VINA RESULT:      -7.6      1.471      1.767
REMARK  Name = 
REMARK  12 active torsions:
REMARK  status: ('A' for Active; 'I' for Inactive)
REMARK    1  A    between atoms: C_1  and  C_2
REMARK    2  A    between atoms: C_2  and  C_3
REMARK    3  A    between atoms: C_3  and  C_4
REMARK    4  A    between atoms: C_4  and  C_5
REMARK    5  A    between atoms: C_5  and  C_6
REMARK    6  A    between atoms: C_6  and  O_7
REMARK    7  A    between atoms: O_7  and  C_8
REMARK    8  A    between atoms: C_11  and  O_12
REMARK    9  A    between atoms: O_12  and  C_13
REMARK   10  A    between atoms: C_14  and  C_15
REMARK   11  A    between atoms: C_15  and  C_16
REMARK   12  A    between atoms: C_22  and  N_23
REMARK                            x       y       z     vdW  Elec       q    Type
REMARK                         _______ _______ _______ _____ _____    ______ ____
ROOT
ATOM      1  C   UNL     1       5.684   4.755  15.131  0.00  0.00    +0.000 A 
ATOM      2  C   UNL     1       6.864   4.199  15.603  0.00  0.00    +0.000 A 
ATOM      3  C   UNL     1       7.242   4.383  16.931  0.00  0.00    +0.000 A 
ATOM      4  C   UNL     1       6.414   5.050  17.837  0.00  0.00    +0.000 A 
ATOM      5  C   UNL     1       5.204   5.621  17.377  0.00  0.00    +0.000 A 
ATOM      6  C   UNL     1       4.874   5.485  16.005  0.00  0.00    +0.000 A 
ENDROOT
BRANCH   4   7
ATOM      7  O   UNL     1       6.750   5.169  19.166  0.00  0.00    +0.000 OA
ATOM      8  C   UNL     1       7.970   5.884  19.415  0.00  0.00    +0.000 C 
ENDBRANCH   4   7
BRANCH   1   9
ATOM      9  O   UNL     1       5.391   4.450  13.830  0.00  0.00    +0.000 OA
BRANCH   9  10
ATOM     10  C   UNL     1       6.172   3.415  13.240  0.00  0.00    +0.000 C 
BRANCH  10  11
ATOM     11  C   UNL     1       5.526   3.008  11.914  0.00  0.00    +0.000 C 
BRANCH  11  12
ATOM     12  C   UNL     1       4.296   3.869  11.631  0.00  0.00    +0.000 C 
BRANCH  12  13
ATOM     13  C   UNL     1       3.331   3.183  10.664  0.00  0.00    +0.000 C 
BRANCH  13  15
ATOM     14  C   UNL     1       2.149   4.887   9.232  0.00  0.00    +0.000 C 
ATOM     15  C   UNL     1       3.303   3.900   9.313  0.00  0.00    +0.000 C 
ENDBRANCH  13  15
ENDBRANCH  12  13
ENDBRANCH  11  12
ENDBRANCH  10  11
ENDBRANCH   9  10
ENDBRANCH   1   9
BRANCH   5  16
ATOM     16  C   UNL     1       4.172   6.278  18.290  0.00  0.00    +0.000 C 
BRANCH  16  17
ATOM     17  C   UNL     1       3.326   5.281  19.041  0.00  0.00    +0.000 A 
ATOM     18  C   UNL     1       3.368   3.932  18.762  0.00  0.00    +0.000 A 
ATOM     19  N   UNL     1       2.732   2.989  19.487  0.00  0.00    +0.000 NA
ATOM     20  C   UNL     1       2.042   3.431  20.541  0.00  0.00    +0.000 A 
ATOM     21  N   UNL     1       1.458   2.486  21.360  0.00  0.00    +0.000 N 
ATOM     22  N   UNL     1       1.863   4.713  20.854  0.00  0.00    +0.000 NA
ATOM     23  C   UNL     1       2.512   5.624  20.101  0.00  0.00    +0.000 A 
ATOM     24  H   UNL     1       1.302   1.634  20.847  0.00  0.00    +0.000 HD
ATOM     25  H   UNL     1       0.682   2.893  21.859  0.00  0.00    +0.000 HD
BRANCH  23  26
ATOM     26  N   UNL     1       2.242   6.951  20.413  0.00  0.00    +0.000 N 
ATOM     27  H   UNL     1       2.653   7.154  21.319  0.00  0.00    +0.000 HD
ATOM     28  H   UNL     1       2.560   7.582  19.681  0.00  0.00    +0.000 HD
ENDBRANCH  23  26
ENDBRANCH  16  17
ENDBRANCH   5  16
TORSDOF 10
ENDMDL
MODEL 3
REMARK VINA RESULT:      -7.2      1.065      1.407
REMARK  Name = 
REMARK  12 active torsions:
REMARK  status: ('A' for Active; 'I' for Inactive)
REMARK    1  A    between atoms: C_1  and  C_2
REMARK    2  A    between atoms: C_2  and  C_3
REMARK    3  A    between atoms: C_3  and  C_4
REMARK    4  A    between atoms: C_4  and  C_5
REMARK    5  A    between atoms: C_5  and  C_6
REMARK    6  A    between atoms: C_6  and  O_7
REMARK    7  A    between atoms: O_7  and  C_8
REMARK    8  A    between atoms: C_11  and  O_12
REMARK    9  A    between atoms: O_12  and  C_13
REMARK   10  A    between atoms: C_14  and  C_15
REMARK   11  A    between atoms: C_15  and  C_16
REMARK   12  A    between atoms: C_22  and  N_23
REMARK                            x       y       z     vdW  Elec       q    Type
REMARK                         _______ _______ _______ _____ _____    ______ ____
ROOT
ATOM      1  C   UNL     1       5.942   4.634  16.028  0.00  0.00    +0.000 A 
ATOM      2  C   UNL     1       7.288   4.640  16.366  0.00  0.00    +0.000 A 
ATOM      3  C   UNL     1       7.684   4.996  17.653  0.00  0.00    +0.000 A 
ATOM      4  C   UNL     1       6.747   5.271  18.653  0.00  0.00    +0.000 A 
ATOM      5  C   UNL     1       5.370   5.266  18.329  0.00  0.00    +0.000 A 
ATOM      6  C   UNL     1       4.992   4.972  16.995  0.00  0.00    +0.000 A 
ENDROOT
BRANCH   4   7
ATOM      7  O   UNL     1       7.133   5.551  19.943  0.00  0.00    +0.000 OA
ATOM      8  C   UNL     1       8.525   5.324  20.216  0.00  0.00    +0.000 C 
ENDBRANCH   4   7
BRANCH   1   9
ATOM      9  O   UNL     1       5.677   4.203  14.757  0.00  0.00    +0.000 OA
BRANCH   9  10
ATOM     10  C   UNL     1       6.725   4.374  13.807  0.00  0.00    +0.000 C 
BRANCH  10  11
ATOM     11  C   UNL     1       6.359   3.614  12.531  0.00  0.00    +0.000 C 
BRANCH  11  12
ATOM     12  C   UNL     1       4.845   3.603  12.328  0.00  0.00    +0.000 C 
BRANCH  12  13
ATOM     13  C   UNL     1       4.437   2.757  11.122  0.00  0.00    +0.000 C 
BRANCH  13  15
ATOM     14  C   UNL     1       3.060   4.283   9.666  0.00  0.00    +0.000 C 
ATOM     15  C   UNL     1       3.031   3.120  10.645  0.00  0.00    +0.000 C 
ENDBRANCH  13  15
ENDBRANCH  12  13
ENDBRANCH  11  12
ENDBRANCH  10  11
ENDBRANCH   9  10
ENDBRANCH   1   9
BRANCH   5  16
ATOM     16  C   UNL     1       4.254   5.445  19.356  0.00  0.00    +0.000 C 
BRANCH  16  17
ATOM     17  C   UNL     1       3.232   4.336  19.319  0.00  0.00    +0.000 A 
ATOM     18  C   UNL     1       1.896   4.583  19.084  0.00  0.00    +0.000 A 
ATOM     19  N   UNL     1       0.968   3.620  18.914  0.00  0.00    +0.000 NA
ATOM     20  C   UNL     1       1.416   2.362  18.970  0.00  0.00    +0.000 A 
ATOM     21  N   UNL     1       0.511   1.354  18.704  0.00  0.00    +0.000 N 
ATOM     22  N   UNL     1       2.662   2.008  19.274  0.00  0.00    +0.000 NA
ATOM     23  C   UNL     1       3.558   3.001  19.441  0.00  0.00    +0.000 A 
ATOM     24  H   UNL     1      -0.426   1.673  18.891  0.00  0.00    +0.000 HD
ATOM     25  H   UNL     1       0.817   0.494  19.133  0.00  0.00    +0.000 HD
BRANCH  23  26
ATOM     26  N   UNL     1       4.830   2.594  19.828  0.00  0.00    +0.000 N 
ATOM     27  H   UNL     1       5.369   2.398  18.991  0.00  0.00    +0.000 HD
ATOM     28  H   UNL     1       5.274   3.276  20.437  0.00  0.00    +0.000 HD
ENDBRANCH  23  26
ENDBRANCH  16  17
ENDBRANCH   5  16
TORSDOF 10
ENDMDL
MODEL 4
REMARK VINA RESULT:      -7.1      2.157      2.813
REMARK  Name = 
REMARK  12 active torsions:
REMARK  status: ('A' for Active; 'I' for Inactive)
REMARK    1  A    between atoms: C_1  and  C_2
REMARK    2  A    between atoms: C_2  and  C_3
REMARK    3  A    between atoms: C_3  and  C_4
REMARK    4  A    between atoms: C_4  and  C_5
REMARK    5  A    between atoms: C_5  and  C_6
REMARK    6  A    between atoms: C_6  and  O_7
REMARK    7  A    between atoms: O_7  and  C_8
REMARK    8  A    between atoms: C_11  and  O_12
REMARK    9  A    between atoms: O_12  and  C_13
REMARK   10  A    between atoms: C_14  and  C_15
REMARK   11  A    between atoms: C_15  and  C_16
REMARK   12  A    between atoms: C_22  and  N_23
REMARK                            x       y       z     vdW  Elec       q    Type
REMARK                         _______ _______ _______ _____ _____    ______ ____
ROOT
ATOM      1  C   UNL     1       5.978   4.701  15.483  0.00  0.00    +0.000 A 
ATOM      2  C   UNL     1       5.485   5.880  14.941  0.00  0.00    +0.000 A 
ATOM      3  C   UNL     1       4.847   6.811  15.756  0.00  0.00    +0.000 A 
ATOM      4  C   UNL     1       4.761   6.629  17.140  0.00  0.00    +0.000 A 
ATOM      5  C   UNL     1       5.261   5.436  17.711  0.00  0.00    +0.000 A 
ATOM      6  C   UNL     1       5.841   4.469  16.854  0.00  0.00    +0.000 A 
ENDROOT
BRANCH   4   7
ATOM      7  O   UNL     1       4.197   7.581  17.956  0.00  0.00    +0.000 OA
ATOM      8  C   UNL     1       2.821   7.878  17.672  0.00  0.00    +0.000 C 
ENDBRANCH   4   7
BRANCH   1   9
ATOM      9  O   UNL     1       6.641   3.900  14.594  0.00  0.00    +0.000 OA
BRANCH   9  10
ATOM     10  C   UNL     1       7.063   4.523  13.384  0.00  0.00    +0.000 C 
BRANCH  10  11
ATOM     11  C   UNL     1       6.848   3.545  12.228  0.00  0.00    +0.000 C 
BRANCH  11  12
ATOM     12  C   UNL     1       5.358   3.268  12.030  0.00  0.00    +0.000 C 
BRANCH  12  13
ATOM     13  C   UNL     1       5.117   1.984  11.235  0.00  0.00    +0.000 C 
BRANCH  13  15
ATOM     14  C   UNL     1       6.157  -0.309  11.313  0.00  0.00    +0.000 C 
ATOM     15  C   UNL     1       6.407   1.174  11.092  0.00  0.00    +0.000 C 
ENDBRANCH  13  15
ENDBRANCH  12  13
ENDBRANCH  11  12
ENDBRANCH  10  11
ENDBRANCH   9  10
ENDBRANCH   1   9
BRANCH   5  16
ATOM     16  C   UNL     1       5.319   5.173  19.215  0.00  0.00    +0.000 C 
BRANCH  16  17
ATOM     17  C   UNL     1       4.070   4.515  19.748  0.00  0.00    +0.000 A 
ATOM     18  C   UNL     1       2.971   5.248  20.141  0.00  0.00    +0.000 A 
ATOM     19  N   UNL     1       1.790   4.706  20.502  0.00  0.00    +0.000 NA
ATOM     20  C   UNL     1       1.719   3.374  20.446  0.00  0.00    +0.000 A 
ATOM     21  N   UNL     1       0.497   2.791  20.716  0.00  0.00    +0.000 N 
ATOM     22  N   UNL     1       2.739   2.565  20.165  0.00  0.00    +0.000 NA
ATOM     23  C   UNL     1       3.904   3.147  19.814  0.00  0.00    +0.000 A 
ATOM     24  H   UNL     1      -0.059   3.405  21.288  0.00  0.00    +0.000 HD
ATOM     25  H   UNL     1       0.629   1.839  21.023  0.00  0.00    +0.000 HD
BRANCH  23  26
ATOM     26  N   UNL     1       4.962   2.273  19.599  0.00  0.00    +0.000 N 
ATOM     27  H   UNL     1       5.416   2.099  20.491  0.00  0.00    +0.000 HD
ATOM     28  H   UNL     1       4.659   1.421  19.134  0.00  0.00    +0.000 HD
ENDBRANCH  23  26
ENDBRANCH  16  17
ENDBRANCH   5  16
TORSDOF 10
ENDMDL
MODEL 5
REMARK VINA RESULT:      -7.0      4.154      6.313
REMARK  Name = 
REMARK  12 active torsions:
REMARK  status: ('A' for Active; 'I' for Inactive)
REMARK    1  A    between atoms: C_1  and  C_2
REMARK    2  A    between atoms: C_2  and  C_3
REMARK    3  A    between atoms: C_3  and  C_4
REMARK    4  A    between atoms: C_4  and  C_5
REMARK    5  A    between atoms: C_5  and  C_6
REMARK    6  A    between atoms: C_6  and  O_7
REMARK    7  A    between atoms: O_7  and  C_8
REMARK    8  A    between atoms: C_11  and  O_12
REMARK    9  A    between atoms: O_12  and  C_13
REMARK   10  A    between atoms: C_14  and  C_15
REMARK   11  A    between atoms: C_15  and  C_16
REMARK   12  A    between atoms: C_22  and  N_23
REMARK                            x       y       z     vdW  Elec       q    Type
REMARK                         _______ _______ _______ _____ _____    ______ ____
ROOT
ATOM      1  C   UNL     1       3.703   3.994  16.935  0.00  0.00    +0.000 A 
ATOM      2  C   UNL     1       2.698   3.042  17.032  0.00  0.00    +0.000 A 
ATOM      3  C   UNL     1       1.844   3.035  18.132  0.00  0.00    +0.000 A 
ATOM      4  C   UNL     1       1.917   4.026  19.116  0.00  0.00    +0.000 A 
ATOM      5  C   UNL     1       2.931   5.008  19.032  0.00  0.00    +0.000 A 
ATOM      6  C   UNL     1       3.835   4.954  17.943  0.00  0.00    +0.000 A 
ENDROOT
BRANCH   4   7
ATOM      7  O   UNL     1       1.027   4.065  20.164  0.00  0.00    +0.000 OA
ATOM      8  C   UNL     1       1.228   3.049  21.160  0.00  0.00    +0.000 C 
ENDBRANCH   4   7
BRANCH   1   9
ATOM      9  O   UNL     1       4.432   3.937  15.779  0.00  0.00    +0.000 OA
BRANCH   9  10
ATOM     10  C   UNL     1       5.826   3.688  15.931  0.00  0.00    +0.000 C 
BRANCH  10  11
ATOM     11  C   UNL     1       6.603   4.838  15.288  0.00  0.00    +0.000 C 
BRANCH  11  12
ATOM     12  C   UNL     1       7.244   5.717  16.360  0.00  0.00    +0.000 C 
BRANCH  12  13
ATOM     13  C   UNL     1       7.423   4.968  17.680  0.00  0.00    +0.000 C 
BRANCH  13  15
ATOM     14  C   UNL     1       7.971   7.347  18.301  0.00  0.00    +0.000 C 
ATOM     15  C   UNL     1       7.792   5.927  18.813  0.00  0.00    +0.000 C 
ENDBRANCH  13  15
ENDBRANCH  12  13
ENDBRANCH  11  12
ENDBRANCH  10  11
ENDBRANCH   9  10
ENDBRANCH   1   9
BRANCH   5  16
ATOM     16  C   UNL     1       3.044   6.197  19.984  0.00  0.00    +0.000 C 
BRANCH  16  17
ATOM     17  C   UNL     1       2.393   7.448  19.449  0.00  0.00    +0.000 A 
ATOM     18  C   UNL     1       2.492   7.812  18.123  0.00  0.00    +0.000 A 
ATOM     19  N   UNL     1       1.826   8.845  17.570  0.00  0.00    +0.000 NA
ATOM     20  C   UNL     1       1.018   9.523  18.390  0.00  0.00    +0.000 A 
ATOM     21  N   UNL     1       0.247  10.526  17.836  0.00  0.00    +0.000 N 
ATOM     22  N   UNL     1       0.909   9.314  19.700  0.00  0.00    +0.000 NA
ATOM     23  C   UNL     1       1.596   8.274  20.214  0.00  0.00    +0.000 A 
ATOM     24  H   UNL     1       0.678  10.865  16.992  0.00  0.00    +0.000 HD
ATOM     25  H   UNL     1      -0.009  11.196  18.545  0.00  0.00    +0.000 HD
BRANCH  23  26
ATOM     26  N   UNL     1       1.514   8.134  21.595  0.00  0.00    +0.000 N 
ATOM     27  H   UNL     1       2.160   7.404  21.878  0.00  0.00    +0.000 HD
ATOM     28  H   UNL     1       1.674   9.016  22.073  0.00  0.00    +0.000 HD
ENDBRANCH  23  26
ENDBRANCH  16  17
ENDBRANCH   5  16
TORSDOF 10
ENDMDL
MODEL 6
REMARK VINA RESULT:      -7.0      2.173      3.394
REMARK  Name = 
REMARK  12 active torsions:
REMARK  status: ('A' for Active; 'I' for Inactive)
REMARK    1  A    between atoms: C_1  and  C_2
REMARK    2  A    between atoms: C_2  and  C_3
REMARK    3  A    between atoms: C_3  and  C_4
REMARK    4  A    between atoms: C_4  and  C_5
REMARK    5  A    between atoms: C_5  and  C_6
REMARK    6  A    between atoms: C_6  and  O_7
REMARK    7  A    between atoms: O_7  and  C_8
REMARK    8  A    between atoms: C_11  and  O_12
REMARK    9  A    between atoms: O_12  and  C_13
REMARK   10  A    between atoms: C_14  and  C_15
REMARK   11  A    between atoms: C_15  and  C_16
REMARK   12  A    between atoms: C_22  and  N_23
REMARK                            x       y       z     vdW  Elec       q    Type
REMARK                         _______ _______ _______ _____ _____    ______ ____
ROOT
ATOM      1  C   UNL     1       5.498   5.093  16.774  0.00  0.00    +0.000 A 
ATOM      2  C   UNL     1       5.709   6.432  17.070  0.00  0.00    +0.000 A 
ATOM      3  C   UNL     1       4.646   7.234  17.476  0.00  0.00    +0.000 A 
ATOM      4  C   UNL     1       3.369   6.703  17.677  0.00  0.00    +0.000 A 
ATOM      5  C   UNL     1       3.134   5.340  17.385  0.00  0.00    +0.000 A 
ATOM      6  C   UNL     1       4.214   4.558  16.903  0.00  0.00    +0.000 A 
ENDROOT
BRANCH   4   7
ATOM      7  O   UNL     1       2.334   7.477  18.149  0.00  0.00    +0.000 OA
ATOM      8  C   UNL     1       2.439   8.875  17.834  0.00  0.00    +0.000 C 
ENDBRANCH   4   7
BRANCH   1   9
ATOM      9  O   UNL     1       6.630   4.396  16.451  0.00  0.00    +0.000 OA
BRANCH   9  10
ATOM     10  C   UNL     1       7.198   4.681  15.176  0.00  0.00    +0.000 C 
BRANCH  10  11
ATOM     11  C   UNL     1       6.359   3.989  14.100  0.00  0.00    +0.000 C 
BRANCH  11  12
ATOM     12  C   UNL     1       6.831   4.398  12.706  0.00  0.00    +0.000 C 
BRANCH  12  13
ATOM     13  C   UNL     1       6.704   3.253  11.702  0.00  0.00    +0.000 C 
BRANCH  13  15
ATOM     14  C   UNL     1       4.226   3.242  11.250  0.00  0.00    +0.000 C 
ATOM     15  C   UNL     1       5.387   2.498  11.889  0.00  0.00    +0.000 C 
ENDBRANCH  13  15
ENDBRANCH  12  13
ENDBRANCH  11  12
ENDBRANCH  10  11
ENDBRANCH   9  10
ENDBRANCH   1   9
BRANCH   5  16
ATOM     16  C   UNL     1       1.814   4.625  17.664  0.00  0.00    +0.000 C 
BRANCH  16  17
ATOM     17  C   UNL     1       1.795   3.915  18.995  0.00  0.00    +0.000 A 
ATOM     18  C   UNL     1       1.644   4.598  20.183  0.00  0.00    +0.000 A 
ATOM     19  N   UNL     1       1.492   4.003  21.384  0.00  0.00    +0.000 NA
ATOM     20  C   UNL     1       1.478   2.667  21.374  0.00  0.00    +0.000 A 
ATOM     21  N   UNL     1       1.228   2.027  22.571  0.00  0.00    +0.000 N 
ATOM     22  N   UNL     1       1.700   1.908  20.303  0.00  0.00    +0.000 NA
ATOM     23  C   UNL     1       1.851   2.543  19.123  0.00  0.00    +0.000 A 
ATOM     24  H   UNL     1       1.478   2.625  23.341  0.00  0.00    +0.000 HD
ATOM     25  H   UNL     1       1.609   1.093  22.549  0.00  0.00    +0.000 HD
BRANCH  23  26
ATOM     26  N   UNL     1       2.153   1.722  18.043  0.00  0.00    +0.000 N 
ATOM     27  H   UNL     1       2.338   2.312  17.238  0.00  0.00    +0.000 HD
ATOM     28  H   UNL     1       2.917   1.086  18.255  0.00  0.00    +0.000 HD
ENDBRANCH  23  26
ENDBRANCH  16  17
ENDBRANCH   5  16
TORSDOF 10
ENDMDL
MODEL 7
REMARK VINA RESULT:      -7.0      3.394      5.120
REMARK  Name = 
REMARK  12 active torsions:
REMARK  status: ('A' for Active; 'I' for Inactive)
REMARK    1  A    between atoms: C_1  and  C_2
REMARK    2  A    between atoms: C_2  and  C_3
REMARK    3  A    between atoms: C_3  and  C_4
REMARK    4  A    between atoms: C_4  and  C_5
REMARK    5  A    between atoms: C_5  and  C_6
REMARK    6  A    between atoms: C_6  and  O_7
REMARK    7  A    between atoms: O_7  and  C_8
REMARK    8  A    between atoms: C_11  and  O_12
REMARK    9  A    between atoms: O_12  and  C_13
REMARK   10  A    between atoms: C_14  and  C_15
REMARK   11  A    between atoms: C_15  and  C_16
REMARK   12  A    between atoms: C_22  and  N_23
REMARK                            x       y       z     vdW  Elec       q    Type
REMARK                         _______ _______ _______ _____ _____    ______ ____
ROOT
ATOM      1  C   UNL     1       5.039   4.893  17.166  0.00  0.00    +0.000 A 
ATOM      2  C   UNL     1       4.267   3.868  16.637  0.00  0.00    +0.000 A 
ATOM      3  C   UNL     1       3.060   3.520  17.237  0.00  0.00    +0.000 A 
ATOM      4  C   UNL     1       2.553   4.239  18.324  0.00  0.00    +0.000 A 
ATOM      5  C   UNL     1       3.323   5.290  18.875  0.00  0.00    +0.000 A 
ATOM      6  C   UNL     1       4.582   5.580  18.295  0.00  0.00    +0.000 A 
ENDROOT
BRANCH   4   7
ATOM      7  O   UNL     1       1.327   3.944  18.872  0.00  0.00    +0.000 OA
ATOM      8  C   UNL     1       0.896   2.587  18.686  0.00  0.00    +0.000 C 
ENDBRANCH   4   7
BRANCH   1   9
ATOM      9  O   UNL     1       6.168   5.183  16.451  0.00  0.00    +0.000 OA
BRANCH   9  10
ATOM     10  C   UNL     1       6.742   4.102  15.722  0.00  0.00    +0.000 C 
BRANCH  10  11
ATOM     11  C   UNL     1       6.784   4.477  14.240  0.00  0.00    +0.000 C 
BRANCH  11  12
ATOM     12  C   UNL     1       5.648   3.792  13.481  0.00  0.00    +0.000 C 
BRANCH  12  13
ATOM     13  C   UNL     1       6.007   3.546  12.016  0.00  0.00    +0.000 C 
BRANCH  13  15
ATOM     14  C   UNL     1       6.910   1.451  10.948  0.00  0.00    +0.000 C 
ATOM     15  C   UNL     1       5.707   2.103  11.609  0.00  0.00    +0.000 C 
ENDBRANCH  13  15
ENDBRANCH  12  13
ENDBRANCH  11  12
ENDBRANCH  10  11
ENDBRANCH   9  10
ENDBRANCH   1   9
BRANCH   5  16
ATOM     16  C   UNL     1       2.830   6.211  19.989  0.00  0.00    +0.000 C 
BRANCH  16  17
ATOM     17  C   UNL     1       2.266   7.512  19.475  0.00  0.00    +0.000 A 
ATOM     18  C   UNL     1       2.304   7.846  18.138  0.00  0.00    +0.000 A 
ATOM     19  N   UNL     1       1.703   8.933  17.613  0.00  0.00    +0.000 NA
ATOM     20  C   UNL     1       1.027   9.698  18.474  0.00  0.00    +0.000 A 
ATOM     21  N   UNL     1       0.320  10.764  17.955  0.00  0.00    +0.000 N 
ATOM     22  N   UNL     1       0.994   9.519  19.793  0.00  0.00    +0.000 NA
ATOM     23  C   UNL     1       1.612   8.424  20.278  0.00  0.00    +0.000 A 
ATOM     24  H   UNL     1       0.718  11.047  17.075  0.00  0.00    +0.000 HD
ATOM     25  H   UNL     1       0.183  11.466  18.666  0.00  0.00    +0.000 HD
BRANCH  23  26
ATOM     26  N   UNL     1       1.618   8.311  21.663  0.00  0.00    +0.000 N 
ATOM     27  H   UNL     1       0.669   8.124  21.971  0.00  0.00    +0.000 HD
ATOM     28  H   UNL     1       2.286   7.614  21.981  0.00  0.00    +0.000 HD
ENDBRANCH  23  26
ENDBRANCH  16  17
ENDBRANCH   5  16
TORSDOF 10
ENDMDL
MODEL 8
REMARK VINA RESULT:      -7.0      4.203      7.252
REMARK  Name = 
REMARK  12 active torsions:
REMARK  status: ('A' for Active; 'I' for Inactive)
REMARK    1  A    between atoms: C_1  and  C_2
REMARK    2  A    between atoms: C_2  and  C_3
REMARK    3  A    between atoms: C_3  and  C_4
REMARK    4  A    between atoms: C_4  and  C_5
REMARK    5  A    between atoms: C_5  and  C_6
REMARK    6  A    between atoms: C_6  and  O_7
REMARK    7  A    between atoms: O_7  and  C_8
REMARK    8  A    between atoms: C_11  and  O_12
REMARK    9  A    between atoms: O_12  and  C_13
REMARK   10  A    between atoms: C_14  and  C_15
REMARK   11  A    between atoms: C_15  and  C_16
REMARK   12  A    between atoms: C_22  and  N_23
REMARK                            x       y       z     vdW  Elec       q    Type
REMARK                         _______ _______ _______ _____ _____    ______ ____
ROOT
ATOM      1  C   UNL     1       2.524   6.777  19.403  0.00  0.00    +0.000 A 
ATOM      2  C   UNL     1       1.482   6.167  20.085  0.00  0.00    +0.000 A 
ATOM      3  C   UNL     1       1.566   4.820  20.429  0.00  0.00    +0.000 A 
ATOM      4  C   UNL     1       2.721   4.075  20.177  0.00  0.00    +0.000 A 
ATOM      5  C   UNL     1       3.796   4.680  19.486  0.00  0.00    +0.000 A 
ATOM      6  C   UNL     1       3.662   6.031  19.081  0.00  0.00    +0.000 A 
ENDROOT
BRANCH   4   7
ATOM      7  O   UNL     1       2.834   2.765  20.583  0.00  0.00    +0.000 OA
ATOM      8  C   UNL     1       2.054   2.425  21.740  0.00  0.00    +0.000 C 
ENDBRANCH   4   7
BRANCH   1   9
ATOM      9  O   UNL     1       2.352   8.116  19.180  0.00  0.00    +0.000 OA
BRANCH   9  10
ATOM     10  C   UNL     1       2.042   8.493  17.842  0.00  0.00    +0.000 C 
BRANCH  10  11
ATOM     11  C   UNL     1       1.146   9.733  17.877  0.00  0.00    +0.000 C 
BRANCH  11  12
ATOM     12  C   UNL     1       0.454   9.856  19.233  0.00  0.00    +0.000 C 
BRANCH  12  13
ATOM     13  C   UNL     1      -1.005  10.291  19.091  0.00  0.00    +0.000 C 
BRANCH  13  15
ATOM     14  C   UNL     1      -2.932   9.754  17.560  0.00  0.00    +0.000 C 
ATOM     15  C   UNL     1      -1.475  10.180  17.640  0.00  0.00    +0.000 C 
ENDBRANCH  13  15
ENDBRANCH  12  13
ENDBRANCH  11  12
ENDBRANCH  10  11
ENDBRANCH   9  10
ENDBRANCH   1   9
BRANCH   5  16
ATOM     16  C   UNL     1       5.144   4.002  19.249  0.00  0.00    +0.000 C 
BRANCH  16  17
ATOM     17  C   UNL     1       5.671   4.207  17.850  0.00  0.00    +0.000 A 
ATOM     18  C   UNL     1       4.875   4.032  16.738  0.00  0.00    +0.000 A 
ATOM     19  N   UNL     1       5.260   4.326  15.479  0.00  0.00    +0.000 NA
ATOM     20  C   UNL     1       6.489   4.830  15.348  0.00  0.00    +0.000 A 
ATOM     21  N   UNL     1       6.879   5.232  14.086  0.00  0.00    +0.000 N 
ATOM     22  N   UNL     1       7.370   4.962  16.337  0.00  0.00    +0.000 NA
ATOM     23  C   UNL     1       6.948   4.653  17.580  0.00  0.00    +0.000 A 
ATOM     24  H   UNL     1       6.348   4.739  13.388  0.00  0.00    +0.000 HD
ATOM     25  H   UNL     1       7.885   5.224  14.017  0.00  0.00    +0.000 HD
BRANCH  23  26
ATOM     26  N   UNL     1       7.917   4.735  18.573  0.00  0.00    +0.000 N 
ATOM     27  H   UNL     1       8.825   4.806  18.125  0.00  0.00    +0.000 HD
ATOM     28  H   UNL     1       7.730   5.497  19.219  0.00  0.00    +0.000 HD
ENDBRANCH  23  26
ENDBRANCH  16  17
ENDBRANCH   5  16
TORSDOF 10
ENDMDL
MODEL 9
REMARK VINA RESULT:      -7.0      1.318      1.518
REMARK  Name = 
REMARK  12 active torsions:
REMARK  status: ('A' for Active; 'I' for Inactive)
REMARK    1  A    between atoms: C_1  and  C_2
REMARK    2  A    between atoms: C_2  and  C_3
REMARK    3  A    between atoms: C_3  and  C_4
REMARK    4  A    between atoms: C_4  and  C_5
REMARK    5  A    between atoms: C_5  and  C_6
REMARK    6  A    between atoms: C_6  and  O_7
REMARK    7  A    between atoms: O_7  and  C_8
REMARK    8  A    between atoms: C_11  and  O_12
REMARK    9  A    between atoms: O_12  and  C_13
REMARK   10  A    between atoms: C_14  and  C_15
REMARK   11  A    between atoms: C_15  and  C_16
REMARK   12  A    between atoms: C_22  and  N_23
REMARK                            x       y       z     vdW  Elec       q    Type
REMARK                         _______ _______ _______ _____ _____    ______ ____
ROOT
ATOM      1  C   UNL     1       6.116   3.849  14.724  0.00  0.00    +0.000 A 
ATOM      2  C   UNL     1       6.496   5.146  14.409  0.00  0.00    +0.000 A 
ATOM      3  C   UNL     1       6.509   6.130  15.394  0.00  0.00    +0.000 A 
ATOM      4  C   UNL     1       6.225   5.827  16.729  0.00  0.00    +0.000 A 
ATOM      5  C   UNL     1       5.840   4.510  17.071  0.00  0.00    +0.000 A 
ATOM      6  C   UNL     1       5.763   3.540  16.040  0.00  0.00    +0.000 A 
ENDROOT
BRANCH   4   7
ATOM      7  O   UNL     1       6.309   6.780  17.716  0.00  0.00    +0.000 OA
ATOM      8  C   UNL     1       7.523   7.549  17.707  0.00  0.00    +0.000 C 
ENDBRANCH   4   7
BRANCH   1   9
ATOM      9  O   UNL     1       6.208   2.961  13.687  0.00  0.00    +0.000 OA
BRANCH   9  10
ATOM     10  C   UNL     1       6.135   3.518  12.378  0.00  0.00    +0.000 C 
BRANCH  10  11
ATOM     11  C   UNL     1       5.097   2.738  11.570  0.00  0.00    +0.000 C 
BRANCH  11  12
ATOM     12  C   UNL     1       3.816   3.556  11.410  0.00  0.00    +0.000 C 
BRANCH  12  13
ATOM     13  C   UNL     1       3.093   3.234  10.102  0.00  0.00    +0.000 C 
BRANCH  13  15
ATOM     14  C   UNL     1       1.937   5.139   8.928  0.00  0.00    +0.000 C 
ATOM     15  C   UNL     1       3.241   4.376   9.095  0.00  0.00    +0.000 C 
ENDBRANCH  13  15
ENDBRANCH  12  13
ENDBRANCH  11  12
ENDBRANCH  10  11
ENDBRANCH   9  10
ENDBRANCH   1   9
BRANCH   5  16
ATOM     16  C   UNL     1       5.610   4.036  18.505  0.00  0.00    +0.000 C 
BRANCH  16  17
ATOM     17  C   UNL     1       4.152   3.832  18.834  0.00  0.00    +0.000 A 
ATOM     18  C   UNL     1       3.517   2.628  18.616  0.00  0.00    +0.000 A 
ATOM     19  N   UNL     1       2.256   2.356  19.010  0.00  0.00    +0.000 NA
ATOM     20  C   UNL     1       1.626   3.336  19.663  0.00  0.00    +0.000 A 
ATOM     21  N   UNL     1       0.370   3.059  20.165  0.00  0.00    +0.000 N 
ATOM     22  N   UNL     1       2.109   4.562  19.853  0.00  0.00    +0.000 NA
ATOM     23  C   UNL     1       3.371   4.794  19.440  0.00  0.00    +0.000 A 
ATOM     24  H   UNL     1      -0.052   2.307  19.644  0.00  0.00    +0.000 HD
ATOM     25  H   UNL     1      -0.153   3.914  20.279  0.00  0.00    +0.000 HD
BRANCH  23  26
ATOM     26  N   UNL     1       3.813   6.103  19.590  0.00  0.00    +0.000 N 
ATOM     27  H   UNL     1       4.715   6.082  20.055  0.00  0.00    +0.000 HD
ATOM     28  H   UNL     1       3.833   6.598  18.702  0.00  0.00    +0.000 HD
ENDBRANCH  23  26
ENDBRANCH  16  17
ENDBRANCH   5  16
TORSDOF 10
ENDMDL
