MODEL 1
REMARK VINA RESULT:      -8.6      0.000      0.000
REMARK  Name = 
REMARK  6 active torsions:
REMARK  status: ('A' for Active; 'I' for Inactive)
REMARK    1  A    between atoms: C_2  and  C_3
REMARK    2  A    between atoms: C_3  and  N_4
REMARK    3  A    between atoms: C_10  and  C_11
REMARK    4  A    between atoms: N_21  and  N_22
REMARK    5  A    between atoms: C_23  and  C_24
REMARK    6  A    between atoms: C_29  and  O_30
REMARK                            x       y       z     vdW  Elec       q    Type
REMARK                         _______ _______ _______ _____ _____    ______ ____
ROOT
ATOM      1  N   UNL     1       5.464   5.258  18.068  0.00  0.00    +0.000 N 
ATOM      2  C   UNL     1       5.383   3.952  18.508  0.00  0.00    +0.000 A 
ATOM      3  N   UNL     1       4.486   3.487  19.316  0.00  0.00    +0.000 NA
ATOM      4  C   UNL     1       3.532   4.384  19.671  0.00  0.00    +0.000 A 
ATOM      5  S   UNL     1       2.249   3.923  20.691  0.00  0.00    +0.000 S 
ATOM      6  C   UNL     1       1.524   5.465  20.569  0.00  0.00    +0.000 A 
ATOM      7  C   UNL     1       2.245   6.350  19.783  0.00  0.00    +0.000 A 
ATOM      8  C   UNL     1       3.449   5.710  19.292  0.00  0.00    +0.000 A 
ATOM      9  C   UNL     1       4.547   6.220  18.477  0.00  0.00    +0.000 A 
ATOM     10  O   UNL     1       4.690   7.409  18.194  0.00  0.00    +0.000 OA
ENDROOT
BRANCH   7  11
ATOM     11  C   UNL     1       1.740   7.711  19.539  0.00  0.00    +0.000 A 
ATOM     12  C   UNL     1       1.291   8.525  20.593  0.00  0.00    +0.000 A 
ATOM     13  C   UNL     1       0.837   9.828  20.354  0.00  0.00    +0.000 A 
ATOM     14  C   UNL     1       0.847  10.340  19.060  0.00  0.00    +0.000 A 
ATOM     15 CL   UNL     1       0.340  11.957  18.770  0.00  0.00    +0.000 Cl
ATOM     16  C   UNL     1       1.266   9.546  18.000  0.00  0.00    +0.000 A 
ATOM     17  C   UNL     1       1.679   8.231  18.238  0.00  0.00    +0.000 A 
ENDBRANCH   7  11
BRANCH   1  18
ATOM     18  C   UNL     1       6.538   5.662  17.170  0.00  0.00    +0.000 C 
BRANCH  18  20
ATOM     19  O   UNL     1       8.197   6.141  18.859  0.00  0.00    +0.000 OA
ATOM     20  C   UNL     1       7.550   6.552  17.897  0.00  0.00    +0.000 C 
ATOM     21  N   UNL     1       7.575   7.856  17.413  0.00  0.00    +0.000 N 
ATOM     22  H   UNL     1       7.089   8.118  16.560  0.00  0.00    +0.000 HD
BRANCH  21  23
ATOM     23  N   UNL     1       8.391   8.771  18.007  0.00  0.00    +0.000 NA
ATOM     24  C   UNL     1       8.175  10.018  17.714  0.00  0.00    +0.000 C 
BRANCH  24  25
ATOM     25  C   UNL     1       9.023  11.095  18.272  0.00  0.00    +0.000 A 
ATOM     26  C   UNL     1      10.019  10.779  19.205  0.00  0.00    +0.000 A 
ATOM     27  C   UNL     1      10.857  11.778  19.700  0.00  0.00    +0.000 A 
ATOM     28  C   UNL     1      10.702  13.095  19.269  0.00  0.00    +0.000 A 
ATOM     29  C   UNL     1       9.702  13.419  18.349  0.00  0.00    +0.000 A 
ATOM     30  C   UNL     1       8.865  12.418  17.851  0.00  0.00    +0.000 A 
BRANCH  30  31
ATOM     31  O   UNL     1       7.896  12.738  16.939  0.00  0.00    +0.000 OA
ATOM     32  H   UNL     1       8.177  12.424  16.062  0.00  0.00    +0.000 HD
ENDBRANCH  30  31
ENDBRANCH  24  25
ENDBRANCH  21  23
ENDBRANCH  18  20
ENDBRANCH   1  18
TORSDOF 6
ENDMDL
MODEL 2
REMARK VINA RESULT:      -8.5      1.375      1.490
REMARK  Name = 
REMARK  6 active torsions:
REMARK  status: ('A' for Active; 'I' for Inactive)
REMARK    1  A    between atoms: C_2  and  C_3
REMARK    2  A    between atoms: C_3  and  N_4
REMARK    3  A    between atoms: C_10  and  C_11
REMARK    4  A    between atoms: N_21  and  N_22
REMARK    5  A    between atoms: C_23  and  C_24
REMARK    6  A    between atoms: C_29  and  O_30
REMARK                            x       y       z     vdW  Elec       q    Type
REMARK                         _______ _______ _______ _____ _____    ______ ____
ROOT
ATOM      1  N   UNL     1       5.581   5.362  16.896  0.00  0.00    +0.000 N 
ATOM      2  C   UNL     1       5.423   4.008  16.682  0.00  0.00    +0.000 A 
ATOM      3  N   UNL     1       4.453   3.285  17.140  0.00  0.00    +0.000 NA
ATOM      4  C   UNL     1       3.507   3.980  17.820  0.00  0.00    +0.000 A 
ATOM      5  S   UNL     1       2.138   3.188  18.449  0.00  0.00    +0.000 S 
ATOM      6  C   UNL     1       1.477   4.658  19.013  0.00  0.00    +0.000 A 
ATOM      7  C   UNL     1       2.284   5.756  18.759  0.00  0.00    +0.000 A 
ATOM      8  C   UNL     1       3.498   5.335  18.089  0.00  0.00    +0.000 A 
ATOM      9  C   UNL     1       4.670   6.089  17.655  0.00  0.00    +0.000 A 
ATOM     10  O   UNL     1       4.875   7.264  17.958  0.00  0.00    +0.000 OA
ENDROOT
BRANCH   7  11
ATOM     11  C   UNL     1       1.845   7.108  19.143  0.00  0.00    +0.000 A 
ATOM     12  C   UNL     1       1.581   7.438  20.483  0.00  0.00    +0.000 A 
ATOM     13  C   UNL     1       1.189   8.734  20.842  0.00  0.00    +0.000 A 
ATOM     14  C   UNL     1       1.080   9.721  19.867  0.00  0.00    +0.000 A 
ATOM     15 CL   UNL     1       0.651  11.326  20.311  0.00  0.00    +0.000 Cl
ATOM     16  C   UNL     1       1.316   9.412  18.533  0.00  0.00    +0.000 A 
ATOM     17  C   UNL     1       1.666   8.106  18.174  0.00  0.00    +0.000 A 
ENDBRANCH   7  11
BRANCH   1  18
ATOM     18  C   UNL     1       6.732   6.062  16.339  0.00  0.00    +0.000 C 
BRANCH  18  20
ATOM     19  O   UNL     1       7.972   6.021  18.411  0.00  0.00    +0.000 OA
ATOM     20  C   UNL     1       7.582   6.682  17.450  0.00  0.00    +0.000 C 
ATOM     21  N   UNL     1       7.771   8.052  17.292  0.00  0.00    +0.000 N 
ATOM     22  H   UNL     1       7.507   8.531  16.435  0.00  0.00    +0.000 HD
BRANCH  21  23
ATOM     23  N   UNL     1       8.463   8.743  18.240  0.00  0.00    +0.000 NA
ATOM     24  C   UNL     1       8.727   9.987  17.975  0.00  0.00    +0.000 C 
BRANCH  24  25
ATOM     25  C   UNL     1       9.505  10.823  18.916  0.00  0.00    +0.000 A 
ATOM     26  C   UNL     1       9.074  10.959  20.242  0.00  0.00    +0.000 A 
ATOM     27  C   UNL     1       9.825  11.702  21.151  0.00  0.00    +0.000 A 
ATOM     28  C   UNL     1      11.007  12.319  20.739  0.00  0.00    +0.000 A 
ATOM     29  C   UNL     1      11.435  12.200  19.414  0.00  0.00    +0.000 A 
ATOM     30  C   UNL     1      10.684  11.451  18.506  0.00  0.00    +0.000 A 
BRANCH  30  31
ATOM     31  O   UNL     1      11.116  11.326  17.213  0.00  0.00    +0.000 OA
ATOM     32  H   UNL     1      11.959  11.802  17.118  0.00  0.00    +0.000 HD
ENDBRANCH  30  31
ENDBRANCH  24  25
ENDBRANCH  21  23
ENDBRANCH  18  20
ENDBRANCH   1  18
TORSDOF 6
ENDMDL
MODEL 3
REMARK VINA RESULT:      -8.4      0.999      1.224
REMARK  Name = 
REMARK  6 active torsions:
REMARK  status: ('A' for Active; 'I' for Inactive)
REMARK    1  A    between atoms: C_2  and  C_3
REMARK    2  A    between atoms: C_3  and  N_4
REMARK    3  A    between atoms: C_10  and  C_11
REMARK    4  A    between atoms: N_21  and  N_22
REMARK    5  A    between atoms: C_23  and  C_24
REMARK    6  A    between atoms: C_29  and  O_30
REMARK                            x       y       z     vdW  Elec       q    Type
REMARK                         _______ _______ _______ _____ _____    ______ ____
ROOT
ATOM      1  N   UNL     1       5.438   5.348  18.012  0.00  0.00    +0.000 N 
ATOM      2  C   UNL     1       5.358   4.027  18.403  0.00  0.00    +0.000 A 
ATOM      3  N   UNL     1       4.465   3.533  19.199  0.00  0.00    +0.000 NA
ATOM      4  C   UNL     1       3.516   4.419  19.596  0.00  0.00    +0.000 A 
ATOM      5  S   UNL     1       2.241   3.922  20.608  0.00  0.00    +0.000 S 
ATOM      6  C   UNL     1       1.519   5.469  20.550  0.00  0.00    +0.000 A 
ATOM      7  C   UNL     1       2.235   6.382  19.792  0.00  0.00    +0.000 A 
ATOM      8  C   UNL     1       3.433   5.758  19.267  0.00  0.00    +0.000 A 
ATOM      9  C   UNL     1       4.526   6.296  18.463  0.00  0.00    +0.000 A 
ATOM     10  O   UNL     1       4.670   7.495  18.225  0.00  0.00    +0.000 OA
ENDROOT
BRANCH   7  11
ATOM     11  C   UNL     1       1.731   7.752  19.603  0.00  0.00    +0.000 A 
ATOM     12  C   UNL     1       1.241   8.506  20.683  0.00  0.00    +0.000 A 
ATOM     13  C   UNL     1       0.788   9.819  20.498  0.00  0.00    +0.000 A 
ATOM     14  C   UNL     1       0.842  10.399  19.235  0.00  0.00    +0.000 A 
ATOM     15 CL   UNL     1       0.336  12.028  19.015  0.00  0.00    +0.000 Cl
ATOM     16  C   UNL     1       1.303   9.666  18.149  0.00  0.00    +0.000 A 
ATOM     17  C   UNL     1       1.715   8.341  18.331  0.00  0.00    +0.000 A 
ENDBRANCH   7  11
BRANCH   1  18
ATOM     18  C   UNL     1       6.506   5.784  17.121  0.00  0.00    +0.000 C 
BRANCH  18  20
ATOM     19  O   UNL     1       8.230   5.991  18.799  0.00  0.00    +0.000 OA
ATOM     20  C   UNL     1       7.592   6.532  17.898  0.00  0.00    +0.000 C 
ATOM     21  N   UNL     1       7.697   7.871  17.535  0.00  0.00    +0.000 N 
ATOM     22  H   UNL     1       7.211   8.244  16.724  0.00  0.00    +0.000 HD
BRANCH  21  23
ATOM     23  N   UNL     1       8.586   8.671  18.188  0.00  0.00    +0.000 NA
ATOM     24  C   UNL     1       8.552   9.936  17.896  0.00  0.00    +0.000 C 
BRANCH  24  25
ATOM     25  C   UNL     1       9.497  10.891  18.517  0.00  0.00    +0.000 A 
ATOM     26  C   UNL     1      10.207  11.787  17.709  0.00  0.00    +0.000 A 
ATOM     27  C   UNL     1      11.062  12.725  18.286  0.00  0.00    +0.000 A 
ATOM     28  C   UNL     1      11.217  12.768  19.671  0.00  0.00    +0.000 A 
ATOM     29  C   UNL     1      10.523  11.867  20.483  0.00  0.00    +0.000 A 
ATOM     30  C   UNL     1       9.663  10.931  19.904  0.00  0.00    +0.000 A 
BRANCH  30  31
ATOM     31  O   UNL     1       8.975  10.060  20.704  0.00  0.00    +0.000 OA
ATOM     32  H   UNL     1       8.147   9.812  20.257  0.00  0.00    +0.000 HD
ENDBRANCH  30  31
ENDBRANCH  24  25
ENDBRANCH  21  23
ENDBRANCH  18  20
ENDBRANCH   1  18
TORSDOF 6
ENDMDL
MODEL 4
REMARK VINA RESULT:      -8.1      1.307      1.656
REMARK  Name = 
REMARK  6 active torsions:
REMARK  status: ('A' for Active; 'I' for Inactive)
REMARK    1  A    between atoms: C_2  and  C_3
REMARK    2  A    between atoms: C_3  and  N_4
REMARK    3  A    between atoms: C_10  and  C_11
REMARK    4  A    between atoms: N_21  and  N_22
REMARK    5  A    between atoms: C_23  and  C_24
REMARK    6  A    between atoms: C_29  and  O_30
REMARK                            x       y       z     vdW  Elec       q    Type
REMARK                         _______ _______ _______ _____ _____    ______ ____
ROOT
ATOM      1  N   UNL     1       5.969   5.712  17.271  0.00  0.00    +0.000 N 
ATOM      2  C   UNL     1       5.915   4.333  17.259  0.00  0.00    +0.000 A 
ATOM      3  N   UNL     1       4.957   3.615  17.751  0.00  0.00    +0.000 NA
ATOM      4  C   UNL     1       3.916   4.332  18.245  0.00  0.00    +0.000 A 
ATOM      5  S   UNL     1       2.551   3.542  18.887  0.00  0.00    +0.000 S 
ATOM      6  C   UNL     1       1.755   5.027  19.168  0.00  0.00    +0.000 A 
ATOM      7  C   UNL     1       2.509   6.132  18.805  0.00  0.00    +0.000 A 
ATOM      8  C   UNL     1       3.799   5.708  18.299  0.00  0.00    +0.000 A 
ATOM      9  C   UNL     1       4.954   6.474  17.840  0.00  0.00    +0.000 A 
ATOM     10  O   UNL     1       5.058   7.693  17.972  0.00  0.00    +0.000 OA
ENDROOT
BRANCH   7  11
ATOM     11  C   UNL     1       1.956   7.489  18.943  0.00  0.00    +0.000 A 
ATOM     12  C   UNL     1       1.782   8.325  17.827  0.00  0.00    +0.000 A 
ATOM     13  C   UNL     1       1.231   9.606  17.964  0.00  0.00    +0.000 A 
ATOM     14  C   UNL     1       0.826  10.055  19.217  0.00  0.00    +0.000 A 
ATOM     15 CL   UNL     1       0.101  11.606  19.382  0.00  0.00    +0.000 Cl
ATOM     16  C   UNL     1       1.008   9.255  20.338  0.00  0.00    +0.000 A 
ATOM     17  C   UNL     1       1.598   7.994  20.201  0.00  0.00    +0.000 A 
ENDBRANCH   7  11
BRANCH   1  18
ATOM     18  C   UNL     1       7.115   6.404  16.698  0.00  0.00    +0.000 C 
BRANCH  18  20
ATOM     19  O   UNL     1       8.286   6.642  18.797  0.00  0.00    +0.000 OA
ATOM     20  C   UNL     1       7.873   7.186  17.774  0.00  0.00    +0.000 C 
ATOM     21  N   UNL     1       7.952   8.548  17.504  0.00  0.00    +0.000 N 
ATOM     22  H   UNL     1       7.675   8.931  16.604  0.00  0.00    +0.000 HD
BRANCH  21  23
ATOM     23  N   UNL     1       8.551   9.373  18.408  0.00  0.00    +0.000 NA
ATOM     24  C   UNL     1       9.144  10.425  17.930  0.00  0.00    +0.000 C 
BRANCH  24  25
ATOM     25  C   UNL     1       9.860  11.370  18.816  0.00  0.00    +0.000 A 
ATOM     26  C   UNL     1       9.262  11.788  20.011  0.00  0.00    +0.000 A 
ATOM     27  C   UNL     1       9.948  12.639  20.878  0.00  0.00    +0.000 A 
ATOM     28  C   UNL     1      11.230  13.081  20.552  0.00  0.00    +0.000 A 
ATOM     29  C   UNL     1      11.826  12.680  19.354  0.00  0.00    +0.000 A 
ATOM     30  C   UNL     1      11.141  11.824  18.488  0.00  0.00    +0.000 A 
BRANCH  30  31
ATOM     31  O   UNL     1      11.736  11.423  17.323  0.00  0.00    +0.000 OA
ATOM     32  H   UNL     1      11.571  12.096  16.641  0.00  0.00    +0.000 HD
ENDBRANCH  30  31
ENDBRANCH  24  25
ENDBRANCH  21  23
ENDBRANCH  18  20
ENDBRANCH   1  18
TORSDOF 6
ENDMDL
MODEL 5
REMARK VINA RESULT:      -8.1      4.954      8.566
REMARK  Name = 
REMARK  6 active torsions:
REMARK  status: ('A' for Active; 'I' for Inactive)
REMARK    1  A    between atoms: C_2  and  C_3
REMARK    2  A    between atoms: C_3  and  N_4
REMARK    3  A    between atoms: C_10  and  C_11
REMARK    4  A    between atoms: N_21  and  N_22
REMARK    5  A    between atoms: C_23  and  C_24
REMARK    6  A    between atoms: C_29  and  O_30
REMARK                            x       y       z     vdW  Elec       q    Type
REMARK                         _______ _______ _______ _____ _____    ______ ____
ROOT
ATOM      1  N   UNL     1       1.693   8.792  19.167  0.00  0.00    +0.000 N 
ATOM      2  C   UNL     1       1.123   8.446  20.375  0.00  0.00    +0.000 A 
ATOM      3  N   UNL     1       1.220   7.288  20.946  0.00  0.00    +0.000 NA
ATOM      4  C   UNL     1       2.016   6.406  20.292  0.00  0.00    +0.000 A 
ATOM      5  S   UNL     1       2.291   4.852  20.931  0.00  0.00    +0.000 S 
ATOM      6  C   UNL     1       3.370   4.461  19.666  0.00  0.00    +0.000 A 
ATOM      7  C   UNL     1       3.521   5.480  18.738  0.00  0.00    +0.000 A 
ATOM      8  C   UNL     1       2.684   6.607  19.099  0.00  0.00    +0.000 A 
ATOM      9  C   UNL     1       2.450   7.884  18.434  0.00  0.00    +0.000 A 
ATOM     10  O   UNL     1       2.849   8.145  17.299  0.00  0.00    +0.000 OA
ENDROOT
BRANCH   7  11
ATOM     11  C   UNL     1       4.447   5.324  17.605  0.00  0.00    +0.000 A 
ATOM     12  C   UNL     1       4.286   4.292  16.665  0.00  0.00    +0.000 A 
ATOM     13  C   UNL     1       5.158   4.167  15.575  0.00  0.00    +0.000 A 
ATOM     14  C   UNL     1       6.186   5.088  15.401  0.00  0.00    +0.000 A 
ATOM     15 CL   UNL     1       7.224   4.969  14.035  0.00  0.00    +0.000 Cl
ATOM     16  C   UNL     1       6.377   6.104  16.329  0.00  0.00    +0.000 A 
ATOM     17  C   UNL     1       5.530   6.199  17.438  0.00  0.00    +0.000 A 
ENDBRANCH   7  11
BRANCH   1  18
ATOM     18  C   UNL     1       1.494  10.128  18.620  0.00  0.00    +0.000 C 
BRANCH  18  20
ATOM     19  O   UNL     1      -0.825  10.708  18.967  0.00  0.00    +0.000 OA
ATOM     20  C   UNL     1       0.342  10.841  19.332  0.00  0.00    +0.000 C 
ATOM     21  N   UNL     1       0.771  11.695  20.343  0.00  0.00    +0.000 N 
ATOM     22  H   UNL     1       1.736  11.699  20.665  0.00  0.00    +0.000 HD
BRANCH  21  23
ATOM     23  N   UNL     1      -0.146  12.438  21.023  0.00  0.00    +0.000 NA
ATOM     24  C   UNL     1      -0.547  11.963  22.164  0.00  0.00    +0.000 C 
BRANCH  24  25
ATOM     25  C   UNL     1      -1.569  12.667  22.970  0.00  0.00    +0.000 A 
ATOM     26  C   UNL     1      -2.781  12.028  23.265  0.00  0.00    +0.000 A 
ATOM     27  C   UNL     1      -3.730  12.662  24.065  0.00  0.00    +0.000 A 
ATOM     28  C   UNL     1      -3.477  13.937  24.571  0.00  0.00    +0.000 A 
ATOM     29  C   UNL     1      -2.277  14.586  24.269  0.00  0.00    +0.000 A 
ATOM     30  C   UNL     1      -1.325  13.949  23.470  0.00  0.00    +0.000 A 
BRANCH  30  31
ATOM     31  O   UNL     1      -0.145  14.583  23.190  0.00  0.00    +0.000 OA
ATOM     32  H   UNL     1       0.291  14.817  24.027  0.00  0.00    +0.000 HD
ENDBRANCH  30  31
ENDBRANCH  24  25
ENDBRANCH  21  23
ENDBRANCH  18  20
ENDBRANCH   1  18
TORSDOF 6
ENDMDL
MODEL 6
REMARK VINA RESULT:      -8.1      3.727      7.279
REMARK  Name = 
REMARK  6 active torsions:
REMARK  status: ('A' for Active; 'I' for Inactive)
REMARK    1  A    between atoms: C_2  and  C_3
REMARK    2  A    between atoms: C_3  and  N_4
REMARK    3  A    between atoms: C_10  and  C_11
REMARK    4  A    between atoms: N_21  and  N_22
REMARK    5  A    between atoms: C_23  and  C_24
REMARK    6  A    between atoms: C_29  and  O_30
REMARK                            x       y       z     vdW  Elec       q    Type
REMARK                         _______ _______ _______ _____ _____    ______ ____
ROOT
ATOM      1  N   UNL     1       3.643   3.783  19.187  0.00  0.00    +0.000 N 
ATOM      2  C   UNL     1       3.371   2.794  18.264  0.00  0.00    +0.000 A 
ATOM      3  N   UNL     1       3.871   2.721  17.073  0.00  0.00    +0.000 NA
ATOM      4  C   UNL     1       4.785   3.682  16.788  0.00  0.00    +0.000 A 
ATOM      5  S   UNL     1       5.576   3.704  15.281  0.00  0.00    +0.000 S 
ATOM      6  C   UNL     1       6.534   5.042  15.740  0.00  0.00    +0.000 A 
ATOM      7  C   UNL     1       6.257   5.503  17.017  0.00  0.00    +0.000 A 
ATOM      8  C   UNL     1       5.195   4.716  17.609  0.00  0.00    +0.000 A 
ATOM      9  C   UNL     1       4.516   4.826  18.897  0.00  0.00    +0.000 A 
ATOM     10  O   UNL     1       4.662   5.778  19.664  0.00  0.00    +0.000 OA
ENDROOT
BRANCH   7  11
ATOM     11  C   UNL     1       7.021   6.626  17.585  0.00  0.00    +0.000 A 
ATOM     12  C   UNL     1       7.894   6.442  18.671  0.00  0.00    +0.000 A 
ATOM     13  C   UNL     1       8.636   7.512  19.188  0.00  0.00    +0.000 A 
ATOM     14  C   UNL     1       8.530   8.773  18.610  0.00  0.00    +0.000 A 
ATOM     15 CL   UNL     1       9.479  10.076  19.208  0.00  0.00    +0.000 Cl
ATOM     16  C   UNL     1       7.657   8.983  17.549  0.00  0.00    +0.000 A 
ATOM     17  C   UNL     1       6.887   7.921  17.064  0.00  0.00    +0.000 A 
ENDBRANCH   7  11
BRANCH   1  18
ATOM     18  C   UNL     1       2.999   3.763  20.493  0.00  0.00    +0.000 C 
BRANCH  18  20
ATOM     19  O   UNL     1       0.701   4.422  20.148  0.00  0.00    +0.000 OA
ATOM     20  C   UNL     1       1.823   4.742  20.535  0.00  0.00    +0.000 C 
ATOM     21  N   UNL     1       2.190   6.015  20.961  0.00  0.00    +0.000 N 
ATOM     22  H   UNL     1       3.108   6.202  21.356  0.00  0.00    +0.000 HD
BRANCH  21  23
ATOM     23  N   UNL     1       1.253   7.004  20.993  0.00  0.00    +0.000 NA
ATOM     24  C   UNL     1       1.642   8.185  20.619  0.00  0.00    +0.000 C 
BRANCH  24  25
ATOM     25  C   UNL     1       0.718   9.341  20.649  0.00  0.00    +0.000 A 
ATOM     26  C   UNL     1       0.152   9.807  19.456  0.00  0.00    +0.000 A 
ATOM     27  C   UNL     1      -0.759  10.862  19.477  0.00  0.00    +0.000 A 
ATOM     28  C   UNL     1      -1.103  11.462  20.689  0.00  0.00    +0.000 A 
ATOM     29  C   UNL     1      -0.531  11.012  21.881  0.00  0.00    +0.000 A 
ATOM     30  C   UNL     1       0.377   9.951  21.860  0.00  0.00    +0.000 A 
BRANCH  30  31
ATOM     31  O   UNL     1       0.924   9.505  23.032  0.00  0.00    +0.000 OA
ATOM     32  H   UNL     1       1.738   9.013  22.829  0.00  0.00    +0.000 HD
ENDBRANCH  30  31
ENDBRANCH  24  25
ENDBRANCH  21  23
ENDBRANCH  18  20
ENDBRANCH   1  18
TORSDOF 6
ENDMDL
MODEL 7
REMARK VINA RESULT:      -8.0      3.758      7.338
REMARK  Name = 
REMARK  6 active torsions:
REMARK  status: ('A' for Active; 'I' for Inactive)
REMARK    1  A    between atoms: C_2  and  C_3
REMARK    2  A    between atoms: C_3  and  N_4
REMARK    3  A    between atoms: C_10  and  C_11
REMARK    4  A    between atoms: N_21  and  N_22
REMARK    5  A    between atoms: C_23  and  C_24
REMARK    6  A    between atoms: C_29  and  O_30
REMARK                            x       y       z     vdW  Elec       q    Type
REMARK                         _______ _______ _______ _____ _____    ______ ____
ROOT
ATOM      1  N   UNL     1       3.651   3.913  19.228  0.00  0.00    +0.000 N 
ATOM      2  C   UNL     1       3.390   2.899  18.329  0.00  0.00    +0.000 A 
ATOM      3  N   UNL     1       3.911   2.789  17.150  0.00  0.00    +0.000 NA
ATOM      4  C   UNL     1       4.835   3.738  16.854  0.00  0.00    +0.000 A 
ATOM      5  S   UNL     1       5.652   3.712  15.361  0.00  0.00    +0.000 S 
ATOM      6  C   UNL     1       6.608   5.058  15.798  0.00  0.00    +0.000 A 
ATOM      7  C   UNL     1       6.312   5.558  17.057  0.00  0.00    +0.000 A 
ATOM      8  C   UNL     1       5.235   4.793  17.653  0.00  0.00    +0.000 A 
ATOM      9  C   UNL     1       4.535   4.944  18.924  0.00  0.00    +0.000 A 
ATOM     10  O   UNL     1       4.671   5.916  19.666  0.00  0.00    +0.000 OA
ENDROOT
BRANCH   7  11
ATOM     11  C   UNL     1       7.071   6.692  17.606  0.00  0.00    +0.000 A 
ATOM     12  C   UNL     1       7.961   6.526  18.681  0.00  0.00    +0.000 A 
ATOM     13  C   UNL     1       8.699   7.608  19.180  0.00  0.00    +0.000 A 
ATOM     14  C   UNL     1       8.571   8.863  18.594  0.00  0.00    +0.000 A 
ATOM     15 CL   UNL     1       9.514  10.181  19.169  0.00  0.00    +0.000 Cl
ATOM     16  C   UNL     1       7.682   9.056  17.544  0.00  0.00    +0.000 A 
ATOM     17  C   UNL     1       6.917   7.982  17.077  0.00  0.00    +0.000 A 
ENDBRANCH   7  11
BRANCH   1  18
ATOM     18  C   UNL     1       2.983   3.933  20.523  0.00  0.00    +0.000 C 
BRANCH  18  20
ATOM     19  O   UNL     1       0.680   4.583  20.194  0.00  0.00    +0.000 OA
ATOM     20  C   UNL     1       1.817   4.924  20.518  0.00  0.00    +0.000 C 
ATOM     21  N   UNL     1       2.205   6.225  20.823  0.00  0.00    +0.000 N 
ATOM     22  H   UNL     1       3.136   6.436  21.172  0.00  0.00    +0.000 HD
BRANCH  21  23
ATOM     23  N   UNL     1       1.276   7.221  20.799  0.00  0.00    +0.000 NA
ATOM     24  C   UNL     1       1.425   8.175  21.668  0.00  0.00    +0.000 C 
BRANCH  24  25
ATOM     25  C   UNL     1       0.454   9.289  21.757  0.00  0.00    +0.000 A 
ATOM     26  C   UNL     1      -0.188   9.552  22.973  0.00  0.00    +0.000 A 
ATOM     27  C   UNL     1      -1.067  10.630  23.083  0.00  0.00    +0.000 A 
ATOM     28  C   UNL     1      -1.312  11.445  21.977  0.00  0.00    +0.000 A 
ATOM     29  C   UNL     1      -0.686  11.178  20.757  0.00  0.00    +0.000 A 
ATOM     30  C   UNL     1       0.197  10.102  20.649  0.00  0.00    +0.000 A 
BRANCH  30  31
ATOM     31  O   UNL     1       0.819   9.854  19.456  0.00  0.00    +0.000 OA
ATOM     32  H   UNL     1       1.208  10.683  19.128  0.00  0.00    +0.000 HD
ENDBRANCH  30  31
ENDBRANCH  24  25
ENDBRANCH  21  23
ENDBRANCH  18  20
ENDBRANCH   1  18
TORSDOF 6
ENDMDL
MODEL 8
REMARK VINA RESULT:      -8.0      5.237      9.411
REMARK  Name = 
REMARK  6 active torsions:
REMARK  status: ('A' for Active; 'I' for Inactive)
REMARK    1  A    between atoms: C_2  and  C_3
REMARK    2  A    between atoms: C_3  and  N_4
REMARK    3  A    between atoms: C_10  and  C_11
REMARK    4  A    between atoms: N_21  and  N_22
REMARK    5  A    between atoms: C_23  and  C_24
REMARK    6  A    between atoms: C_29  and  O_30
REMARK                            x       y       z     vdW  Elec       q    Type
REMARK                         _______ _______ _______ _____ _____    ______ ____
ROOT
ATOM      1  N   UNL     1       1.542   9.042  19.242  0.00  0.00    +0.000 N 
ATOM      2  C   UNL     1       0.986   8.710  20.461  0.00  0.00    +0.000 A 
ATOM      3  N   UNL     1       1.086   7.559  21.042  0.00  0.00    +0.000 NA
ATOM      4  C   UNL     1       1.871   6.666  20.388  0.00  0.00    +0.000 A 
ATOM      5  S   UNL     1       2.149   5.119  21.040  0.00  0.00    +0.000 S 
ATOM      6  C   UNL     1       3.211   4.711  19.767  0.00  0.00    +0.000 A 
ATOM      7  C   UNL     1       3.353   5.719  18.826  0.00  0.00    +0.000 A 
ATOM      8  C   UNL     1       2.525   6.853  19.185  0.00  0.00    +0.000 A 
ATOM      9  C   UNL     1       2.287   8.124  18.509  0.00  0.00    +0.000 A 
ATOM     10  O   UNL     1       2.672   8.371  17.367  0.00  0.00    +0.000 OA
ENDROOT
BRANCH   7  11
ATOM     11  C   UNL     1       4.265   5.548  17.683  0.00  0.00    +0.000 A 
ATOM     12  C   UNL     1       5.346   6.420  17.472  0.00  0.00    +0.000 A 
ATOM     13  C   UNL     1       6.223   6.234  16.396  0.00  0.00    +0.000 A 
ATOM     14  C   UNL     1       6.041   5.159  15.531  0.00  0.00    +0.000 A 
ATOM     15 CL   UNL     1       7.147   4.897  14.240  0.00  0.00    +0.000 Cl
ATOM     16  C   UNL     1       4.967   4.297  15.707  0.00  0.00    +0.000 A 
ATOM     17  C   UNL     1       4.069   4.512  16.759  0.00  0.00    +0.000 A 
ENDBRANCH   7  11
BRANCH   1  18
ATOM     18  C   UNL     1       1.340  10.373  18.684  0.00  0.00    +0.000 C 
BRANCH  18  20
ATOM     19  O   UNL     1      -0.690   9.761  17.527  0.00  0.00    +0.000 OA
ATOM     20  C   UNL     1      -0.117  10.568  18.256  0.00  0.00    +0.000 C 
ATOM     21  N   UNL     1      -0.658  11.770  18.700  0.00  0.00    +0.000 N 
ATOM     22  H   UNL     1      -0.174  12.357  19.374  0.00  0.00    +0.000 HD
BRANCH  21  23
ATOM     23  N   UNL     1      -1.932  12.100  18.344  0.00  0.00    +0.000 NA
ATOM     24  C   UNL     1      -2.877  11.719  19.149  0.00  0.00    +0.000 C 
BRANCH  24  25
ATOM     25  C   UNL     1      -4.299  11.990  18.843  0.00  0.00    +0.000 A 
ATOM     26  C   UNL     1      -5.133  12.522  19.834  0.00  0.00    +0.000 A 
ATOM     27  C   UNL     1      -6.462  12.828  19.543  0.00  0.00    +0.000 A 
ATOM     28  C   UNL     1      -6.965  12.599  18.263  0.00  0.00    +0.000 A 
ATOM     29  C   UNL     1      -6.144  12.055  17.273  0.00  0.00    +0.000 A 
ATOM     30  C   UNL     1      -4.812  11.753  17.564  0.00  0.00    +0.000 A 
BRANCH  30  31
ATOM     31  O   UNL     1      -4.007  11.234  16.586  0.00  0.00    +0.000 OA
ATOM     32  H   UNL     1      -4.156  10.274  16.537  0.00  0.00    +0.000 HD
ENDBRANCH  30  31
ENDBRANCH  24  25
ENDBRANCH  21  23
ENDBRANCH  18  20
ENDBRANCH   1  18
TORSDOF 6
ENDMDL
MODEL 9
REMARK VINA RESULT:      -7.9      3.646      7.136
REMARK  Name = 
REMARK  6 active torsions:
REMARK  status: ('A' for Active; 'I' for Inactive)
REMARK    1  A    between atoms: C_2  and  C_3
REMARK    2  A    between atoms: C_3  and  N_4
REMARK    3  A    between atoms: C_10  and  C_11
REMARK    4  A    between atoms: N_21  and  N_22
REMARK    5  A    between atoms: C_23  and  C_24
REMARK    6  A    between atoms: C_29  and  O_30
REMARK                            x       y       z     vdW  Elec       q    Type
REMARK                         _______ _______ _______ _____ _____    ______ ____
ROOT
ATOM      1  N   UNL     1       3.619   3.867  19.267  0.00  0.00    +0.000 N 
ATOM      2  C   UNL     1       3.335   2.845  18.384  0.00  0.00    +0.000 A 
ATOM      3  N   UNL     1       3.848   2.709  17.204  0.00  0.00    +0.000 NA
ATOM      4  C   UNL     1       4.788   3.636  16.891  0.00  0.00    +0.000 A 
ATOM      5  S   UNL     1       5.598   3.575  15.395  0.00  0.00    +0.000 S 
ATOM      6  C   UNL     1       6.580   4.909  15.808  0.00  0.00    +0.000 A 
ATOM      7  C   UNL     1       6.298   5.432  17.061  0.00  0.00    +0.000 A 
ATOM      8  C   UNL     1       5.210   4.695  17.672  0.00  0.00    +0.000 A 
ATOM      9  C   UNL     1       4.519   4.877  18.944  0.00  0.00    +0.000 A 
ATOM     10  O   UNL     1       4.677   5.857  19.671  0.00  0.00    +0.000 OA
ENDROOT
BRANCH   7  11
ATOM     11  C   UNL     1       7.080   6.561  17.590  0.00  0.00    +0.000 A 
ATOM     12  C   UNL     1       7.004   7.839  17.012  0.00  0.00    +0.000 A 
ATOM     13  C   UNL     1       7.733   8.913  17.539  0.00  0.00    +0.000 A 
ATOM     14  C   UNL     1       8.528   8.725  18.665  0.00  0.00    +0.000 A 
ATOM     15 CL   UNL     1       9.382  10.053  19.346  0.00  0.00    +0.000 Cl
ATOM     16  C   UNL     1       8.635   7.466  19.240  0.00  0.00    +0.000 A 
ATOM     17  C   UNL     1       7.939   6.387  18.685  0.00  0.00    +0.000 A 
ENDBRANCH   7  11
BRANCH   1  18
ATOM     18  C   UNL     1       2.958   3.918  20.565  0.00  0.00    +0.000 C 
BRANCH  18  20
ATOM     19  O   UNL     1       0.682   4.619  20.160  0.00  0.00    +0.000 OA
ATOM     20  C   UNL     1       1.807   4.927  20.550  0.00  0.00    +0.000 C 
ATOM     21  N   UNL     1       2.200   6.207  20.929  0.00  0.00    +0.000 N 
ATOM     22  H   UNL     1       3.117   6.387  21.329  0.00  0.00    +0.000 HD
BRANCH  21  23
ATOM     23  N   UNL     1       1.287   7.218  20.906  0.00  0.00    +0.000 NA
ATOM     24  C   UNL     1       1.554   8.224  20.129  0.00  0.00    +0.000 C 
BRANCH  24  25
ATOM     25  C   UNL     1       0.652   9.395  20.054  0.00  0.00    +0.000 A 
ATOM     26  C   UNL     1       0.006   9.848  21.211  0.00  0.00    +0.000 A 
ATOM     27  C   UNL     1      -0.807  10.980  21.162  0.00  0.00    +0.000 A 
ATOM     28  C   UNL     1      -0.982  11.661  19.958  0.00  0.00    +0.000 A 
ATOM     29  C   UNL     1      -0.353  11.206  18.797  0.00  0.00    +0.000 A 
ATOM     30  C   UNL     1       0.465  10.075  18.847  0.00  0.00    +0.000 A 
BRANCH  30  31
ATOM     31  O   UNL     1       1.090   9.642  17.710  0.00  0.00    +0.000 OA
ATOM     32  H   UNL     1       1.018   8.673  17.663  0.00  0.00    +0.000 HD
ENDBRANCH  30  31
ENDBRANCH  24  25
ENDBRANCH  21  23
ENDBRANCH  18  20
ENDBRANCH   1  18
TORSDOF 6
ENDMDL
