MODEL 1
REMARK VINA RESULT:      -8.0      0.000      0.000
REMARK  Name = 
REMARK  5 active torsions:
REMARK  status: ('A' for Active; 'I' for Inactive)
REMARK    1  A    between atoms: C_2  and  C_4
REMARK    2  A    between atoms: C_8  and  S_9
REMARK    3  A    between atoms: S_9  and  N_12
REMARK    4  A    between atoms: N_12  and  C_13
REMARK    5  A    between atoms: C_13  and  C_14
REMARK                            x       y       z     vdW  Elec       q    Type
REMARK                         _______ _______ _______ _____ _____    ______ ____
ROOT
ATOM      1  C   UNL     1       6.231   3.596  12.463  0.00  0.00    +0.000 A 
ATOM      2  C   UNL     1       7.203   4.356  11.777  0.00  0.00    +0.000 A 
ATOM      3  C   UNL     1       7.967   5.316  12.448  0.00  0.00    +0.000 A 
ATOM      4  C   UNL     1       7.780   5.532  13.813  0.00  0.00    +0.000 A 
ATOM      5  C   UNL     1       6.827   4.788  14.514  0.00  0.00    +0.000 A 
ATOM      6  C   UNL     1       6.059   3.829  13.843  0.00  0.00    +0.000 A 
ENDROOT
BRANCH   1   8
ATOM      7  N   UNL     1       4.250   2.880  11.305  0.00  0.00    +0.000 NA
ATOM      8  C   UNL     1       5.425   2.570  11.724  0.00  0.00    +0.000 C 
ATOM      9  N   UNL     1       5.922   1.256  11.471  0.00  0.00    +0.000 N 
ATOM     10  H   UNL     1       3.662   2.207  10.790  0.00  0.00    +0.000 HD
ATOM     11  H   UNL     1       5.344   0.576  10.957  0.00  0.00    +0.000 HD
ATOM     12  H   UNL     1       6.837   0.932  11.801  0.00  0.00    +0.000 HD
ENDBRANCH   1   8
BRANCH   5  13
ATOM     13  S   UNL     1       6.590   5.038  16.276  0.00  0.00    +0.000 S 
ATOM     14  O   UNL     1       7.770   4.511  17.110  0.00  0.00    +0.000 OA
ATOM     15  O   UNL     1       6.595   6.527  16.655  0.00  0.00    +0.000 OA
BRANCH  13  16
ATOM     16  N   UNL     1       5.112   4.398  17.025  0.00  0.00    +0.000 NA
ATOM     17  H   UNL     1       5.396   3.887  17.893  0.00  0.00    +0.000 HD
BRANCH  16  18
ATOM     18  C   UNL     1       4.196   5.483  17.389  0.00  0.00    +0.000 C 
BRANCH  18  19
ATOM     19  C   UNL     1       3.123   4.966  18.308  0.00  0.00    +0.000 A 
ATOM     20  C   UNL     1       3.014   5.446  19.625  0.00  0.00    +0.000 A 
ATOM     21  C   UNL     1       2.011   4.960  20.470  0.00  0.00    +0.000 A 
ATOM     22  C   UNL     1       1.112   3.995  20.009  0.00  0.00    +0.000 A 
ATOM     23  C   UNL     1       1.212   3.514  18.700  0.00  0.00    +0.000 A 
ATOM     24  C   UNL     1       2.213   3.997  17.852  0.00  0.00    +0.000 A 
ENDBRANCH  18  19
ENDBRANCH  16  18
ENDBRANCH  13  16
ENDBRANCH   5  13
TORSDOF 5
ENDMDL
MODEL 2
REMARK VINA RESULT:      -8.0      0.119      1.314
REMARK  Name = 
REMARK  5 active torsions:
REMARK  status: ('A' for Active; 'I' for Inactive)
REMARK    1  A    between atoms: C_2  and  C_4
REMARK    2  A    between atoms: C_8  and  S_9
REMARK    3  A    between atoms: S_9  and  N_12
REMARK    4  A    between atoms: N_12  and  C_13
REMARK    5  A    between atoms: C_13  and  C_14
REMARK                            x       y       z     vdW  Elec       q    Type
REMARK                         _______ _______ _______ _____ _____    ______ ____
ROOT
ATOM      1  C   UNL     1       6.196   3.619  12.461  0.00  0.00    +0.000 A 
ATOM      2  C   UNL     1       7.188   4.361  11.782  0.00  0.00    +0.000 A 
ATOM      3  C   UNL     1       7.967   5.302  12.460  0.00  0.00    +0.000 A 
ATOM      4  C   UNL     1       7.778   5.517  13.825  0.00  0.00    +0.000 A 
ATOM      5  C   UNL     1       6.806   4.790  14.519  0.00  0.00    +0.000 A 
ATOM      6  C   UNL     1       6.022   3.850  13.840  0.00  0.00    +0.000 A 
ENDROOT
BRANCH   1   8
ATOM      7  N   UNL     1       5.853   1.435  11.516  0.00  0.00    +0.000 NA
ATOM      8  C   UNL     1       5.373   2.612  11.713  0.00  0.00    +0.000 C 
ATOM      9  N   UNL     1       4.074   2.918  11.211  0.00  0.00    +0.000 N 
ATOM     10  H   UNL     1       5.322   0.710  11.010  0.00  0.00    +0.000 HD
ATOM     11  H   UNL     1       3.534   2.201  10.705  0.00  0.00    +0.000 HD
ATOM     12  H   UNL     1       3.642   3.844  11.306  0.00  0.00    +0.000 HD
ENDBRANCH   1   8
BRANCH   5  13
ATOM     13  S   UNL     1       6.565   5.039  16.281  0.00  0.00    +0.000 S 
ATOM     14  O   UNL     1       7.719   4.465  17.120  0.00  0.00    +0.000 OA
ATOM     15  O   UNL     1       6.620   6.524  16.669  0.00  0.00    +0.000 OA
BRANCH  13  16
ATOM     16  N   UNL     1       5.059   4.448  17.015  0.00  0.00    +0.000 NA
ATOM     17  H   UNL     1       5.323   3.756  17.756  0.00  0.00    +0.000 HD
BRANCH  16  18
ATOM     18  C   UNL     1       4.310   5.546  17.632  0.00  0.00    +0.000 C 
BRANCH  18  19
ATOM     19  C   UNL     1       3.173   4.998  18.451  0.00  0.00    +0.000 A 
ATOM     20  C   UNL     1       2.349   3.978  17.943  0.00  0.00    +0.000 A 
ATOM     21  C   UNL     1       1.296   3.474  18.713  0.00  0.00    +0.000 A 
ATOM     22  C   UNL     1       1.058   3.983  19.993  0.00  0.00    +0.000 A 
ATOM     23  C   UNL     1       1.874   4.995  20.506  0.00  0.00    +0.000 A 
ATOM     24  C   UNL     1       2.928   5.501  19.740  0.00  0.00    +0.000 A 
ENDBRANCH  18  19
ENDBRANCH  16  18
ENDBRANCH  13  16
ENDBRANCH   5  13
TORSDOF 5
ENDMDL
MODEL 3
REMARK VINA RESULT:      -8.0      0.802      1.329
REMARK  Name = 
REMARK  5 active torsions:
REMARK  status: ('A' for Active; 'I' for Inactive)
REMARK    1  A    between atoms: C_2  and  C_4
REMARK    2  A    between atoms: C_8  and  S_9
REMARK    3  A    between atoms: S_9  and  N_12
REMARK    4  A    between atoms: N_12  and  C_13
REMARK    5  A    between atoms: C_13  and  C_14
REMARK                            x       y       z     vdW  Elec       q    Type
REMARK                         _______ _______ _______ _____ _____    ______ ____
ROOT
ATOM      1  C   UNL     1       6.231   3.589  12.554  0.00  0.00    +0.000 A 
ATOM      2  C   UNL     1       7.168   4.433  11.917  0.00  0.00    +0.000 A 
ATOM      3  C   UNL     1       7.927   5.345  12.656  0.00  0.00    +0.000 A 
ATOM      4  C   UNL     1       7.772   5.429  14.039  0.00  0.00    +0.000 A 
ATOM      5  C   UNL     1       6.856   4.599  14.691  0.00  0.00    +0.000 A 
ATOM      6  C   UNL     1       6.091   3.688  13.953  0.00  0.00    +0.000 A 
ENDROOT
BRANCH   1   8
ATOM      7  N   UNL     1       4.269   2.967  11.312  0.00  0.00    +0.000 NA
ATOM      8  C   UNL     1       5.429   2.616  11.742  0.00  0.00    +0.000 C 
ATOM      9  N   UNL     1       5.911   1.310  11.432  0.00  0.00    +0.000 N 
ATOM     10  H   UNL     1       3.684   2.332  10.748  0.00  0.00    +0.000 HD
ATOM     11  H   UNL     1       5.336   0.667  10.868  0.00  0.00    +0.000 HD
ATOM     12  H   UNL     1       6.814   0.953  11.766  0.00  0.00    +0.000 HD
ENDBRANCH   1   8
BRANCH   5  13
ATOM     13  S   UNL     1       6.660   4.679  16.475  0.00  0.00    +0.000 S 
ATOM     14  O   UNL     1       7.964   4.358  17.224  0.00  0.00    +0.000 OA
ATOM     15  O   UNL     1       6.377   6.109  16.962  0.00  0.00    +0.000 OA
BRANCH  13  16
ATOM     16  N   UNL     1       5.386   3.697  17.226  0.00  0.00    +0.000 NA
ATOM     17  H   UNL     1       5.776   2.736  17.371  0.00  0.00    +0.000 HD
BRANCH  16  18
ATOM     18  C   UNL     1       4.991   4.252  18.523  0.00  0.00    +0.000 C 
BRANCH  18  19
ATOM     19  C   UNL     1       3.590   3.822  18.863  0.00  0.00    +0.000 A 
ATOM     20  C   UNL     1       2.999   2.724  18.214  0.00  0.00    +0.000 A 
ATOM     21  C   UNL     1       1.697   2.331  18.540  0.00  0.00    +0.000 A 
ATOM     22  C   UNL     1       0.977   3.028  19.513  0.00  0.00    +0.000 A 
ATOM     23  C   UNL     1       1.558   4.120  20.165  0.00  0.00    +0.000 A 
ATOM     24  C   UNL     1       2.860   4.516  19.843  0.00  0.00    +0.000 A 
ENDBRANCH  18  19
ENDBRANCH  16  18
ENDBRANCH  13  16
ENDBRANCH   5  13
TORSDOF 5
ENDMDL
MODEL 4
REMARK VINA RESULT:      -7.8      2.772      3.944
REMARK  Name = 
REMARK  5 active torsions:
REMARK  status: ('A' for Active; 'I' for Inactive)
REMARK    1  A    between atoms: C_2  and  C_4
REMARK    2  A    between atoms: C_8  and  S_9
REMARK    3  A    between atoms: S_9  and  N_12
REMARK    4  A    between atoms: N_12  and  C_13
REMARK    5  A    between atoms: C_13  and  C_14
REMARK                            x       y       z     vdW  Elec       q    Type
REMARK                         _______ _______ _______ _____ _____    ______ ____
ROOT
ATOM      1  C   UNL     1       6.461   4.971  16.086  0.00  0.00    +0.000 A 
ATOM      2  C   UNL     1       7.384   4.732  17.129  0.00  0.00    +0.000 A 
ATOM      3  C   UNL     1       7.046   4.999  18.458  0.00  0.00    +0.000 A 
ATOM      4  C   UNL     1       5.784   5.502  18.774  0.00  0.00    +0.000 A 
ATOM      5  C   UNL     1       4.853   5.740  17.761  0.00  0.00    +0.000 A 
ATOM      6  C   UNL     1       5.191   5.477  16.427  0.00  0.00    +0.000 A 
ENDROOT
BRANCH   1   8
ATOM      7  N   UNL     1       7.705   5.427  14.080  0.00  0.00    +0.000 NA
ATOM      8  C   UNL     1       6.843   4.674  14.667  0.00  0.00    +0.000 C 
ATOM      9  N   UNL     1       6.280   3.581  13.943  0.00  0.00    +0.000 N 
ATOM     10  H   UNL     1       8.000   5.260  13.107  0.00  0.00    +0.000 HD
ATOM     11  H   UNL     1       6.568   3.403  12.970  0.00  0.00    +0.000 HD
ATOM     12  H   UNL     1       5.567   2.958  14.338  0.00  0.00    +0.000 HD
ENDBRANCH   1   8
BRANCH   5  13
ATOM     13  S   UNL     1       3.216   6.367  18.153  0.00  0.00    +0.000 S 
ATOM     14  O   UNL     1       3.042   6.658  19.653  0.00  0.00    +0.000 OA
ATOM     15  O   UNL     1       2.968   7.756  17.545  0.00  0.00    +0.000 OA
BRANCH  13  16
ATOM     16  N   UNL     1       1.807   5.409  17.653  0.00  0.00    +0.000 NA
ATOM     17  H   UNL     1       1.554   5.707  16.682  0.00  0.00    +0.000 HD
BRANCH  16  18
ATOM     18  C   UNL     1       2.121   3.978  17.645  0.00  0.00    +0.000 C 
BRANCH  18  19
ATOM     19  C   UNL     1       2.210   3.462  19.056  0.00  0.00    +0.000 A 
ATOM     20  C   UNL     1       1.117   3.576  19.932  0.00  0.00    +0.000 A 
ATOM     21  C   UNL     1       1.209   3.091  21.240  0.00  0.00    +0.000 A 
ATOM     22  C   UNL     1       2.390   2.489  21.683  0.00  0.00    +0.000 A 
ATOM     23  C   UNL     1       3.481   2.369  20.817  0.00  0.00    +0.000 A 
ATOM     24  C   UNL     1       3.393   2.853  19.508  0.00  0.00    +0.000 A 
ENDBRANCH  18  19
ENDBRANCH  16  18
ENDBRANCH  13  16
ENDBRANCH   5  13
TORSDOF 5
ENDMDL
MODEL 5
REMARK VINA RESULT:      -7.8      1.053      1.555
REMARK  Name = 
REMARK  5 active torsions:
REMARK  status: ('A' for Active; 'I' for Inactive)
REMARK    1  A    between atoms: C_2  and  C_4
REMARK    2  A    between atoms: C_8  and  S_9
REMARK    3  A    between atoms: S_9  and  N_12
REMARK    4  A    between atoms: N_12  and  C_13
REMARK    5  A    between atoms: C_13  and  C_14
REMARK                            x       y       z     vdW  Elec       q    Type
REMARK                         _______ _______ _______ _____ _____    ______ ____
ROOT
ATOM      1  C   UNL     1       6.246   3.657  12.423  0.00  0.00    +0.000 A 
ATOM      2  C   UNL     1       7.227   4.361  11.691  0.00  0.00    +0.000 A 
ATOM      3  C   UNL     1       8.032   5.319  12.313  0.00  0.00    +0.000 A 
ATOM      4  C   UNL     1       7.880   5.589  13.672  0.00  0.00    +0.000 A 
ATOM      5  C   UNL     1       6.920   4.900  14.418  0.00  0.00    +0.000 A 
ATOM      6  C   UNL     1       6.109   3.943  13.797  0.00  0.00    +0.000 A 
ENDROOT
BRANCH   1   8
ATOM      7  N   UNL     1       5.862   1.444  11.564  0.00  0.00    +0.000 NA
ATOM      8  C   UNL     1       5.395   2.630  11.737  0.00  0.00    +0.000 C 
ATOM      9  N   UNL     1       4.081   2.927  11.266  0.00  0.00    +0.000 N 
ATOM     10  H   UNL     1       5.312   0.706  11.099  0.00  0.00    +0.000 HD
ATOM     11  H   UNL     1       3.522   2.197  10.802  0.00  0.00    +0.000 HD
ATOM     12  H   UNL     1       3.657   3.858  11.344  0.00  0.00    +0.000 HD
ENDBRANCH   1   8
BRANCH   5  13
ATOM     13  S   UNL     1       6.725   5.220  16.175  0.00  0.00    +0.000 S 
ATOM     14  O   UNL     1       7.740   4.442  17.030  0.00  0.00    +0.000 OA
ATOM     15  O   UNL     1       7.073   6.671  16.541  0.00  0.00    +0.000 OA
BRANCH  13  16
ATOM     16  N   UNL     1       5.130   4.951  16.907  0.00  0.00    +0.000 NA
ATOM     17  H   UNL     1       4.416   5.057  16.149  0.00  0.00    +0.000 HD
BRANCH  16  18
ATOM     18  C   UNL     1       5.032   3.601  17.470  0.00  0.00    +0.000 C 
BRANCH  18  19
ATOM     19  C   UNL     1       3.614   3.318  17.887  0.00  0.00    +0.000 A 
ATOM     20  C   UNL     1       3.271   2.086  18.469  0.00  0.00    +0.000 A 
ATOM     21  C   UNL     1       1.951   1.834  18.856  0.00  0.00    +0.000 A 
ATOM     22  C   UNL     1       0.966   2.808  18.667  0.00  0.00    +0.000 A 
ATOM     23  C   UNL     1       1.301   4.037  18.091  0.00  0.00    +0.000 A 
ATOM     24  C   UNL     1       2.619   4.293  17.703  0.00  0.00    +0.000 A 
ENDBRANCH  18  19
ENDBRANCH  16  18
ENDBRANCH  13  16
ENDBRANCH   5  13
TORSDOF 5
ENDMDL
MODEL 6
REMARK VINA RESULT:      -7.8      1.093      1.542
REMARK  Name = 
REMARK  5 active torsions:
REMARK  status: ('A' for Active; 'I' for Inactive)
REMARK    1  A    between atoms: C_2  and  C_4
REMARK    2  A    between atoms: C_8  and  S_9
REMARK    3  A    between atoms: S_9  and  N_12
REMARK    4  A    between atoms: N_12  and  C_13
REMARK    5  A    between atoms: C_13  and  C_14
REMARK                            x       y       z     vdW  Elec       q    Type
REMARK                         _______ _______ _______ _____ _____    ______ ____
ROOT
ATOM      1  C   UNL     1       6.037   3.531  12.639  0.00  0.00    +0.000 A 
ATOM      2  C   UNL     1       7.125   4.301  12.172  0.00  0.00    +0.000 A 
ATOM      3  C   UNL     1       7.822   5.152  13.035  0.00  0.00    +0.000 A 
ATOM      4  C   UNL     1       7.453   5.247  14.376  0.00  0.00    +0.000 A 
ATOM      5  C   UNL     1       6.384   4.490  14.862  0.00  0.00    +0.000 A 
ATOM      6  C   UNL     1       5.682   3.640  13.999  0.00  0.00    +0.000 A 
ENDROOT
BRANCH   1   8
ATOM      7  N   UNL     1       5.833   1.493  11.381  0.00  0.00    +0.000 NA
ATOM      8  C   UNL     1       5.305   2.623  11.697  0.00  0.00    +0.000 C 
ATOM      9  N   UNL     1       4.041   2.972  11.136  0.00  0.00    +0.000 N 
ATOM     10  H   UNL     1       5.365   0.836  10.739  0.00  0.00    +0.000 HD
ATOM     11  H   UNL     1       3.564   2.323  10.495  0.00  0.00    +0.000 HD
ATOM     12  H   UNL     1       3.576   3.868  11.321  0.00  0.00    +0.000 HD
ENDBRANCH   1   8
BRANCH   5  13
ATOM     13  S   UNL     1       5.910   4.584  16.592  0.00  0.00    +0.000 S 
ATOM     14  O   UNL     1       7.125   4.666  17.531  0.00  0.00    +0.000 OA
ATOM     15  O   UNL     1       5.184   5.897  16.922  0.00  0.00    +0.000 OA
BRANCH  13  16
ATOM     16  N   UNL     1       4.848   3.318  17.243  0.00  0.00    +0.000 NA
ATOM     17  H   UNL     1       5.124   3.161  18.241  0.00  0.00    +0.000 HD
BRANCH  16  18
ATOM     18  C   UNL     1       3.444   3.734  17.195  0.00  0.00    +0.000 C 
BRANCH  18  19
ATOM     19  C   UNL     1       2.805   3.549  18.544  0.00  0.00    +0.000 A 
ATOM     20  C   UNL     1       1.493   3.992  18.783  0.00  0.00    +0.000 A 
ATOM     21  C   UNL     1       0.906   3.813  20.040  0.00  0.00    +0.000 A 
ATOM     22  C   UNL     1       1.623   3.191  21.066  0.00  0.00    +0.000 A 
ATOM     23  C   UNL     1       2.928   2.745  20.835  0.00  0.00    +0.000 A 
ATOM     24  C   UNL     1       3.518   2.922  19.580  0.00  0.00    +0.000 A 
ENDBRANCH  18  19
ENDBRANCH  16  18
ENDBRANCH  13  16
ENDBRANCH   5  13
TORSDOF 5
ENDMDL
MODEL 7
REMARK VINA RESULT:      -7.8      4.239      5.611
REMARK  Name = 
REMARK  5 active torsions:
REMARK  status: ('A' for Active; 'I' for Inactive)
REMARK    1  A    between atoms: C_2  and  C_4
REMARK    2  A    between atoms: C_8  and  S_9
REMARK    3  A    between atoms: S_9  and  N_12
REMARK    4  A    between atoms: N_12  and  C_13
REMARK    5  A    between atoms: C_13  and  C_14
REMARK                            x       y       z     vdW  Elec       q    Type
REMARK                         _______ _______ _______ _____ _____    ______ ____
ROOT
ATOM      1  C   UNL     1       6.752   5.619  18.128  0.00  0.00    +0.000 A 
ATOM      2  C   UNL     1       6.943   5.844  16.747  0.00  0.00    +0.000 A 
ATOM      3  C   UNL     1       5.994   5.415  15.814  0.00  0.00    +0.000 A 
ATOM      4  C   UNL     1       4.838   4.761  16.240  0.00  0.00    +0.000 A 
ATOM      5  C   UNL     1       4.625   4.533  17.602  0.00  0.00    +0.000 A 
ATOM      6  C   UNL     1       5.576   4.958  18.537  0.00  0.00    +0.000 A 
ENDROOT
BRANCH   1   8
ATOM      7  N   UNL     1       8.020   5.380  20.157  0.00  0.00    +0.000 NA
ATOM      8  C   UNL     1       7.782   6.091  19.112  0.00  0.00    +0.000 C 
ATOM      9  N   UNL     1       8.506   7.306  18.926  0.00  0.00    +0.000 N 
ATOM     10  H   UNL     1       8.720   5.665  20.859  0.00  0.00    +0.000 HD
ATOM     11  H   UNL     1       9.209   7.599  19.619  0.00  0.00    +0.000 HD
ATOM     12  H   UNL     1       8.347   7.935  18.131  0.00  0.00    +0.000 HD
ENDBRANCH   1   8
BRANCH   5  13
ATOM     13  S   UNL     1       3.131   3.712  18.167  0.00  0.00    +0.000 S 
ATOM     14  O   UNL     1       2.332   3.085  17.013  0.00  0.00    +0.000 OA
ATOM     15  O   UNL     1       3.440   2.476  19.026  0.00  0.00    +0.000 OA
BRANCH  13  16
ATOM     16  N   UNL     1       1.975   4.646  19.140  0.00  0.00    +0.000 NA
ATOM     17  H   UNL     1       1.496   3.975  19.785  0.00  0.00    +0.000 HD
BRANCH  16  18
ATOM     18  C   UNL     1       2.663   5.666  19.936  0.00  0.00    +0.000 C 
BRANCH  18  19
ATOM     19  C   UNL     1       2.224   7.039  19.504  0.00  0.00    +0.000 A 
ATOM     20  C   UNL     1       2.463   7.490  18.194  0.00  0.00    +0.000 A 
ATOM     21  C   UNL     1       2.049   8.767  17.803  0.00  0.00    +0.000 A 
ATOM     22  C   UNL     1       1.395   9.602  18.713  0.00  0.00    +0.000 A 
ATOM     23  C   UNL     1       1.152   9.160  20.017  0.00  0.00    +0.000 A 
ATOM     24  C   UNL     1       1.564   7.884  20.412  0.00  0.00    +0.000 A 
ENDBRANCH  18  19
ENDBRANCH  16  18
ENDBRANCH  13  16
ENDBRANCH   5  13
TORSDOF 5
ENDMDL
MODEL 8
REMARK VINA RESULT:      -7.7      2.933      4.283
REMARK  Name = 
REMARK  5 active torsions:
REMARK  status: ('A' for Active; 'I' for Inactive)
REMARK    1  A    between atoms: C_2  and  C_4
REMARK    2  A    between atoms: C_8  and  S_9
REMARK    3  A    between atoms: S_9  and  N_12
REMARK    4  A    between atoms: N_12  and  C_13
REMARK    5  A    between atoms: C_13  and  C_14
REMARK                            x       y       z     vdW  Elec       q    Type
REMARK                         _______ _______ _______ _____ _____    ______ ____
ROOT
ATOM      1  C   UNL     1       6.467   4.798  16.364  0.00  0.00    +0.000 A 
ATOM      2  C   UNL     1       7.050   5.850  17.105  0.00  0.00    +0.000 A 
ATOM      3  C   UNL     1       6.772   6.007  18.466  0.00  0.00    +0.000 A 
ATOM      4  C   UNL     1       5.915   5.117  19.114  0.00  0.00    +0.000 A 
ATOM      5  C   UNL     1       5.332   4.065  18.403  0.00  0.00    +0.000 A 
ATOM      6  C   UNL     1       5.605   3.909  17.039  0.00  0.00    +0.000 A 
ENDROOT
BRANCH   1   8
ATOM      7  N   UNL     1       7.573   5.492  14.346  0.00  0.00    +0.000 NA
ATOM      8  C   UNL     1       6.781   4.647  14.906  0.00  0.00    +0.000 C 
ATOM      9  N   UNL     1       6.229   3.594  14.117  0.00  0.00    +0.000 N 
ATOM     10  H   UNL     1       7.819   5.425  13.347  0.00  0.00    +0.000 HD
ATOM     11  H   UNL     1       6.469   3.517  13.118  0.00  0.00    +0.000 HD
ATOM     12  H   UNL     1       5.569   2.903  14.490  0.00  0.00    +0.000 HD
ENDBRANCH   1   8
BRANCH   5  13
ATOM     13  S   UNL     1       4.244   2.899  19.227  0.00  0.00    +0.000 S 
ATOM     14  O   UNL     1       3.514   1.975  18.238  0.00  0.00    +0.000 OA
ATOM     15  O   UNL     1       5.022   1.879  20.073  0.00  0.00    +0.000 OA
BRANCH  13  16
ATOM     16  N   UNL     1       3.009   3.537  20.334  0.00  0.00    +0.000 NA
ATOM     17  H   UNL     1       3.443   4.328  20.864  0.00  0.00    +0.000 HD
BRANCH  16  18
ATOM     18  C   UNL     1       1.849   4.039  19.592  0.00  0.00    +0.000 C 
BRANCH  18  19
ATOM     19  C   UNL     1       1.979   5.522  19.373  0.00  0.00    +0.000 A 
ATOM     20  C   UNL     1       1.713   6.426  20.415  0.00  0.00    +0.000 A 
ATOM     21  C   UNL     1       1.839   7.803  20.203  0.00  0.00    +0.000 A 
ATOM     22  C   UNL     1       2.232   8.285  18.951  0.00  0.00    +0.000 A 
ATOM     23  C   UNL     1       2.501   7.392  17.910  0.00  0.00    +0.000 A 
ATOM     24  C   UNL     1       2.377   6.015  18.119  0.00  0.00    +0.000 A 
ENDBRANCH  18  19
ENDBRANCH  16  18
ENDBRANCH  13  16
ENDBRANCH   5  13
TORSDOF 5
ENDMDL
MODEL 9
REMARK VINA RESULT:      -7.7      3.318      4.528
REMARK  Name = 
REMARK  5 active torsions:
REMARK  status: ('A' for Active; 'I' for Inactive)
REMARK    1  A    between atoms: C_2  and  C_4
REMARK    2  A    between atoms: C_8  and  S_9
REMARK    3  A    between atoms: S_9  and  N_12
REMARK    4  A    between atoms: N_12  and  C_13
REMARK    5  A    between atoms: C_13  and  C_14
REMARK                            x       y       z     vdW  Elec       q    Type
REMARK                         _______ _______ _______ _____ _____    ______ ____
ROOT
ATOM      1  C   UNL     1       6.298   4.526  16.152  0.00  0.00    +0.000 A 
ATOM      2  C   UNL     1       7.166   5.024  17.148  0.00  0.00    +0.000 A 
ATOM      3  C   UNL     1       6.772   5.058  18.489  0.00  0.00    +0.000 A 
ATOM      4  C   UNL     1       5.511   4.593  18.861  0.00  0.00    +0.000 A 
ATOM      5  C   UNL     1       4.638   4.089  17.894  0.00  0.00    +0.000 A 
ATOM      6  C   UNL     1       5.029   4.058  16.550  0.00  0.00    +0.000 A 
ENDROOT
BRANCH   1   8
ATOM      7  N   UNL     1       6.279   3.584  13.939  0.00  0.00    +0.000 NA
ATOM      8  C   UNL     1       6.743   4.495  14.720  0.00  0.00    +0.000 C 
ATOM      9  N   UNL     1       7.668   5.445  14.194  0.00  0.00    +0.000 N 
ATOM     10  H   UNL     1       6.555   3.526  12.948  0.00  0.00    +0.000 HD
ATOM     11  H   UNL     1       7.950   5.398  13.204  0.00  0.00    +0.000 HD
ATOM     12  H   UNL     1       8.100   6.180  14.765  0.00  0.00    +0.000 HD
ENDBRANCH   1   8
BRANCH   5  13
ATOM     13  S   UNL     1       3.020   3.465  18.360  0.00  0.00    +0.000 S 
ATOM     14  O   UNL     1       2.207   2.976  17.149  0.00  0.00    +0.000 OA
ATOM     15  O   UNL     1       3.114   2.180  19.197  0.00  0.00    +0.000 OA
BRANCH  13  16
ATOM     16  N   UNL     1       1.947   4.525  19.298  0.00  0.00    +0.000 NA
ATOM     17  H   UNL     1       1.457   3.928  20.004  0.00  0.00    +0.000 HD
BRANCH  16  18
ATOM     18  C   UNL     1       2.714   5.560  19.997  0.00  0.00    +0.000 C 
BRANCH  18  19
ATOM     19  C   UNL     1       2.311   6.923  19.502  0.00  0.00    +0.000 A 
ATOM     20  C   UNL     1       1.619   7.814  20.339  0.00  0.00    +0.000 A 
ATOM     21  C   UNL     1       1.252   9.080  19.871  0.00  0.00    +0.000 A 
ATOM     22  C   UNL     1       1.573   9.464  18.566  0.00  0.00    +0.000 A 
ATOM     23  C   UNL     1       2.264   8.584  17.728  0.00  0.00    +0.000 A 
ATOM     24  C   UNL     1       2.633   7.319  18.193  0.00  0.00    +0.000 A 
ENDBRANCH  18  19
ENDBRANCH  16  18
ENDBRANCH  13  16
ENDBRANCH   5  13
TORSDOF 5
ENDMDL
