MODEL 1
REMARK VINA RESULT:      -8.7      0.000      0.000
REMARK  Name = 
REMARK  12 active torsions:
REMARK  status: ('A' for Active; 'I' for Inactive)
REMARK    1  A    between atoms: C_1  and  O_2
REMARK    2  A    between atoms: O_2  and  C_3
REMARK    3  A    between atoms: C_5  and  C_6
REMARK    4  A    between atoms: C_7  and  C_8
REMARK    5  A    between atoms: N_14  and  C_15
REMARK    6  A    between atoms: N_18  and  C_19
REMARK    7  A    between atoms: N_20  and  C_21
REMARK    8  A    between atoms: C_23  and  O_24
REMARK    9  A    between atoms: O_24  and  C_25
REMARK   10  A    between atoms: C_26  and  O_27
REMARK   11  A    between atoms: O_27  and  C_28
REMARK   12  A    between atoms: C_28  and  C_29
REMARK                            x       y       z     vdW  Elec       q    Type
REMARK                         _______ _______ _______ _____ _____    ______ ____
ROOT
ATOM      1  C   UNL     1       4.920   6.444  17.004  0.00  0.00    +0.000 A 
ATOM      2  C   UNL     1       3.874   7.254  17.455  0.00  0.00    +0.000 A 
ATOM      3  C   UNL     1       2.798   6.686  18.120  0.00  0.00    +0.000 A 
ATOM      4  C   UNL     1       2.730   5.292  18.212  0.00  0.00    +0.000 A 
ATOM      5  C   UNL     1       3.712   4.430  17.687  0.00  0.00    +0.000 A 
ATOM      6  C   UNL     1       4.856   5.021  17.111  0.00  0.00    +0.000 A 
ENDROOT
BRANCH   1   8
ATOM      7  C   UNL     1       7.009   7.477  17.464  0.00  0.00    +0.000 C 
ATOM      8  O   UNL     1       6.072   7.005  16.491  0.00  0.00    +0.000 OA
ENDBRANCH   1   8
BRANCH   3   9
ATOM      9  C   UNL     1       1.869   7.557  18.847  0.00  0.00    +0.000 C 
ATOM     10  C   UNL     1       1.896   8.894  18.788  0.00  0.00    +0.000 C 
BRANCH  10  11
ATOM     11  C   UNL     1       0.859   9.648  19.397  0.00  0.00    +0.000 A 
ATOM     12  N   UNL     1      -0.097  10.369  18.822  0.00  0.00    +0.000 NA
ATOM     13  C   UNL     1      -0.782  10.933  19.850  0.00  0.00    +0.000 A 
ATOM     14  C   UNL     1      -0.285  10.568  21.060  0.00  0.00    +0.000 A 
ATOM     15  C   UNL     1      -0.841  11.024  22.289  0.00  0.00    +0.000 A 
ATOM     16  O   UNL     1      -0.431  10.668  23.386  0.00  0.00    +0.000 OA
ATOM     17  N   UNL     1      -1.917  11.905  22.113  0.00  0.00    +0.000 N 
ATOM     18  C   UNL     1      -2.539  12.462  23.290  0.00  0.00    +0.000 C 
ATOM     19  C   UNL     1      -2.435  12.311  20.877  0.00  0.00    +0.000 A 
ATOM     20  O   UNL     1      -3.379  13.101  20.819  0.00  0.00    +0.000 OA
ATOM     21  N   UNL     1      -1.847  11.790  19.726  0.00  0.00    +0.000 N 
ATOM     22  C   UNL     1      -2.324  12.169  18.405  0.00  0.00    +0.000 C 
ATOM     23  N   UNL     1       0.779   9.749  20.779  0.00  0.00    +0.000 N 
ATOM     24  C   UNL     1       1.678   9.141  21.731  0.00  0.00    +0.000 C 
ENDBRANCH  10  11
ENDBRANCH   3   9
BRANCH   5  25
ATOM     25  O   UNL     1       3.331   3.151  17.986  0.00  0.00    +0.000 OA
ATOM     26  C   UNL     1       3.119   2.557  19.252  0.00  0.00    +0.000 C 
ENDBRANCH   5  25
BRANCH   6  27
ATOM     27  O   UNL     1       6.024   4.416  16.694  0.00  0.00    +0.000 OA
BRANCH  27  28
ATOM     28  C   UNL     1       5.876   3.524  15.618  0.00  0.00    +0.000 C 
BRANCH  28  29
ATOM     29  C   UNL     1       6.278   4.012  14.260  0.00  0.00    +0.000 A 
ATOM     30  C   UNL     1       7.284   4.985  14.173  0.00  0.00    +0.000 A 
ATOM     31  C   UNL     1       7.863   5.280  12.946  0.00  0.00    +0.000 A 
ATOM     32  C   UNL     1       7.424   4.619  11.800  0.00  0.00    +0.000 A 
ATOM     33  C   UNL     1       6.410   3.662  11.880  0.00  0.00    +0.000 A 
ATOM     34  C   UNL     1       5.834   3.356  13.109  0.00  0.00    +0.000 A 
ENDBRANCH  28  29
ENDBRANCH  27  28
ENDBRANCH   6  27
TORSDOF 7
ENDMDL
MODEL 2
REMARK VINA RESULT:      -8.7      0.488      2.208
REMARK  Name = 
REMARK  12 active torsions:
REMARK  status: ('A' for Active; 'I' for Inactive)
REMARK    1  A    between atoms: C_1  and  O_2
REMARK    2  A    between atoms: O_2  and  C_3
REMARK    3  A    between atoms: C_5  and  C_6
REMARK    4  A    between atoms: C_7  and  C_8
REMARK    5  A    between atoms: N_14  and  C_15
REMARK    6  A    between atoms: N_18  and  C_19
REMARK    7  A    between atoms: N_20  and  C_21
REMARK    8  A    between atoms: C_23  and  O_24
REMARK    9  A    between atoms: O_24  and  C_25
REMARK   10  A    between atoms: C_26  and  O_27
REMARK   11  A    between atoms: O_27  and  C_28
REMARK   12  A    between atoms: C_28  and  C_29
REMARK                            x       y       z     vdW  Elec       q    Type
REMARK                         _______ _______ _______ _____ _____    ______ ____
ROOT
ATOM      1  C   UNL     1       3.143   4.197  17.647  0.00  0.00    +0.000 A 
ATOM      2  C   UNL     1       2.406   5.056  18.468  0.00  0.00    +0.000 A 
ATOM      3  C   UNL     1       2.754   6.395  18.557  0.00  0.00    +0.000 A 
ATOM      4  C   UNL     1       3.918   6.826  17.913  0.00  0.00    +0.000 A 
ATOM      5  C   UNL     1       4.746   5.977  17.155  0.00  0.00    +0.000 A 
ATOM      6  C   UNL     1       4.325   4.642  16.979  0.00  0.00    +0.000 A 
ENDROOT
BRANCH   1   8
ATOM      7  C   UNL     1       3.086   1.951  18.416  0.00  0.00    +0.000 C 
ATOM      8  O   UNL     1       2.715   2.906  17.417  0.00  0.00    +0.000 OA
ENDBRANCH   1   8
BRANCH   3   9
ATOM      9  C   UNL     1       1.810   7.337  19.167  0.00  0.00    +0.000 C 
ATOM     10  C   UNL     1       1.940   8.669  19.109  0.00  0.00    +0.000 C 
BRANCH  10  11
ATOM     11  C   UNL     1       0.895   9.501  19.589  0.00  0.00    +0.000 A 
ATOM     12  N   UNL     1      -0.001  10.196  18.898  0.00  0.00    +0.000 NA
ATOM     13  C   UNL     1      -0.726  10.866  19.832  0.00  0.00    +0.000 A 
ATOM     14  C   UNL     1      -0.312  10.592  21.096  0.00  0.00    +0.000 A 
ATOM     15  C   UNL     1      -0.923  11.166  22.246  0.00  0.00    +0.000 A 
ATOM     16  O   UNL     1      -0.590  10.895  23.392  0.00  0.00    +0.000 OA
ATOM     17  N   UNL     1      -1.957  12.060  21.933  0.00  0.00    +0.000 N 
ATOM     18  C   UNL     1      -2.627  12.732  23.019  0.00  0.00    +0.000 C 
ATOM     19  C   UNL     1      -2.388  12.373  20.638  0.00  0.00    +0.000 A 
ATOM     20  O   UNL     1      -3.301  13.181  20.457  0.00  0.00    +0.000 OA
ATOM     21  N   UNL     1      -1.752  11.739  19.572  0.00  0.00    +0.000 N 
ATOM     22  C   UNL     1      -2.140  12.017  18.198  0.00  0.00    +0.000 C 
ATOM     23  N   UNL     1       0.739   9.722  20.950  0.00  0.00    +0.000 N 
ATOM     24  C   UNL     1       1.560   9.172  22.002  0.00  0.00    +0.000 C 
ENDBRANCH  10  11
ENDBRANCH   3   9
BRANCH   5  25
ATOM     25  O   UNL     1       5.764   6.743  16.657  0.00  0.00    +0.000 OA
ATOM     26  C   UNL     1       6.860   7.322  17.337  0.00  0.00    +0.000 C 
ENDBRANCH   5  25
BRANCH   6  27
ATOM     27  O   UNL     1       4.849   3.673  16.150  0.00  0.00    +0.000 OA
BRANCH  27  28
ATOM     28  C   UNL     1       6.183   3.886  15.762  0.00  0.00    +0.000 C 
BRANCH  28  29
ATOM     29  C   UNL     1       6.439   4.196  14.319  0.00  0.00    +0.000 A 
ATOM     30  C   UNL     1       7.442   5.124  14.005  0.00  0.00    +0.000 A 
ATOM     31  C   UNL     1       7.885   5.254  12.695  0.00  0.00    +0.000 A 
ATOM     32  C   UNL     1       7.312   4.472  11.694  0.00  0.00    +0.000 A 
ATOM     33  C   UNL     1       6.301   3.559  12.000  0.00  0.00    +0.000 A 
ATOM     34  C   UNL     1       5.861   3.419  13.312  0.00  0.00    +0.000 A 
ENDBRANCH  28  29
ENDBRANCH  27  28
ENDBRANCH   6  27
TORSDOF 7
ENDMDL
MODEL 3
REMARK VINA RESULT:      -8.6      1.379      2.212
REMARK  Name = 
REMARK  12 active torsions:
REMARK  status: ('A' for Active; 'I' for Inactive)
REMARK    1  A    between atoms: C_1  and  O_2
REMARK    2  A    between atoms: O_2  and  C_3
REMARK    3  A    between atoms: C_5  and  C_6
REMARK    4  A    between atoms: C_7  and  C_8
REMARK    5  A    between atoms: N_14  and  C_15
REMARK    6  A    between atoms: N_18  and  C_19
REMARK    7  A    between atoms: N_20  and  C_21
REMARK    8  A    between atoms: C_23  and  O_24
REMARK    9  A    between atoms: O_24  and  C_25
REMARK   10  A    between atoms: C_26  and  O_27
REMARK   11  A    between atoms: O_27  and  C_28
REMARK   12  A    between atoms: C_28  and  C_29
REMARK                            x       y       z     vdW  Elec       q    Type
REMARK                         _______ _______ _______ _____ _____    ______ ____
ROOT
ATOM      1  C   UNL     1       4.785   6.739  17.003  0.00  0.00    +0.000 A 
ATOM      2  C   UNL     1       3.861   7.741  17.312  0.00  0.00    +0.000 A 
ATOM      3  C   UNL     1       2.680   7.416  17.962  0.00  0.00    +0.000 A 
ATOM      4  C   UNL     1       2.389   6.066  18.182  0.00  0.00    +0.000 A 
ATOM      5  C   UNL     1       3.245   5.015  17.801  0.00  0.00    +0.000 A 
ATOM      6  C   UNL     1       4.492   5.361  17.240  0.00  0.00    +0.000 A 
ENDROOT
BRANCH   1   8
ATOM      7  C   UNL     1       6.934   7.643  17.455  0.00  0.00    +0.000 C 
ATOM      8  O   UNL     1       6.032   7.061  16.509  0.00  0.00    +0.000 OA
ENDBRANCH   1   8
BRANCH   3   9
ATOM      9  C   UNL     1       1.870   8.489  18.546  0.00  0.00    +0.000 C 
ATOM     10  C   UNL     1       1.120   9.336  17.829  0.00  0.00    +0.000 C 
BRANCH  10  11
ATOM     11  C   UNL     1       0.246  10.238  18.490  0.00  0.00    +0.000 A 
ATOM     12  N   UNL     1       0.479  10.997  19.554  0.00  0.00    +0.000 NA
ATOM     13  C   UNL     1      -0.701  11.617  19.814  0.00  0.00    +0.000 A 
ATOM     14  C   UNL     1      -1.667  11.274  18.923  0.00  0.00    +0.000 A 
ATOM     15  C   UNL     1      -2.988  11.801  18.981  0.00  0.00    +0.000 A 
ATOM     16  O   UNL     1      -3.855  11.535  18.159  0.00  0.00    +0.000 OA
ATOM     17  N   UNL     1      -3.188  12.669  20.063  0.00  0.00    +0.000 N 
ATOM     18  C   UNL     1      -4.501  13.238  20.246  0.00  0.00    +0.000 C 
ATOM     19  C   UNL     1      -2.214  13.022  21.005  0.00  0.00    +0.000 A 
ATOM     20  O   UNL     1      -2.484  13.787  21.933  0.00  0.00    +0.000 OA
ATOM     21  N   UNL     1      -0.938  12.482  20.852  0.00  0.00    +0.000 N 
ATOM     22  C   UNL     1       0.125  12.796  21.793  0.00  0.00    +0.000 C 
ATOM     23  N   UNL     1      -1.070  10.378  18.072  0.00  0.00    +0.000 N 
ATOM     24  C   UNL     1      -1.696   9.675  16.978  0.00  0.00    +0.000 C 
ENDBRANCH  10  11
ENDBRANCH   3   9
BRANCH   5  25
ATOM     25  O   UNL     1       2.653   3.847  18.198  0.00  0.00    +0.000 OA
ATOM     26  C   UNL     1       2.692   2.573  17.585  0.00  0.00    +0.000 C 
ENDBRANCH   5  25
BRANCH   6  27
ATOM     27  O   UNL     1       5.566   4.545  16.954  0.00  0.00    +0.000 OA
BRANCH  27  28
ATOM     28  C   UNL     1       5.365   3.657  15.883  0.00  0.00    +0.000 C 
BRANCH  28  29
ATOM     29  C   UNL     1       5.902   4.063  14.544  0.00  0.00    +0.000 A 
ATOM     30  C   UNL     1       7.061   4.852  14.502  0.00  0.00    +0.000 A 
ATOM     31  C   UNL     1       7.733   5.038  13.302  0.00  0.00    +0.000 A 
ATOM     32  C   UNL     1       7.238   4.454  12.137  0.00  0.00    +0.000 A 
ATOM     33  C   UNL     1       6.075   3.681  12.172  0.00  0.00    +0.000 A 
ATOM     34  C   UNL     1       5.404   3.484  13.374  0.00  0.00    +0.000 A 
ENDBRANCH  28  29
ENDBRANCH  27  28
ENDBRANCH   6  27
TORSDOF 7
ENDMDL
MODEL 4
REMARK VINA RESULT:      -8.5      1.083      1.090
REMARK  Name = 
REMARK  12 active torsions:
REMARK  status: ('A' for Active; 'I' for Inactive)
REMARK    1  A    between atoms: C_1  and  O_2
REMARK    2  A    between atoms: O_2  and  C_3
REMARK    3  A    between atoms: C_5  and  C_6
REMARK    4  A    between atoms: C_7  and  C_8
REMARK    5  A    between atoms: N_14  and  C_15
REMARK    6  A    between atoms: N_18  and  C_19
REMARK    7  A    between atoms: N_20  and  C_21
REMARK    8  A    between atoms: C_23  and  O_24
REMARK    9  A    between atoms: O_24  and  C_25
REMARK   10  A    between atoms: C_26  and  O_27
REMARK   11  A    between atoms: O_27  and  C_28
REMARK   12  A    between atoms: C_28  and  C_29
REMARK                            x       y       z     vdW  Elec       q    Type
REMARK                         _______ _______ _______ _____ _____    ______ ____
ROOT
ATOM      1  C   UNL     1       5.069   6.775  16.882  0.00  0.00    +0.000 A 
ATOM      2  C   UNL     1       4.102   7.763  17.092  0.00  0.00    +0.000 A 
ATOM      3  C   UNL     1       2.908   7.440  17.719  0.00  0.00    +0.000 A 
ATOM      4  C   UNL     1       2.652   6.098  18.015  0.00  0.00    +0.000 A 
ATOM      5  C   UNL     1       3.554   5.054  17.734  0.00  0.00    +0.000 A 
ATOM      6  C   UNL     1       4.811   5.406  17.198  0.00  0.00    +0.000 A 
ENDROOT
BRANCH   1   8
ATOM      7  C   UNL     1       7.227   7.623  17.395  0.00  0.00    +0.000 C 
ATOM      8  O   UNL     1       6.323   7.108  16.413  0.00  0.00    +0.000 OA
ENDBRANCH   1   8
BRANCH   3   9
ATOM      9  C   UNL     1       2.043   8.520  18.203  0.00  0.00    +0.000 C 
ATOM     10  C   UNL     1       1.553   8.585  19.447  0.00  0.00    +0.000 C 
BRANCH  10  11
ATOM     11  C   UNL     1       0.857   9.748  19.872  0.00  0.00    +0.000 A 
ATOM     12  N   UNL     1       0.580  10.851  19.186  0.00  0.00    +0.000 NA
ATOM     13  C   UNL     1      -0.042  11.672  20.072  0.00  0.00    +0.000 A 
ATOM     14  C   UNL     1      -0.175  11.099  21.296  0.00  0.00    +0.000 A 
ATOM     15  C   UNL     1      -0.803  11.759  22.390  0.00  0.00    +0.000 A 
ATOM     16  O   UNL     1      -0.969  11.239  23.485  0.00  0.00    +0.000 OA
ATOM     17  N   UNL     1      -1.229  13.058  22.078  0.00  0.00    +0.000 N 
ATOM     18  C   UNL     1      -1.848  13.840  23.121  0.00  0.00    +0.000 C 
ATOM     19  C   UNL     1      -1.085  13.677  20.830  0.00  0.00    +0.000 A 
ATOM     20  O   UNL     1      -1.481  14.830  20.651  0.00  0.00    +0.000 OA
ATOM     21  N   UNL     1      -0.485  12.943  19.808  0.00  0.00    +0.000 N 
ATOM     22  C   UNL     1      -0.295  13.519  18.486  0.00  0.00    +0.000 C 
ATOM     23  N   UNL     1       0.411   9.863  21.181  0.00  0.00    +0.000 N 
ATOM     24  C   UNL     1       0.577   8.883  22.227  0.00  0.00    +0.000 C 
ENDBRANCH  10  11
ENDBRANCH   3   9
BRANCH   5  25
ATOM     25  O   UNL     1       2.985   3.895  18.185  0.00  0.00    +0.000 OA
ATOM     26  C   UNL     1       1.710   3.356  17.897  0.00  0.00    +0.000 C 
ENDBRANCH   5  25
BRANCH   6  27
ATOM     27  O   UNL     1       5.920   4.611  17.004  0.00  0.00    +0.000 OA
BRANCH  27  28
ATOM     28  C   UNL     1       5.780   3.635  16.001  0.00  0.00    +0.000 C 
BRANCH  28  29
ATOM     29  C   UNL     1       6.141   4.031  14.602  0.00  0.00    +0.000 A 
ATOM     30  C   UNL     1       7.235   4.887  14.413  0.00  0.00    +0.000 A 
ATOM     31  C   UNL     1       7.760   5.076  13.141  0.00  0.00    +0.000 A 
ATOM     32  C   UNL     1       7.179   4.427  12.053  0.00  0.00    +0.000 A 
ATOM     33  C   UNL     1       6.079   3.586  12.235  0.00  0.00    +0.000 A 
ATOM     34  C   UNL     1       5.556   3.387  13.509  0.00  0.00    +0.000 A 
ENDBRANCH  28  29
ENDBRANCH  27  28
ENDBRANCH   6  27
TORSDOF 7
ENDMDL
MODEL 5
REMARK VINA RESULT:      -8.5      1.323      3.113
REMARK  Name = 
REMARK  12 active torsions:
REMARK  status: ('A' for Active; 'I' for Inactive)
REMARK    1  A    between atoms: C_1  and  O_2
REMARK    2  A    between atoms: O_2  and  C_3
REMARK    3  A    between atoms: C_5  and  C_6
REMARK    4  A    between atoms: C_7  and  C_8
REMARK    5  A    between atoms: N_14  and  C_15
REMARK    6  A    between atoms: N_18  and  C_19
REMARK    7  A    between atoms: N_20  and  C_21
REMARK    8  A    between atoms: C_23  and  O_24
REMARK    9  A    between atoms: O_24  and  C_25
REMARK   10  A    between atoms: C_26  and  O_27
REMARK   11  A    between atoms: O_27  and  C_28
REMARK   12  A    between atoms: C_28  and  C_29
REMARK                            x       y       z     vdW  Elec       q    Type
REMARK                         _______ _______ _______ _____ _____    ______ ____
ROOT
ATOM      1  C   UNL     1       2.956   4.871  17.745  0.00  0.00    +0.000 A 
ATOM      2  C   UNL     1       2.270   5.843  18.480  0.00  0.00    +0.000 A 
ATOM      3  C   UNL     1       2.708   7.158  18.463  0.00  0.00    +0.000 A 
ATOM      4  C   UNL     1       3.907   7.455  17.806  0.00  0.00    +0.000 A 
ATOM      5  C   UNL     1       4.684   6.491  17.135  0.00  0.00    +0.000 A 
ATOM      6  C   UNL     1       4.174   5.178  17.064  0.00  0.00    +0.000 A 
ENDROOT
BRANCH   1   8
ATOM      7  C   UNL     1       1.214   3.358  18.307  0.00  0.00    +0.000 C 
ATOM      8  O   UNL     1       2.444   3.597  17.615  0.00  0.00    +0.000 OA
ENDBRANCH   1   8
BRANCH   3   9
ATOM      9  C   UNL     1       1.825   8.210  18.977  0.00  0.00    +0.000 C 
ATOM     10  C   UNL     1       1.348   9.216  18.232  0.00  0.00    +0.000 C 
BRANCH  10  11
ATOM     11  C   UNL     1       0.373  10.094  18.774  0.00  0.00    +0.000 A 
ATOM     12  N   UNL     1       0.426  10.812  19.889  0.00  0.00    +0.000 NA
ATOM     13  C   UNL     1      -0.784  11.424  19.975  0.00  0.00    +0.000 A 
ATOM     14  C   UNL     1      -1.590  11.115  18.926  0.00  0.00    +0.000 A 
ATOM     15  C   UNL     1      -2.906  11.641  18.786  0.00  0.00    +0.000 A 
ATOM     16  O   UNL     1      -3.626  11.406  17.825  0.00  0.00    +0.000 OA
ATOM     17  N   UNL     1      -3.284  12.469  19.852  0.00  0.00    +0.000 N 
ATOM     18  C   UNL     1      -4.612  13.032  19.839  0.00  0.00    +0.000 C 
ATOM     19  C   UNL     1      -2.479  12.787  20.953  0.00  0.00    +0.000 A 
ATOM     20  O   UNL     1      -2.900  13.517  21.851  0.00  0.00    +0.000 OA
ATOM     21  N   UNL     1      -1.192  12.251  20.991  0.00  0.00    +0.000 N 
ATOM     22  C   UNL     1      -0.299  12.529  22.104  0.00  0.00    +0.000 C 
ATOM     23  N   UNL     1      -0.858  10.250  18.152  0.00  0.00    +0.000 N 
ATOM     24  C   UNL     1      -1.293   9.589  16.945  0.00  0.00    +0.000 C 
ENDBRANCH  10  11
ENDBRANCH   3   9
BRANCH   5  25
ATOM     25  O   UNL     1       5.757   7.143  16.594  0.00  0.00    +0.000 OA
ATOM     26  C   UNL     1       7.015   7.427  17.174  0.00  0.00    +0.000 C 
ENDBRANCH   5  25
BRANCH   6  27
ATOM     27  O   UNL     1       4.640   4.110  16.327  0.00  0.00    +0.000 OA
BRANCH  27  28
ATOM     28  C   UNL     1       5.991   4.197  15.948  0.00  0.00    +0.000 C 
BRANCH  28  29
ATOM     29  C   UNL     1       6.287   4.348  14.487  0.00  0.00    +0.000 A 
ATOM     30  C   UNL     1       7.381   5.139  14.108  0.00  0.00    +0.000 A 
ATOM     31  C   UNL     1       7.844   5.104  12.799  0.00  0.00    +0.000 A 
ATOM     32  C   UNL     1       7.203   4.295  11.863  0.00  0.00    +0.000 A 
ATOM     33  C   UNL     1       6.103   3.519  12.233  0.00  0.00    +0.000 A 
ATOM     34  C   UNL     1       5.642   3.544  13.545  0.00  0.00    +0.000 A 
ENDBRANCH  28  29
ENDBRANCH  27  28
ENDBRANCH   6  27
TORSDOF 7
ENDMDL
MODEL 6
REMARK VINA RESULT:      -8.4      1.345      2.777
REMARK  Name = 
REMARK  12 active torsions:
REMARK  status: ('A' for Active; 'I' for Inactive)
REMARK    1  A    between atoms: C_1  and  O_2
REMARK    2  A    between atoms: O_2  and  C_3
REMARK    3  A    between atoms: C_5  and  C_6
REMARK    4  A    between atoms: C_7  and  C_8
REMARK    5  A    between atoms: N_14  and  C_15
REMARK    6  A    between atoms: N_18  and  C_19
REMARK    7  A    between atoms: N_20  and  C_21
REMARK    8  A    between atoms: C_23  and  O_24
REMARK    9  A    between atoms: O_24  and  C_25
REMARK   10  A    between atoms: C_26  and  O_27
REMARK   11  A    between atoms: O_27  and  C_28
REMARK   12  A    between atoms: C_28  and  C_29
REMARK                            x       y       z     vdW  Elec       q    Type
REMARK                         _______ _______ _______ _____ _____    ______ ____
ROOT
ATOM      1  C   UNL     1       4.130   4.584  17.678  0.00  0.00    +0.000 A 
ATOM      2  C   UNL     1       3.068   5.355  18.161  0.00  0.00    +0.000 A 
ATOM      3  C   UNL     1       3.123   6.738  18.073  0.00  0.00    +0.000 A 
ATOM      4  C   UNL     1       4.303   7.331  17.613  0.00  0.00    +0.000 A 
ATOM      5  C   UNL     1       5.435   6.598  17.207  0.00  0.00    +0.000 A 
ATOM      6  C   UNL     1       5.329   5.191  17.195  0.00  0.00    +0.000 A 
ENDROOT
BRANCH   1   8
ATOM      7  C   UNL     1       3.548   2.568  18.792  0.00  0.00    +0.000 C 
ATOM      8  O   UNL     1       4.023   3.210  17.604  0.00  0.00    +0.000 OA
ENDBRANCH   1   8
BRANCH   3   9
ATOM      9  C   UNL     1       1.900   7.515  18.296  0.00  0.00    +0.000 C 
ATOM     10  C   UNL     1       1.835   8.849  18.207  0.00  0.00    +0.000 C 
BRANCH  10  11
ATOM     11  C   UNL     1       0.576   9.501  18.280  0.00  0.00    +0.000 A 
ATOM     12  N   UNL     1      -0.394   9.545  17.375  0.00  0.00    +0.000 NA
ATOM     13  C   UNL     1      -1.348  10.348  17.916  0.00  0.00    +0.000 A 
ATOM     14  C   UNL     1      -1.001  10.795  19.150  0.00  0.00    +0.000 A 
ATOM     15  C   UNL     1      -1.842  11.645  19.924  0.00  0.00    +0.000 A 
ATOM     16  O   UNL     1      -1.562  12.020  21.054  0.00  0.00    +0.000 OA
ATOM     17  N   UNL     1      -3.030  11.992  19.265  0.00  0.00    +0.000 N 
ATOM     18  C   UNL     1      -3.946  12.880  19.938  0.00  0.00    +0.000 C 
ATOM     19  C   UNL     1      -3.400  11.559  17.986  0.00  0.00    +0.000 A 
ATOM     20  O   UNL     1      -4.462  11.925  17.481  0.00  0.00    +0.000 OA
ATOM     21  N   UNL     1      -2.528  10.703  17.314  0.00  0.00    +0.000 N 
ATOM     22  C   UNL     1      -2.839  10.216  15.979  0.00  0.00    +0.000 C 
ATOM     23  N   UNL     1       0.241  10.264  19.390  0.00  0.00    +0.000 N 
ATOM     24  C   UNL     1       1.069  10.488  20.551  0.00  0.00    +0.000 C 
ENDBRANCH  10  11
ENDBRANCH   3   9
BRANCH   5  25
ATOM     25  O   UNL     1       6.376   7.501  16.796  0.00  0.00    +0.000 OA
ATOM     26  C   UNL     1       7.634   7.800  17.367  0.00  0.00    +0.000 C 
ENDBRANCH   5  25
BRANCH   6  27
ATOM     27  O   UNL     1       6.210   4.263  16.681  0.00  0.00    +0.000 OA
BRANCH  27  28
ATOM     28  C   UNL     1       5.762   3.599  15.526  0.00  0.00    +0.000 C 
BRANCH  28  29
ATOM     29  C   UNL     1       6.258   4.105  14.206  0.00  0.00    +0.000 A 
ATOM     30  C   UNL     1       7.288   5.057  14.202  0.00  0.00    +0.000 A 
ATOM     31  C   UNL     1       7.949   5.363  13.020  0.00  0.00    +0.000 A 
ATOM     32  C   UNL     1       7.568   4.735  11.835  0.00  0.00    +0.000 A 
ATOM     33  C   UNL     1       6.531   3.799  11.832  0.00  0.00    +0.000 A 
ATOM     34  C   UNL     1       5.874   3.482  13.016  0.00  0.00    +0.000 A 
ENDBRANCH  28  29
ENDBRANCH  27  28
ENDBRANCH   6  27
TORSDOF 7
ENDMDL
MODEL 7
REMARK VINA RESULT:      -8.3      0.626      2.430
REMARK  Name = 
REMARK  12 active torsions:
REMARK  status: ('A' for Active; 'I' for Inactive)
REMARK    1  A    between atoms: C_1  and  O_2
REMARK    2  A    between atoms: O_2  and  C_3
REMARK    3  A    between atoms: C_5  and  C_6
REMARK    4  A    between atoms: C_7  and  C_8
REMARK    5  A    between atoms: N_14  and  C_15
REMARK    6  A    between atoms: N_18  and  C_19
REMARK    7  A    between atoms: N_20  and  C_21
REMARK    8  A    between atoms: C_23  and  O_24
REMARK    9  A    between atoms: O_24  and  C_25
REMARK   10  A    between atoms: C_26  and  O_27
REMARK   11  A    between atoms: O_27  and  C_28
REMARK   12  A    between atoms: C_28  and  C_29
REMARK                            x       y       z     vdW  Elec       q    Type
REMARK                         _______ _______ _______ _____ _____    ______ ____
ROOT
ATOM      1  C   UNL     1       3.871   4.608  17.733  0.00  0.00    +0.000 A 
ATOM      2  C   UNL     1       2.980   5.514  18.316  0.00  0.00    +0.000 A 
ATOM      3  C   UNL     1       3.230   6.875  18.238  0.00  0.00    +0.000 A 
ATOM      4  C   UNL     1       4.440   7.301  17.682  0.00  0.00    +0.000 A 
ATOM      5  C   UNL     1       5.413   6.421  17.171  0.00  0.00    +0.000 A 
ATOM      6  C   UNL     1       5.101   5.045  17.153  0.00  0.00    +0.000 A 
ENDROOT
BRANCH   1   8
ATOM      7  C   UNL     1       2.639   2.793  18.644  0.00  0.00    +0.000 C 
ATOM      8  O   UNL     1       3.558   3.266  17.654  0.00  0.00    +0.000 OA
ENDBRANCH   1   8
BRANCH   3   9
ATOM      9  C   UNL     1       2.158   7.817  18.576  0.00  0.00    +0.000 C 
ATOM     10  C   UNL     1       1.789   8.112  19.829  0.00  0.00    +0.000 C 
BRANCH  10  11
ATOM     11  C   UNL     1       0.852   9.153  20.062  0.00  0.00    +0.000 A 
ATOM     12  N   UNL     1       0.133   9.839  19.182  0.00  0.00    +0.000 NA
ATOM     13  C   UNL     1      -0.550  10.754  19.918  0.00  0.00    +0.000 A 
ATOM     14  C   UNL     1      -0.285  10.644  21.246  0.00  0.00    +0.000 A 
ATOM     15  C   UNL     1      -0.888  11.487  22.222  0.00  0.00    +0.000 A 
ATOM     16  O   UNL     1      -0.691  11.371  23.425  0.00  0.00    +0.000 OA
ATOM     17  N   UNL     1      -1.741  12.451  21.667  0.00  0.00    +0.000 N 
ATOM     18  C   UNL     1      -2.382  13.387  22.559  0.00  0.00    +0.000 C 
ATOM     19  C   UNL     1      -2.015  12.596  20.301  0.00  0.00    +0.000 A 
ATOM     20  O   UNL     1      -2.773  13.481  19.903  0.00  0.00    +0.000 OA
ATOM     21  N   UNL     1      -1.404  11.705  19.420  0.00  0.00    +0.000 N 
ATOM     22  C   UNL     1      -1.634  11.797  17.987  0.00  0.00    +0.000 C 
ATOM     23  N   UNL     1       0.625   9.622  21.348  0.00  0.00    +0.000 N 
ATOM     24  C   UNL     1       1.265   9.151  22.552  0.00  0.00    +0.000 C 
ENDBRANCH  10  11
ENDBRANCH   3   9
BRANCH   5  25
ATOM     25  O   UNL     1       6.438   7.187  16.688  0.00  0.00    +0.000 OA
ATOM     26  C   UNL     1       7.463   7.855  17.397  0.00  0.00    +0.000 C 
ENDBRANCH   5  25
BRANCH   6  27
ATOM     27  O   UNL     1       5.789   4.012  16.554  0.00  0.00    +0.000 OA
BRANCH  27  28
ATOM     28  C   UNL     1       5.348   3.680  15.260  0.00  0.00    +0.000 C 
BRANCH  28  29
ATOM     29  C   UNL     1       6.275   3.976  14.121  0.00  0.00    +0.000 A 
ATOM     30  C   UNL     1       5.989   3.416  12.867  0.00  0.00    +0.000 A 
ATOM     31  C   UNL     1       6.663   3.860  11.737  0.00  0.00    +0.000 A 
ATOM     32  C   UNL     1       7.637   4.849  11.860  0.00  0.00    +0.000 A 
ATOM     33  C   UNL     1       7.936   5.397  13.109  0.00  0.00    +0.000 A 
ATOM     34  C   UNL     1       7.257   4.962  14.242  0.00  0.00    +0.000 A 
ENDBRANCH  28  29
ENDBRANCH  27  28
ENDBRANCH   6  27
TORSDOF 7
ENDMDL
MODEL 8
REMARK VINA RESULT:      -8.2      1.499      1.553
REMARK  Name = 
REMARK  12 active torsions:
REMARK  status: ('A' for Active; 'I' for Inactive)
REMARK    1  A    between atoms: C_1  and  O_2
REMARK    2  A    between atoms: O_2  and  C_3
REMARK    3  A    between atoms: C_5  and  C_6
REMARK    4  A    between atoms: C_7  and  C_8
REMARK    5  A    between atoms: N_14  and  C_15
REMARK    6  A    between atoms: N_18  and  C_19
REMARK    7  A    between atoms: N_20  and  C_21
REMARK    8  A    between atoms: C_23  and  O_24
REMARK    9  A    between atoms: O_24  and  C_25
REMARK   10  A    between atoms: C_26  and  O_27
REMARK   11  A    between atoms: O_27  and  C_28
REMARK   12  A    between atoms: C_28  and  C_29
REMARK                            x       y       z     vdW  Elec       q    Type
REMARK                         _______ _______ _______ _____ _____    ______ ____
ROOT
ATOM      1  C   UNL     1       4.923   6.758  16.977  0.00  0.00    +0.000 A 
ATOM      2  C   UNL     1       3.868   7.640  17.229  0.00  0.00    +0.000 A 
ATOM      3  C   UNL     1       2.726   7.186  17.870  0.00  0.00    +0.000 A 
ATOM      4  C   UNL     1       2.610   5.818  18.138  0.00  0.00    +0.000 A 
ATOM      5  C   UNL     1       3.606   4.876  17.814  0.00  0.00    +0.000 A 
ATOM      6  C   UNL     1       4.809   5.364  17.263  0.00  0.00    +0.000 A 
ENDROOT
BRANCH   1   8
ATOM      7  C   UNL     1       7.071   7.634  17.488  0.00  0.00    +0.000 C 
ATOM      8  O   UNL     1       6.129   7.225  16.493  0.00  0.00    +0.000 OA
ENDBRANCH   1   8
BRANCH   3   9
ATOM      9  C   UNL     1       1.769   8.163  18.398  0.00  0.00    +0.000 C 
ATOM     10  C   UNL     1       1.343   9.235  17.718  0.00  0.00    +0.000 C 
BRANCH  10  11
ATOM     11  C   UNL     1       0.296  10.035  18.246  0.00  0.00    +0.000 A 
ATOM     12  N   UNL     1      -1.009   9.960  18.013  0.00  0.00    +0.000 NA
ATOM     13  C   UNL     1      -1.554  10.989  18.713  0.00  0.00    +0.000 A 
ATOM     14  C   UNL     1      -0.617  11.699  19.393  0.00  0.00    +0.000 A 
ATOM     15  C   UNL     1      -0.944  12.820  20.207  0.00  0.00    +0.000 A 
ATOM     16  O   UNL     1      -0.117  13.442  20.860  0.00  0.00    +0.000 OA
ATOM     17  N   UNL     1      -2.312  13.127  20.199  0.00  0.00    +0.000 N 
ATOM     18  C   UNL     1      -2.758  14.269  20.960  0.00  0.00    +0.000 C 
ATOM     19  C   UNL     1      -3.293  12.423  19.490  0.00  0.00    +0.000 A 
ATOM     20  O   UNL     1      -4.474  12.773  19.533  0.00  0.00    +0.000 OA
ATOM     21  N   UNL     1      -2.886  11.319  18.744  0.00  0.00    +0.000 N 
ATOM     22  C   UNL     1      -3.845  10.540  17.976  0.00  0.00    +0.000 C 
ATOM     23  N   UNL     1       0.579  11.099  19.091  0.00  0.00    +0.000 N 
ATOM     24  C   UNL     1       1.890  11.516  19.526  0.00  0.00    +0.000 C 
ENDBRANCH  10  11
ENDBRANCH   3   9
BRANCH   5  25
ATOM     25  O   UNL     1       3.164   3.656  18.245  0.00  0.00    +0.000 OA
ATOM     26  C   UNL     1       2.637   2.580  17.494  0.00  0.00    +0.000 C 
ENDBRANCH   5  25
BRANCH   6  27
ATOM     27  O   UNL     1       5.988   4.687  17.028  0.00  0.00    +0.000 OA
BRANCH  27  28
ATOM     28  C   UNL     1       5.914   3.699  16.031  0.00  0.00    +0.000 C 
BRANCH  28  29
ATOM     29  C   UNL     1       6.246   4.111  14.629  0.00  0.00    +0.000 A 
ATOM     30  C   UNL     1       7.337   4.968  14.427  0.00  0.00    +0.000 A 
ATOM     31  C   UNL     1       7.836   5.171  13.148  0.00  0.00    +0.000 A 
ATOM     32  C   UNL     1       7.232   4.536  12.064  0.00  0.00    +0.000 A 
ATOM     33  C   UNL     1       6.134   3.695  12.259  0.00  0.00    +0.000 A 
ATOM     34  C   UNL     1       5.638   3.481  13.540  0.00  0.00    +0.000 A 
ENDBRANCH  28  29
ENDBRANCH  27  28
ENDBRANCH   6  27
TORSDOF 7
ENDMDL
MODEL 9
REMARK VINA RESULT:      -8.1      6.114      9.047
REMARK  Name = 
REMARK  12 active torsions:
REMARK  status: ('A' for Active; 'I' for Inactive)
REMARK    1  A    between atoms: C_1  and  O_2
REMARK    2  A    between atoms: O_2  and  C_3
REMARK    3  A    between atoms: C_5  and  C_6
REMARK    4  A    between atoms: C_7  and  C_8
REMARK    5  A    between atoms: N_14  and  C_15
REMARK    6  A    between atoms: N_18  and  C_19
REMARK    7  A    between atoms: N_20  and  C_21
REMARK    8  A    between atoms: C_23  and  O_24
REMARK    9  A    between atoms: O_24  and  C_25
REMARK   10  A    between atoms: C_26  and  O_27
REMARK   11  A    between atoms: O_27  and  C_28
REMARK   12  A    between atoms: C_28  and  C_29
REMARK                            x       y       z     vdW  Elec       q    Type
REMARK                         _______ _______ _______ _____ _____    ______ ____
ROOT
ATOM      1  C   UNL     1       7.629   5.766  18.583  0.00  0.00    +0.000 A 
ATOM      2  C   UNL     1       8.244   7.015  18.459  0.00  0.00    +0.000 A 
ATOM      3  C   UNL     1       7.566   8.062  17.854  0.00  0.00    +0.000 A 
ATOM      4  C   UNL     1       6.322   7.803  17.270  0.00  0.00    +0.000 A 
ATOM      5  C   UNL     1       5.706   6.537  17.284  0.00  0.00    +0.000 A 
ATOM      6  C   UNL     1       6.353   5.506  17.996  0.00  0.00    +0.000 A 
ENDROOT
BRANCH   1   8
ATOM      7  C   UNL     1       8.512   5.099  20.684  0.00  0.00    +0.000 C 
ATOM      8  O   UNL     1       8.219   4.763  19.325  0.00  0.00    +0.000 OA
ENDBRANCH   1   8
BRANCH   3   9
ATOM      9  C   UNL     1       8.085   9.426  17.998  0.00  0.00    +0.000 C 
ATOM     10  C   UNL     1       9.037   9.775  18.873  0.00  0.00    +0.000 C 
BRANCH  10  11
ATOM     11  C   UNL     1       9.590  11.082  18.830  0.00  0.00    +0.000 A 
ATOM     12  N   UNL     1      10.173  11.708  17.815  0.00  0.00    +0.000 NA
ATOM     13  C   UNL     1      10.577  12.903  18.319  0.00  0.00    +0.000 A 
ATOM     14  C   UNL     1      10.243  13.045  19.629  0.00  0.00    +0.000 A 
ATOM     15  C   UNL     1      10.551  14.217  20.376  0.00  0.00    +0.000 A 
ATOM     16  O   UNL     1      10.218  14.377  21.543  0.00  0.00    +0.000 OA
ATOM     17  N   UNL     1      11.257  15.175  19.635  0.00  0.00    +0.000 N 
ATOM     18  C   UNL     1      11.656  16.391  20.300  0.00  0.00    +0.000 C 
ATOM     19  C   UNL     1      11.629  15.042  18.291  0.00  0.00    +0.000 A 
ATOM     20  O   UNL     1      12.259  15.935  17.722  0.00  0.00    +0.000 OA
ATOM     21  N   UNL     1      11.258  13.873  17.629  0.00  0.00    +0.000 N 
ATOM     22  C   UNL     1      11.613  13.659  16.235  0.00  0.00    +0.000 C 
ATOM     23  N   UNL     1       9.616  11.874  19.970  0.00  0.00    +0.000 N 
ATOM     24  C   UNL     1       9.118  11.507  21.274  0.00  0.00    +0.000 C 
ENDBRANCH  10  11
ENDBRANCH   3   9
BRANCH   5  25
ATOM     25  O   UNL     1       4.501   6.666  16.650  0.00  0.00    +0.000 OA
ATOM     26  C   UNL     1       3.403   7.493  16.980  0.00  0.00    +0.000 C 
ENDBRANCH   5  25
BRANCH   6  27
ATOM     27  O   UNL     1       5.884   4.248  18.311  0.00  0.00    +0.000 OA
BRANCH  27  28
ATOM     28  C   UNL     1       4.934   4.214  19.347  0.00  0.00    +0.000 C 
BRANCH  28  29
ATOM     29  C   UNL     1       3.597   3.614  19.034  0.00  0.00    +0.000 A 
ATOM     30  C   UNL     1       3.107   2.602  19.873  0.00  0.00    +0.000 A 
ATOM     31  C   UNL     1       1.782   2.199  19.777  0.00  0.00    +0.000 A 
ATOM     32  C   UNL     1       0.949   2.791  18.829  0.00  0.00    +0.000 A 
ATOM     33  C   UNL     1       1.437   3.786  17.981  0.00  0.00    +0.000 A 
ATOM     34  C   UNL     1       2.762   4.200  18.080  0.00  0.00    +0.000 A 
ENDBRANCH  28  29
ENDBRANCH  27  28
ENDBRANCH   6  27
TORSDOF 7
ENDMDL
