MODEL 1
REMARK VINA RESULT:      -7.8      0.000      0.000
REMARK  Name = 
REMARK  2 active torsions:
REMARK  status: ('A' for Active; 'I' for Inactive)
REMARK    1  A    between atoms: N_12  and  C_13
REMARK    2  A    between atoms: C_13  and  C_14
REMARK                            x       y       z     vdW  Elec       q    Type
REMARK                         _______ _______ _______ _____ _____    ______ ____
ROOT
ATOM      1  O   UNL     1       2.091   7.828  17.336  0.00  0.00    +0.000 OA
ATOM      2  C   UNL     1       2.333   7.174  18.354  0.00  0.00    +0.000 C 
ATOM      3  C   UNL     1       2.152   7.812  19.722  0.00  0.00    +0.000 C 
ATOM      4  C   UNL     1       1.586   6.977  20.861  0.00  0.00    +0.000 C 
ATOM      5  C   UNL     1       2.353   5.686  21.108  0.00  0.00    +0.000 C 
ATOM      6  C   UNL     1       1.929   4.656  20.098  0.00  0.00    +0.000 A 
ATOM      7  C   UNL     1       1.173   3.546  20.510  0.00  0.00    +0.000 A 
ATOM      8  C   UNL     1       0.726   2.606  19.579  0.00  0.00    +0.000 A 
ATOM      9  C   UNL     1       1.034   2.769  18.233  0.00  0.00    +0.000 A 
ATOM     10  C   UNL     1       1.803   3.857  17.817  0.00  0.00    +0.000 A 
ATOM     11  C   UNL     1       2.256   4.809  18.742  0.00  0.00    +0.000 A 
ATOM     12  N   UNL     1       3.003   5.952  18.325  0.00  0.00    +0.000 N 
ENDROOT
BRANCH  12  13
ATOM     13  C   UNL     1       3.982   5.780  17.249  0.00  0.00    +0.000 C 
BRANCH  13  14
ATOM     14  C   UNL     1       5.389   6.001  17.777  0.00  0.00    +0.000 A 
ATOM     15  C   UNL     1       5.876   5.270  18.873  0.00  0.00    +0.000 A 
ATOM     16  C   UNL     1       7.145   5.534  19.399  0.00  0.00    +0.000 A 
ATOM     17  C   UNL     1       7.946   6.525  18.833  0.00  0.00    +0.000 A 
ATOM     18  C   UNL     1       7.480   7.231  17.733  0.00  0.00    +0.000 A 
ATOM     19  F   UNL     1       8.248   8.179  17.180  0.00  0.00    +0.000 F 
ATOM     20  C   UNL     1       6.216   6.981  17.202  0.00  0.00    +0.000 A 
ENDBRANCH  13  14
ENDBRANCH  12  13
TORSDOF 2
ENDMDL
MODEL 2
REMARK VINA RESULT:      -7.8      2.599      5.463
REMARK  Name = 
REMARK  2 active torsions:
REMARK  status: ('A' for Active; 'I' for Inactive)
REMARK    1  A    between atoms: N_12  and  C_13
REMARK    2  A    between atoms: C_13  and  C_14
REMARK                            x       y       z     vdW  Elec       q    Type
REMARK                         _______ _______ _______ _____ _____    ______ ____
ROOT
ATOM      1  O   UNL     1       5.148   3.688  19.683  0.00  0.00    +0.000 OA
ATOM      2  C   UNL     1       5.575   4.627  19.006  0.00  0.00    +0.000 C 
ATOM      3  C   UNL     1       6.753   5.447  19.507  0.00  0.00    +0.000 C 
ATOM      4  C   UNL     1       7.802   5.923  18.514  0.00  0.00    +0.000 C 
ATOM      5  C   UNL     1       7.222   6.709  17.347  0.00  0.00    +0.000 C 
ATOM      6  C   UNL     1       6.653   5.752  16.337  0.00  0.00    +0.000 A 
ATOM      7  C   UNL     1       7.287   5.590  15.095  0.00  0.00    +0.000 A 
ATOM      8  C   UNL     1       6.804   4.668  14.164  0.00  0.00    +0.000 A 
ATOM      9  C   UNL     1       5.684   3.904  14.470  0.00  0.00    +0.000 A 
ATOM     10  C   UNL     1       5.033   4.073  15.693  0.00  0.00    +0.000 A 
ATOM     11  C   UNL     1       5.510   4.994  16.637  0.00  0.00    +0.000 A 
ATOM     12  N   UNL     1       4.883   5.144  17.911  0.00  0.00    +0.000 N 
ENDROOT
BRANCH  12  13
ATOM     13  C   UNL     1       3.422   5.059  17.974  0.00  0.00    +0.000 C 
BRANCH  13  14
ATOM     14  C   UNL     1       2.843   6.353  18.518  0.00  0.00    +0.000 A 
ATOM     15  C   UNL     1       2.331   6.426  19.824  0.00  0.00    +0.000 A 
ATOM     16  C   UNL     1       1.730   7.600  20.291  0.00  0.00    +0.000 A 
ATOM     17  C   UNL     1       1.641   8.718  19.462  0.00  0.00    +0.000 A 
ATOM     18  C   UNL     1       2.169   8.660  18.180  0.00  0.00    +0.000 A 
ATOM     19  F   UNL     1       2.093   9.733  17.383  0.00  0.00    +0.000 F 
ATOM     20  C   UNL     1       2.766   7.494  17.701  0.00  0.00    +0.000 A 
ENDBRANCH  13  14
ENDBRANCH  12  13
TORSDOF 2
ENDMDL
MODEL 3
REMARK VINA RESULT:      -7.8      2.846      5.668
REMARK  Name = 
REMARK  2 active torsions:
REMARK  status: ('A' for Active; 'I' for Inactive)
REMARK    1  A    between atoms: N_12  and  C_13
REMARK    2  A    between atoms: C_13  and  C_14
REMARK                            x       y       z     vdW  Elec       q    Type
REMARK                         _______ _______ _______ _____ _____    ______ ____
ROOT
ATOM      1  O   UNL     1       5.155   3.624  19.628  0.00  0.00    +0.000 OA
ATOM      2  C   UNL     1       5.570   4.578  18.966  0.00  0.00    +0.000 C 
ATOM      3  C   UNL     1       6.727   5.415  19.488  0.00  0.00    +0.000 C 
ATOM      4  C   UNL     1       7.775   5.923  18.510  0.00  0.00    +0.000 C 
ATOM      5  C   UNL     1       7.191   6.711  17.347  0.00  0.00    +0.000 C 
ATOM      6  C   UNL     1       6.651   5.755  16.320  0.00  0.00    +0.000 A 
ATOM      7  C   UNL     1       7.299   5.621  15.083  0.00  0.00    +0.000 A 
ATOM      8  C   UNL     1       6.843   4.701  14.137  0.00  0.00    +0.000 A 
ATOM      9  C   UNL     1       5.735   3.912  14.422  0.00  0.00    +0.000 A 
ATOM     10  C   UNL     1       5.070   4.053  15.641  0.00  0.00    +0.000 A 
ATOM     11  C   UNL     1       5.519   4.972  16.600  0.00  0.00    +0.000 A 
ATOM     12  N   UNL     1       4.878   5.095  17.870  0.00  0.00    +0.000 N 
ENDROOT
BRANCH  12  13
ATOM     13  C   UNL     1       3.419   4.981  17.918  0.00  0.00    +0.000 C 
BRANCH  13  14
ATOM     14  C   UNL     1       2.804   6.287  18.390  0.00  0.00    +0.000 A 
ATOM     15  C   UNL     1       2.760   7.413  17.551  0.00  0.00    +0.000 A 
ATOM     16  C   UNL     1       2.261   8.633  18.020  0.00  0.00    +0.000 A 
ATOM     17  C   UNL     1       1.792   8.741  19.328  0.00  0.00    +0.000 A 
ATOM     18  C   UNL     1       1.808   7.624  20.152  0.00  0.00    +0.000 A 
ATOM     19  F   UNL     1       1.352   7.721  21.408  0.00  0.00    +0.000 F 
ATOM     20  C   UNL     1       2.307   6.405  19.699  0.00  0.00    +0.000 A 
ENDBRANCH  13  14
ENDBRANCH  12  13
TORSDOF 2
ENDMDL
MODEL 4
REMARK VINA RESULT:      -7.7      1.005      1.469
REMARK  Name = 
REMARK  2 active torsions:
REMARK  status: ('A' for Active; 'I' for Inactive)
REMARK    1  A    between atoms: N_12  and  C_13
REMARK    2  A    between atoms: C_13  and  C_14
REMARK                            x       y       z     vdW  Elec       q    Type
REMARK                         _______ _______ _______ _____ _____    ______ ____
ROOT
ATOM      1  O   UNL     1       2.340   7.537  17.235  0.00  0.00    +0.000 OA
ATOM      2  C   UNL     1       2.506   6.918  18.289  0.00  0.00    +0.000 C 
ATOM      3  C   UNL     1       2.276   7.616  19.621  0.00  0.00    +0.000 C 
ATOM      4  C   UNL     1       1.624   6.847  20.759  0.00  0.00    +0.000 C 
ATOM      5  C   UNL     1       2.332   5.543  21.096  0.00  0.00    +0.000 C 
ATOM      6  C   UNL     1       1.927   4.486  20.106  0.00  0.00    +0.000 A 
ATOM      7  C   UNL     1       1.113   3.419  20.520  0.00  0.00    +0.000 A 
ATOM      8  C   UNL     1       0.683   2.457  19.603  0.00  0.00    +0.000 A 
ATOM      9  C   UNL     1       1.066   2.555  18.270  0.00  0.00    +0.000 A 
ATOM     10  C   UNL     1       1.892   3.600  17.854  0.00  0.00    +0.000 A 
ATOM     11  C   UNL     1       2.329   4.574  18.764  0.00  0.00    +0.000 A 
ATOM     12  N   UNL     1       3.135   5.675  18.343  0.00  0.00    +0.000 N 
ENDROOT
BRANCH  12  13
ATOM     13  C   UNL     1       4.162   5.428  17.329  0.00  0.00    +0.000 C 
BRANCH  13  14
ATOM     14  C   UNL     1       5.507   5.954  17.802  0.00  0.00    +0.000 A 
ATOM     15  C   UNL     1       6.178   6.966  17.096  0.00  0.00    +0.000 A 
ATOM     16  C   UNL     1       7.451   7.390  17.496  0.00  0.00    +0.000 A 
ATOM     17  C   UNL     1       8.062   6.815  18.609  0.00  0.00    +0.000 A 
ATOM     18  C   UNL     1       7.391   5.834  19.325  0.00  0.00    +0.000 A 
ATOM     19  F   UNL     1       7.972   5.284  20.399  0.00  0.00    +0.000 F 
ATOM     20  C   UNL     1       6.126   5.399  18.935  0.00  0.00    +0.000 A 
ENDBRANCH  13  14
ENDBRANCH  12  13
TORSDOF 2
ENDMDL
MODEL 5
REMARK VINA RESULT:      -7.2      3.222      5.995
REMARK  Name = 
REMARK  2 active torsions:
REMARK  status: ('A' for Active; 'I' for Inactive)
REMARK    1  A    between atoms: N_12  and  C_13
REMARK    2  A    between atoms: C_13  and  C_14
REMARK                            x       y       z     vdW  Elec       q    Type
REMARK                         _______ _______ _______ _____ _____    ______ ____
ROOT
ATOM      1  O   UNL     1       5.373   3.246  19.265  0.00  0.00    +0.000 OA
ATOM      2  C   UNL     1       5.616   4.286  18.648  0.00  0.00    +0.000 C 
ATOM      3  C   UNL     1       6.515   5.342  19.271  0.00  0.00    +0.000 C 
ATOM      4  C   UNL     1       7.498   6.095  18.388  0.00  0.00    +0.000 C 
ATOM      5  C   UNL     1       6.847   6.766  17.187  0.00  0.00    +0.000 C 
ATOM      6  C   UNL     1       6.615   5.743  16.111  0.00  0.00    +0.000 A 
ATOM      7  C   UNL     1       7.372   5.788  14.931  0.00  0.00    +0.000 A 
ATOM      8  C   UNL     1       7.207   4.815  13.942  0.00  0.00    +0.000 A 
ATOM      9  C   UNL     1       6.283   3.794  14.128  0.00  0.00    +0.000 A 
ATOM     10  C   UNL     1       5.509   3.753  15.289  0.00  0.00    +0.000 A 
ATOM     11  C   UNL     1       5.667   4.723  16.290  0.00  0.00    +0.000 A 
ATOM     12  N   UNL     1       4.916   4.667  17.503  0.00  0.00    +0.000 N 
ENDROOT
BRANCH  12  13
ATOM     13  C   UNL     1       3.519   4.233  17.429  0.00  0.00    +0.000 C 
BRANCH  13  14
ATOM     14  C   UNL     1       2.742   4.755  18.626  0.00  0.00    +0.000 A 
ATOM     15  C   UNL     1       2.695   6.128  18.916  0.00  0.00    +0.000 A 
ATOM     16  C   UNL     1       2.040   6.593  20.063  0.00  0.00    +0.000 A 
ATOM     17  C   UNL     1       1.417   5.692  20.926  0.00  0.00    +0.000 A 
ATOM     18  C   UNL     1       1.438   4.337  20.628  0.00  0.00    +0.000 A 
ATOM     19  F   UNL     1       0.835   3.469  21.451  0.00  0.00    +0.000 F 
ATOM     20  C   UNL     1       2.091   3.861  19.493  0.00  0.00    +0.000 A 
ENDBRANCH  13  14
ENDBRANCH  12  13
TORSDOF 2
ENDMDL
MODEL 6
REMARK VINA RESULT:      -7.0      2.869      4.822
REMARK  Name = 
REMARK  2 active torsions:
REMARK  status: ('A' for Active; 'I' for Inactive)
REMARK    1  A    between atoms: N_12  and  C_13
REMARK    2  A    between atoms: C_13  and  C_14
REMARK                            x       y       z     vdW  Elec       q    Type
REMARK                         _______ _______ _______ _____ _____    ______ ____
ROOT
ATOM      1  O   UNL     1       5.511   5.505  19.694  0.00  0.00    +0.000 OA
ATOM      2  C   UNL     1       4.536   5.238  18.987  0.00  0.00    +0.000 C 
ATOM      3  C   UNL     1       4.740   4.860  17.529  0.00  0.00    +0.000 C 
ATOM      4  C   UNL     1       3.875   3.769  16.917  0.00  0.00    +0.000 C 
ATOM      5  C   UNL     1       2.381   4.017  17.072  0.00  0.00    +0.000 C 
ATOM      6  C   UNL     1       1.954   3.624  18.459  0.00  0.00    +0.000 A 
ATOM      7  C   UNL     1       1.145   2.492  18.644  0.00  0.00    +0.000 A 
ATOM      8  C   UNL     1       0.781   2.081  19.928  0.00  0.00    +0.000 A 
ATOM      9  C   UNL     1       1.221   2.801  21.033  0.00  0.00    +0.000 A 
ATOM     10  C   UNL     1       2.007   3.941  20.858  0.00  0.00    +0.000 A 
ATOM     11  C   UNL     1       2.381   4.363  19.574  0.00  0.00    +0.000 A 
ATOM     12  N   UNL     1       3.224   5.499  19.381  0.00  0.00    +0.000 N 
ENDROOT
BRANCH  12  13
ATOM     13  C   UNL     1       3.034   6.654  20.262  0.00  0.00    +0.000 C 
BRANCH  13  14
ATOM     14  C   UNL     1       2.195   7.713  19.568  0.00  0.00    +0.000 A 
ATOM     15  C   UNL     1       2.301   7.930  18.184  0.00  0.00    +0.000 A 
ATOM     16  C   UNL     1       1.581   8.958  17.566  0.00  0.00    +0.000 A 
ATOM     17  C   UNL     1       0.742   9.776  18.320  0.00  0.00    +0.000 A 
ATOM     18  C   UNL     1       0.613   9.549  19.683  0.00  0.00    +0.000 A 
ATOM     19  F   UNL     1      -0.198  10.328  20.411  0.00  0.00    +0.000 F 
ATOM     20  C   UNL     1       1.328   8.531  20.312  0.00  0.00    +0.000 A 
ENDBRANCH  13  14
ENDBRANCH  12  13
TORSDOF 2
ENDMDL
MODEL 7
REMARK VINA RESULT:      -6.9      3.313      5.845
REMARK  Name = 
REMARK  2 active torsions:
REMARK  status: ('A' for Active; 'I' for Inactive)
REMARK    1  A    between atoms: N_12  and  C_13
REMARK    2  A    between atoms: C_13  and  C_14
REMARK                            x       y       z     vdW  Elec       q    Type
REMARK                         _______ _______ _______ _____ _____    ______ ____
ROOT
ATOM      1  O   UNL     1       8.374   4.832  19.347  0.00  0.00    +0.000 OA
ATOM      2  C   UNL     1       7.535   5.503  18.740  0.00  0.00    +0.000 C 
ATOM      3  C   UNL     1       7.738   7.001  18.577  0.00  0.00    +0.000 C 
ATOM      4  C   UNL     1       7.349   7.664  17.265  0.00  0.00    +0.000 C 
ATOM      5  C   UNL     1       5.909   7.398  16.852  0.00  0.00    +0.000 C 
ATOM      6  C   UNL     1       5.814   6.033  16.229  0.00  0.00    +0.000 A 
ATOM      7  C   UNL     1       5.568   5.912  14.852  0.00  0.00    +0.000 A 
ATOM      8  C   UNL     1       5.529   4.655  14.245  0.00  0.00    +0.000 A 
ATOM      9  C   UNL     1       5.733   3.513  15.011  0.00  0.00    +0.000 A 
ATOM     10  C   UNL     1       5.957   3.622  16.385  0.00  0.00    +0.000 A 
ATOM     11  C   UNL     1       6.001   4.879  17.006  0.00  0.00    +0.000 A 
ATOM     12  N   UNL     1       6.276   5.009  18.401  0.00  0.00    +0.000 N 
ENDROOT
BRANCH  12  13
ATOM     13  C   UNL     1       5.709   4.010  19.310  0.00  0.00    +0.000 C 
BRANCH  13  14
ATOM     14  C   UNL     1       4.252   4.328  19.599  0.00  0.00    +0.000 A 
ATOM     15  C   UNL     1       3.772   5.647  19.537  0.00  0.00    +0.000 A 
ATOM     16  C   UNL     1       2.446   5.940  19.879  0.00  0.00    +0.000 A 
ATOM     17  C   UNL     1       1.584   4.919  20.277  0.00  0.00    +0.000 A 
ATOM     18  C   UNL     1       2.047   3.611  20.313  0.00  0.00    +0.000 A 
ATOM     19  F   UNL     1       1.220   2.626  20.687  0.00  0.00    +0.000 F 
ATOM     20  C   UNL     1       3.365   3.306  19.980  0.00  0.00    +0.000 A 
ENDBRANCH  13  14
ENDBRANCH  12  13
TORSDOF 2
ENDMDL
MODEL 8
REMARK VINA RESULT:      -6.9      1.340      1.397
REMARK  Name = 
REMARK  2 active torsions:
REMARK  status: ('A' for Active; 'I' for Inactive)
REMARK    1  A    between atoms: N_12  and  C_13
REMARK    2  A    between atoms: C_13  and  C_14
REMARK                            x       y       z     vdW  Elec       q    Type
REMARK                         _______ _______ _______ _____ _____    ______ ____
ROOT
ATOM      1  O   UNL     1       1.632   8.528  17.611  0.00  0.00    +0.000 OA
ATOM      2  C   UNL     1       2.002   7.794  18.532  0.00  0.00    +0.000 C 
ATOM      3  C   UNL     1       1.797   8.229  19.974  0.00  0.00    +0.000 C 
ATOM      4  C   UNL     1       1.396   7.192  21.012  0.00  0.00    +0.000 C 
ATOM      5  C   UNL     1       2.335   5.997  21.073  0.00  0.00    +0.000 C 
ATOM      6  C   UNL     1       2.008   5.049  19.953  0.00  0.00    +0.000 A 
ATOM      7  C   UNL     1       1.424   3.806  20.240  0.00  0.00    +0.000 A 
ATOM      8  C   UNL     1       1.065   2.934  19.209  0.00  0.00    +0.000 A 
ATOM      9  C   UNL     1       1.290   3.301  17.887  0.00  0.00    +0.000 A 
ATOM     10  C   UNL     1       1.891   4.525  17.593  0.00  0.00    +0.000 A 
ATOM     11  C   UNL     1       2.254   5.410  18.618  0.00  0.00    +0.000 A 
ATOM     12  N   UNL     1       2.825   6.687  18.330  0.00  0.00    +0.000 N 
ENDROOT
BRANCH  12  13
ATOM     13  C   UNL     1       3.771   6.782  17.216  0.00  0.00    +0.000 C 
BRANCH  13  14
ATOM     14  C   UNL     1       5.051   6.033  17.547  0.00  0.00    +0.000 A 
ATOM     15  C   UNL     1       5.558   6.006  18.856  0.00  0.00    +0.000 A 
ATOM     16  C   UNL     1       6.777   5.378  19.137  0.00  0.00    +0.000 A 
ATOM     17  C   UNL     1       7.498   4.762  18.115  0.00  0.00    +0.000 A 
ATOM     18  C   UNL     1       6.988   4.763  16.824  0.00  0.00    +0.000 A 
ATOM     19  F   UNL     1       7.674   4.166  15.841  0.00  0.00    +0.000 F 
ATOM     20  C   UNL     1       5.778   5.389  16.531  0.00  0.00    +0.000 A 
ENDBRANCH  13  14
ENDBRANCH  12  13
TORSDOF 2
ENDMDL
MODEL 9
REMARK VINA RESULT:      -6.8      1.384      1.619
REMARK  Name = 
REMARK  2 active torsions:
REMARK  status: ('A' for Active; 'I' for Inactive)
REMARK    1  A    between atoms: N_12  and  C_13
REMARK    2  A    between atoms: C_13  and  C_14
REMARK                            x       y       z     vdW  Elec       q    Type
REMARK                         _______ _______ _______ _____ _____    ______ ____
ROOT
ATOM      1  O   UNL     1       1.808   8.175  17.598  0.00  0.00    +0.000 OA
ATOM      2  C   UNL     1       2.236   7.406  18.462  0.00  0.00    +0.000 C 
ATOM      3  C   UNL     1       1.928   7.668  19.928  0.00  0.00    +0.000 C 
ATOM      4  C   UNL     1       1.627   6.493  20.846  0.00  0.00    +0.000 C 
ATOM      5  C   UNL     1       2.708   5.423  20.838  0.00  0.00    +0.000 C 
ATOM      6  C   UNL     1       2.543   4.557  19.620  0.00  0.00    +0.000 A 
ATOM      7  C   UNL     1       2.112   3.229  19.763  0.00  0.00    +0.000 A 
ATOM      8  C   UNL     1       1.902   2.425  18.640  0.00  0.00    +0.000 A 
ATOM      9  C   UNL     1       2.124   2.944  17.370  0.00  0.00    +0.000 A 
ATOM     10  C   UNL     1       2.574   4.257  17.219  0.00  0.00    +0.000 A 
ATOM     11  C   UNL     1       2.786   5.075  18.338  0.00  0.00    +0.000 A 
ATOM     12  N   UNL     1       3.200   6.434  18.197  0.00  0.00    +0.000 N 
ENDROOT
BRANCH  12  13
ATOM     13  C   UNL     1       4.164   6.754  17.142  0.00  0.00    +0.000 C 
BRANCH  13  14
ATOM     14  C   UNL     1       5.478   6.033  17.392  0.00  0.00    +0.000 A 
ATOM     15  C   UNL     1       6.046   5.201  16.414  0.00  0.00    +0.000 A 
ATOM     16  C   UNL     1       7.216   4.481  16.681  0.00  0.00    +0.000 A 
ATOM     17  C   UNL     1       7.836   4.592  17.924  0.00  0.00    +0.000 A 
ATOM     18  C   UNL     1       7.294   5.433  18.885  0.00  0.00    +0.000 A 
ATOM     19  F   UNL     1       7.890   5.548  20.079  0.00  0.00    +0.000 F 
ATOM     20  C   UNL     1       6.126   6.151  18.633  0.00  0.00    +0.000 A 
ENDBRANCH  13  14
ENDBRANCH  12  13
TORSDOF 2
ENDMDL
