MODEL 1
REMARK VINA RESULT:      -9.7      0.000      0.000
REMARK  Name = 
REMARK  6 active torsions:
REMARK  status: ('A' for Active; 'I' for Inactive)
REMARK    1  A    between atoms: C_2  and  C_4
REMARK    2  A    between atoms: C_9  and  N_10
REMARK    3  A    between atoms: N_10  and  C_11
REMARK    4  A    between atoms: C_13  and  O_14
REMARK    5  A    between atoms: O_14  and  C_15
REMARK    6  A    between atoms: C_24  and  C_25
REMARK                            x       y       z     vdW  Elec       q    Type
REMARK                         _______ _______ _______ _____ _____    ______ ____
ROOT
ATOM      1  C   UNL     1       3.105   4.990  20.070  0.00  0.00    +0.000 A 
ATOM      2  C   UNL     1       4.443   5.034  19.643  0.00  0.00    +0.000 A 
ATOM      3  C   UNL     1       5.011   3.916  19.060  0.00  0.00    +0.000 A 
ATOM      4  N   UNL     1       4.354   2.751  18.906  0.00  0.00    +0.000 NA
ATOM      5  C   UNL     1       3.092   2.700  19.379  0.00  0.00    +0.000 A 
ATOM      6  C   UNL     1       2.418   3.774  19.959  0.00  0.00    +0.000 A 
ENDROOT
BRANCH   6   7
ATOM      7  C   UNL     1       1.005   3.543  20.385  0.00  0.00    +0.000 C 
ATOM      8  F   UNL     1       0.272   4.685  20.513  0.00  0.00    +0.000 F 
ATOM      9  F   UNL     1       0.319   2.754  19.513  0.00  0.00    +0.000 F 
ATOM     10  F   UNL     1       0.925   2.918  21.593  0.00  0.00    +0.000 F 
ENDBRANCH   6   7
BRANCH   1  11
ATOM     11  N   UNL     1       2.481   6.191  20.502  0.00  0.00    +0.000 N 
ATOM     12  H   UNL     1       1.752   6.071  21.213  0.00  0.00    +0.000 HD
BRANCH  11  18
ATOM     13  C   UNL     1       1.412   8.414  20.138  0.00  0.00    +0.000 A 
ATOM     14  C   UNL     1       1.179   9.508  19.278  0.00  0.00    +0.000 A 
ATOM     15  C   UNL     1       1.680   9.524  17.975  0.00  0.00    +0.000 A 
ATOM     16  C   UNL     1       2.399   8.438  17.505  0.00  0.00    +0.000 A 
ATOM     17  C   UNL     1       2.630   7.348  18.342  0.00  0.00    +0.000 A 
ATOM     18  C   UNL     1       2.171   7.316  19.677  0.00  0.00    +0.000 A 
BRANCH  13  20
ATOM     19  N   UNL     1       1.586   8.967  22.519  0.00  0.00    +0.000 N 
ATOM     20  C   UNL     1       0.800   8.526  21.494  0.00  0.00    +0.000 C 
ATOM     21  O   UNL     1      -0.383   8.276  21.691  0.00  0.00    +0.000 OA
ATOM     22  H   UNL     1       1.120   9.168  23.396  0.00  0.00    +0.000 HD
ATOM     23  H   UNL     1       2.491   9.381  22.341  0.00  0.00    +0.000 HD
ENDBRANCH  13  20
ENDBRANCH  11  18
ENDBRANCH   1  11
BRANCH   3  24
ATOM     24  O   UNL     1       6.283   4.080  18.524  0.00  0.00    +0.000 OA
BRANCH  24  25
ATOM     25  C   UNL     1       6.721   5.360  18.274  0.00  0.00    +0.000 A 
ATOM     26  C   UNL     1       7.781   5.831  19.056  0.00  0.00    +0.000 A 
ATOM     27  C   UNL     1       8.314   7.098  18.812  0.00  0.00    +0.000 A 
ATOM     28  C   UNL     1       7.790   7.874  17.783  0.00  0.00    +0.000 A 
ATOM     29  F   UNL     1       8.303   9.089  17.546  0.00  0.00    +0.000 F 
ATOM     30  C   UNL     1       6.751   7.406  16.987  0.00  0.00    +0.000 A 
ATOM     31  C   UNL     1       6.223   6.139  17.225  0.00  0.00    +0.000 A 
ENDBRANCH  24  25
ENDBRANCH   3  24
TORSDOF 6
ENDMDL
MODEL 2
REMARK VINA RESULT:      -9.6      0.190      1.171
REMARK  Name = 
REMARK  6 active torsions:
REMARK  status: ('A' for Active; 'I' for Inactive)
REMARK    1  A    between atoms: C_2  and  C_4
REMARK    2  A    between atoms: C_9  and  N_10
REMARK    3  A    between atoms: N_10  and  C_11
REMARK    4  A    between atoms: C_13  and  O_14
REMARK    5  A    between atoms: O_14  and  C_15
REMARK    6  A    between atoms: C_24  and  C_25
REMARK                            x       y       z     vdW  Elec       q    Type
REMARK                         _______ _______ _______ _____ _____    ______ ____
ROOT
ATOM      1  C   UNL     1       3.120   4.918  20.086  0.00  0.00    +0.000 A 
ATOM      2  C   UNL     1       4.462   4.935  19.668  0.00  0.00    +0.000 A 
ATOM      3  C   UNL     1       5.015   3.803  19.099  0.00  0.00    +0.000 A 
ATOM      4  N   UNL     1       4.339   2.647  18.951  0.00  0.00    +0.000 NA
ATOM      5  C   UNL     1       3.073   2.623  19.415  0.00  0.00    +0.000 A 
ATOM      6  C   UNL     1       2.413   3.714  19.981  0.00  0.00    +0.000 A 
ENDROOT
BRANCH   6   7
ATOM      7  C   UNL     1       0.994   3.510  20.399  0.00  0.00    +0.000 C 
ATOM      8  F   UNL     1       0.269   2.741  19.536  0.00  0.00    +0.000 F 
ATOM      9  F   UNL     1       0.888   2.907  21.615  0.00  0.00    +0.000 F 
ATOM     10  F   UNL     1       0.313   4.684  20.506  0.00  0.00    +0.000 F 
ENDBRANCH   6   7
BRANCH   1  11
ATOM     11  N   UNL     1       2.515   6.133  20.503  0.00  0.00    +0.000 N 
ATOM     12  H   UNL     1       1.786   6.034  21.218  0.00  0.00    +0.000 HD
BRANCH  11  18
ATOM     13  C   UNL     1       1.473   8.365  20.110  0.00  0.00    +0.000 A 
ATOM     14  C   UNL     1       1.252   9.450  19.235  0.00  0.00    +0.000 A 
ATOM     15  C   UNL     1       1.749   9.441  17.931  0.00  0.00    +0.000 A 
ATOM     16  C   UNL     1       2.453   8.339  17.474  0.00  0.00    +0.000 A 
ATOM     17  C   UNL     1       2.673   7.258  18.326  0.00  0.00    +0.000 A 
ATOM     18  C   UNL     1       2.217   7.251  19.663  0.00  0.00    +0.000 A 
BRANCH  13  20
ATOM     19  N   UNL     1       1.657   8.962  22.480  0.00  0.00    +0.000 N 
ATOM     20  C   UNL     1       0.866   8.504  21.466  0.00  0.00    +0.000 C 
ATOM     21  O   UNL     1      -0.316   8.260  21.672  0.00  0.00    +0.000 OA
ATOM     22  H   UNL     1       1.195   9.180  23.355  0.00  0.00    +0.000 HD
ATOM     23  H   UNL     1       2.562   9.370  22.291  0.00  0.00    +0.000 HD
ENDBRANCH  13  20
ENDBRANCH  11  18
ENDBRANCH   1  11
BRANCH   3  24
ATOM     24  O   UNL     1       6.294   3.941  18.571  0.00  0.00    +0.000 OA
BRANCH  24  25
ATOM     25  C   UNL     1       6.735   5.207  18.263  0.00  0.00    +0.000 A 
ATOM     26  C   UNL     1       6.012   5.912  17.295  0.00  0.00    +0.000 A 
ATOM     27  C   UNL     1       6.369   7.225  16.982  0.00  0.00    +0.000 A 
ATOM     28  C   UNL     1       7.435   7.821  17.647  0.00  0.00    +0.000 A 
ATOM     29  F   UNL     1       7.776   9.081  17.348  0.00  0.00    +0.000 F 
ATOM     30  C   UNL     1       8.146   7.136  18.624  0.00  0.00    +0.000 A 
ATOM     31  C   UNL     1       7.786   5.828  18.944  0.00  0.00    +0.000 A 
ENDBRANCH  24  25
ENDBRANCH   3  24
TORSDOF 6
ENDMDL
MODEL 3
REMARK VINA RESULT:      -9.4      2.498      5.919
REMARK  Name = 
REMARK  6 active torsions:
REMARK  status: ('A' for Active; 'I' for Inactive)
REMARK    1  A    between atoms: C_2  and  C_4
REMARK    2  A    between atoms: C_9  and  N_10
REMARK    3  A    between atoms: N_10  and  C_11
REMARK    4  A    between atoms: C_13  and  O_14
REMARK    5  A    between atoms: O_14  and  C_15
REMARK    6  A    between atoms: C_24  and  C_25
REMARK                            x       y       z     vdW  Elec       q    Type
REMARK                         _______ _______ _______ _____ _____    ______ ____
ROOT
ATOM      1  C   UNL     1       3.595   4.395  19.240  0.00  0.00    +0.000 A 
ATOM      2  C   UNL     1       3.395   5.713  19.685  0.00  0.00    +0.000 A 
ATOM      3  C   UNL     1       2.172   6.076  20.219  0.00  0.00    +0.000 A 
ATOM      4  N   UNL     1       1.126   5.231  20.306  0.00  0.00    +0.000 NA
ATOM      5  C   UNL     1       1.310   3.988  19.816  0.00  0.00    +0.000 A 
ATOM      6  C   UNL     1       2.508   3.514  19.282  0.00  0.00    +0.000 A 
ENDROOT
BRANCH   6   7
ATOM      7  C   UNL     1       2.535   2.092  18.827  0.00  0.00    +0.000 C 
ATOM      8  F   UNL     1       3.661   1.416  19.195  0.00  0.00    +0.000 F 
ATOM      9  F   UNL     1       1.490   1.367  19.313  0.00  0.00    +0.000 F 
ATOM     10  F   UNL     1       2.467   1.980  17.471  0.00  0.00    +0.000 F 
ENDBRANCH   6   7
BRANCH   1  11
ATOM     11  N   UNL     1       4.902   3.990  18.861  0.00  0.00    +0.000 N 
ATOM     12  H   UNL     1       5.576   3.916  19.631  0.00  0.00    +0.000 HD
BRANCH  11  18
ATOM     13  C   UNL     1       6.738   5.176  17.660  0.00  0.00    +0.000 A 
ATOM     14  C   UNL     1       7.377   5.476  16.438  0.00  0.00    +0.000 A 
ATOM     15  C   UNL     1       6.882   4.993  15.226  0.00  0.00    +0.000 A 
ATOM     16  C   UNL     1       5.729   4.225  15.214  0.00  0.00    +0.000 A 
ATOM     17  C   UNL     1       5.085   3.928  16.413  0.00  0.00    +0.000 A 
ATOM     18  C   UNL     1       5.581   4.367  17.661  0.00  0.00    +0.000 A 
BRANCH  13  20
ATOM     19  N   UNL     1       8.154   6.880  18.709  0.00  0.00    +0.000 N 
ATOM     20  C   UNL     1       7.367   5.777  18.873  0.00  0.00    +0.000 C 
ATOM     21  O   UNL     1       7.159   5.333  19.995  0.00  0.00    +0.000 OA
ATOM     22  H   UNL     1       8.457   7.353  19.553  0.00  0.00    +0.000 HD
ATOM     23  H   UNL     1       8.165   7.387  17.835  0.00  0.00    +0.000 HD
ENDBRANCH  13  20
ENDBRANCH  11  18
ENDBRANCH   1  11
BRANCH   3  24
ATOM     24  O   UNL     1       2.096   7.347  20.778  0.00  0.00    +0.000 OA
BRANCH  24  25
ATOM     25  C   UNL     1       1.428   8.324  20.077  0.00  0.00    +0.000 A 
ATOM     26  C   UNL     1       0.477   9.071  20.781  0.00  0.00    +0.000 A 
ATOM     27  C   UNL     1      -0.191  10.119  20.145  0.00  0.00    +0.000 A 
ATOM     28  C   UNL     1       0.106  10.415  18.819  0.00  0.00    +0.000 A 
ATOM     29  F   UNL     1      -0.533  11.422  18.209  0.00  0.00    +0.000 F 
ATOM     30  C   UNL     1       1.064   9.692  18.118  0.00  0.00    +0.000 A 
ATOM     31  C   UNL     1       1.737   8.650  18.753  0.00  0.00    +0.000 A 
ENDBRANCH  24  25
ENDBRANCH   3  24
TORSDOF 6
ENDMDL
MODEL 4
REMARK VINA RESULT:      -9.4      2.493      5.931
REMARK  Name = 
REMARK  6 active torsions:
REMARK  status: ('A' for Active; 'I' for Inactive)
REMARK    1  A    between atoms: C_2  and  C_4
REMARK    2  A    between atoms: C_9  and  N_10
REMARK    3  A    between atoms: N_10  and  C_11
REMARK    4  A    between atoms: C_13  and  O_14
REMARK    5  A    between atoms: O_14  and  C_15
REMARK    6  A    between atoms: C_24  and  C_25
REMARK                            x       y       z     vdW  Elec       q    Type
REMARK                         _______ _______ _______ _____ _____    ______ ____
ROOT
ATOM      1  C   UNL     1       3.544   4.415  19.141  0.00  0.00    +0.000 A 
ATOM      2  C   UNL     1       3.415   5.739  19.595  0.00  0.00    +0.000 A 
ATOM      3  C   UNL     1       2.221   6.156  20.153  0.00  0.00    +0.000 A 
ATOM      4  N   UNL     1       1.138   5.361  20.257  0.00  0.00    +0.000 NA
ATOM      5  C   UNL     1       1.253   4.114  19.759  0.00  0.00    +0.000 A 
ATOM      6  C   UNL     1       2.417   3.586  19.200  0.00  0.00    +0.000 A 
ENDROOT
BRANCH   6   7
ATOM      7  C   UNL     1       2.368   2.166  18.740  0.00  0.00    +0.000 C 
ATOM      8  F   UNL     1       2.513   2.017  17.392  0.00  0.00    +0.000 F 
ATOM      9  F   UNL     1       3.340   1.399  19.307  0.00  0.00    +0.000 F 
ATOM     10  F   UNL     1       1.188   1.561  19.051  0.00  0.00    +0.000 F 
ENDBRANCH   6   7
BRANCH   1  11
ATOM     11  N   UNL     1       4.823   3.950  18.735  0.00  0.00    +0.000 N 
ATOM     12  H   UNL     1       5.489   3.786  19.498  0.00  0.00    +0.000 HD
BRANCH  11  18
ATOM     13  C   UNL     1       6.690   5.154  17.602  0.00  0.00    +0.000 A 
ATOM     14  C   UNL     1       7.354   5.482  16.401  0.00  0.00    +0.000 A 
ATOM     15  C   UNL     1       6.878   5.039  15.167  0.00  0.00    +0.000 A 
ATOM     16  C   UNL     1       5.719   4.281  15.112  0.00  0.00    +0.000 A 
ATOM     17  C   UNL     1       5.051   3.956  16.290  0.00  0.00    +0.000 A 
ATOM     18  C   UNL     1       5.526   4.355  17.558  0.00  0.00    +0.000 A 
BRANCH  13  20
ATOM     19  N   UNL     1       8.129   6.793  18.721  0.00  0.00    +0.000 N 
ATOM     20  C   UNL     1       7.301   5.714  18.843  0.00  0.00    +0.000 C 
ATOM     21  O   UNL     1       7.043   5.261  19.951  0.00  0.00    +0.000 OA
ATOM     22  H   UNL     1       8.422   7.242  19.581  0.00  0.00    +0.000 HD
ATOM     23  H   UNL     1       8.185   7.312  17.855  0.00  0.00    +0.000 HD
ENDBRANCH  13  20
ENDBRANCH  11  18
ENDBRANCH   1  11
BRANCH   3  24
ATOM     24  O   UNL     1       2.215   7.427  20.718  0.00  0.00    +0.000 OA
BRANCH  24  25
ATOM     25  C   UNL     1       1.479   8.409  20.098  0.00  0.00    +0.000 A 
ATOM     26  C   UNL     1       1.732   8.627  18.739  0.00  0.00    +0.000 A 
ATOM     27  C   UNL     1       0.976   9.566  18.035  0.00  0.00    +0.000 A 
ATOM     28  C   UNL     1      -0.030  10.266  18.692  0.00  0.00    +0.000 A 
ATOM     29  F   UNL     1      -0.757  11.166  18.016  0.00  0.00    +0.000 F 
ATOM     30  C   UNL     1      -0.302  10.042  20.036  0.00  0.00    +0.000 A 
ATOM     31  C   UNL     1       0.446   9.099  20.739  0.00  0.00    +0.000 A 
ENDBRANCH  24  25
ENDBRANCH   3  24
TORSDOF 6
ENDMDL
MODEL 5
REMARK VINA RESULT:      -9.2      2.447      6.224
REMARK  Name = 
REMARK  6 active torsions:
REMARK  status: ('A' for Active; 'I' for Inactive)
REMARK    1  A    between atoms: C_2  and  C_4
REMARK    2  A    between atoms: C_9  and  N_10
REMARK    3  A    between atoms: N_10  and  C_11
REMARK    4  A    between atoms: C_13  and  O_14
REMARK    5  A    between atoms: O_14  and  C_15
REMARK    6  A    between atoms: C_24  and  C_25
REMARK                            x       y       z     vdW  Elec       q    Type
REMARK                         _______ _______ _______ _____ _____    ______ ____
ROOT
ATOM      1  C   UNL     1       3.519   4.785  19.494  0.00  0.00    +0.000 A 
ATOM      2  C   UNL     1       3.280   6.152  19.268  0.00  0.00    +0.000 A 
ATOM      3  C   UNL     1       2.200   6.765  19.876  0.00  0.00    +0.000 A 
ATOM      4  N   UNL     1       1.324   6.108  20.660  0.00  0.00    +0.000 NA
ATOM      5  C   UNL     1       1.527   4.784  20.816  0.00  0.00    +0.000 A 
ATOM      6  C   UNL     1       2.595   4.074  20.270  0.00  0.00    +0.000 A 
ENDROOT
BRANCH   6   7
ATOM      7  C   UNL     1       2.680   2.618  20.588  0.00  0.00    +0.000 C 
ATOM      8  F   UNL     1       3.844   2.251  21.195  0.00  0.00    +0.000 F 
ATOM      9  F   UNL     1       1.680   2.204  21.415  0.00  0.00    +0.000 F 
ATOM     10  F   UNL     1       2.586   1.839  19.474  0.00  0.00    +0.000 F 
ENDBRANCH   6   7
BRANCH   1  11
ATOM     11  N   UNL     1       4.725   4.210  19.010  0.00  0.00    +0.000 N 
ATOM     12  H   UNL     1       5.425   3.998  19.729  0.00  0.00    +0.000 HD
BRANCH  11  18
ATOM     13  C   UNL     1       6.596   5.258  17.738  0.00  0.00    +0.000 A 
ATOM     14  C   UNL     1       7.203   5.517  16.491  0.00  0.00    +0.000 A 
ATOM     15  C   UNL     1       6.619   5.088  15.298  0.00  0.00    +0.000 A 
ATOM     16  C   UNL     1       5.409   4.415  15.332  0.00  0.00    +0.000 A 
ATOM     17  C   UNL     1       4.796   4.158  16.557  0.00  0.00    +0.000 A 
ATOM     18  C   UNL     1       5.378   4.544  17.784  0.00  0.00    +0.000 A 
BRANCH  13  20
ATOM     19  N   UNL     1       8.181   6.839  18.736  0.00  0.00    +0.000 N 
ATOM     20  C   UNL     1       7.323   5.793  18.925  0.00  0.00    +0.000 C 
ATOM     21  O   UNL     1       7.136   5.350  20.051  0.00  0.00    +0.000 OA
ATOM     22  H   UNL     1       8.556   7.276  19.569  0.00  0.00    +0.000 HD
ATOM     23  H   UNL     1       8.188   7.356  17.867  0.00  0.00    +0.000 HD
ENDBRANCH  13  20
ENDBRANCH  11  18
ENDBRANCH   1  11
BRANCH   3  24
ATOM     24  O   UNL     1       2.115   8.146  19.733  0.00  0.00    +0.000 OA
BRANCH  24  25
ATOM     25  C   UNL     1       1.217   8.825  20.522  0.00  0.00    +0.000 A 
ATOM     26  C   UNL     1       1.376   8.708  21.907  0.00  0.00    +0.000 A 
ATOM     27  C   UNL     1       0.536   9.422  22.764  0.00  0.00    +0.000 A 
ATOM     28  C   UNL     1      -0.444  10.252  22.229  0.00  0.00    +0.000 A 
ATOM     29  F   UNL     1      -1.249  10.938  23.051  0.00  0.00    +0.000 F 
ATOM     30  C   UNL     1      -0.596  10.390  20.854  0.00  0.00    +0.000 A 
ATOM     31  C   UNL     1       0.246   9.684  19.997  0.00  0.00    +0.000 A 
ENDBRANCH  24  25
ENDBRANCH   3  24
TORSDOF 6
ENDMDL
MODEL 6
REMARK VINA RESULT:      -9.1      1.718      2.146
REMARK  Name = 
REMARK  6 active torsions:
REMARK  status: ('A' for Active; 'I' for Inactive)
REMARK    1  A    between atoms: C_2  and  C_4
REMARK    2  A    between atoms: C_9  and  N_10
REMARK    3  A    between atoms: N_10  and  C_11
REMARK    4  A    between atoms: C_13  and  O_14
REMARK    5  A    between atoms: O_14  and  C_15
REMARK    6  A    between atoms: C_24  and  C_25
REMARK                            x       y       z     vdW  Elec       q    Type
REMARK                         _______ _______ _______ _____ _____    ______ ____
ROOT
ATOM      1  C   UNL     1       2.961   5.059  20.118  0.00  0.00    +0.000 A 
ATOM      2  C   UNL     1       4.289   5.170  19.669  0.00  0.00    +0.000 A 
ATOM      3  C   UNL     1       4.910   4.075  19.097  0.00  0.00    +0.000 A 
ATOM      4  N   UNL     1       4.318   2.872  18.976  0.00  0.00    +0.000 NA
ATOM      5  C   UNL     1       3.068   2.760  19.469  0.00  0.00    +0.000 A 
ATOM      6  C   UNL     1       2.343   3.805  20.041  0.00  0.00    +0.000 A 
ENDROOT
BRANCH   6   7
ATOM      7  C   UNL     1       0.952   3.502  20.493  0.00  0.00    +0.000 C 
ATOM      8  F   UNL     1       0.887   2.907  21.718  0.00  0.00    +0.000 F 
ATOM      9  F   UNL     1       0.175   4.617  20.578  0.00  0.00    +0.000 F 
ATOM     10  F   UNL     1       0.303   2.661  19.641  0.00  0.00    +0.000 F 
ENDBRANCH   6   7
BRANCH   1  11
ATOM     11  N   UNL     1       2.278   6.231  20.537  0.00  0.00    +0.000 N 
ATOM     12  H   UNL     1       1.488   6.071  21.173  0.00  0.00    +0.000 HD
BRANCH  11  18
ATOM     13  C   UNL     1       1.238   8.470  20.181  0.00  0.00    +0.000 A 
ATOM     14  C   UNL     1       1.063   9.593  19.345  0.00  0.00    +0.000 A 
ATOM     15  C   UNL     1       1.644   9.650  18.077  0.00  0.00    +0.000 A 
ATOM     16  C   UNL     1       2.388   8.576  17.617  0.00  0.00    +0.000 A 
ATOM     17  C   UNL     1       2.564   7.458  18.430  0.00  0.00    +0.000 A 
ATOM     18  C   UNL     1       2.023   7.385  19.733  0.00  0.00    +0.000 A 
BRANCH  13  20
ATOM     19  N   UNL     1       1.086   9.330  22.471  0.00  0.00    +0.000 N 
ATOM     20  C   UNL     1       0.543   8.540  21.499  0.00  0.00    +0.000 C 
ATOM     21  O   UNL     1      -0.509   7.948  21.707  0.00  0.00    +0.000 OA
ATOM     22  H   UNL     1       0.530   9.474  23.306  0.00  0.00    +0.000 HD
ATOM     23  H   UNL     1       1.823   9.989  22.256  0.00  0.00    +0.000 HD
ENDBRANCH  13  20
ENDBRANCH  11  18
ENDBRANCH   1  11
BRANCH   3  24
ATOM     24  O   UNL     1       6.163   4.301  18.538  0.00  0.00    +0.000 OA
BRANCH  24  25
ATOM     25  C   UNL     1       6.248   4.435  17.172  0.00  0.00    +0.000 A 
ATOM     26  C   UNL     1       7.479   4.848  16.651  0.00  0.00    +0.000 A 
ATOM     27  C   UNL     1       7.651   4.944  15.269  0.00  0.00    +0.000 A 
ATOM     28  C   UNL     1       6.596   4.616  14.424  0.00  0.00    +0.000 A 
ATOM     29  F   UNL     1       6.761   4.706  13.097  0.00  0.00    +0.000 F 
ATOM     30  C   UNL     1       5.376   4.185  14.931  0.00  0.00    +0.000 A 
ATOM     31  C   UNL     1       5.205   4.082  16.310  0.00  0.00    +0.000 A 
ENDBRANCH  24  25
ENDBRANCH   3  24
TORSDOF 6
ENDMDL
MODEL 7
REMARK VINA RESULT:      -9.0      1.780      2.217
REMARK  Name = 
REMARK  6 active torsions:
REMARK  status: ('A' for Active; 'I' for Inactive)
REMARK    1  A    between atoms: C_2  and  C_4
REMARK    2  A    between atoms: C_9  and  N_10
REMARK    3  A    between atoms: N_10  and  C_11
REMARK    4  A    between atoms: C_13  and  O_14
REMARK    5  A    between atoms: O_14  and  C_15
REMARK    6  A    between atoms: C_24  and  C_25
REMARK                            x       y       z     vdW  Elec       q    Type
REMARK                         _______ _______ _______ _____ _____    ______ ____
ROOT
ATOM      1  C   UNL     1       3.056   5.106  20.109  0.00  0.00    +0.000 A 
ATOM      2  C   UNL     1       4.382   5.208  19.656  0.00  0.00    +0.000 A 
ATOM      3  C   UNL     1       4.993   4.109  19.081  0.00  0.00    +0.000 A 
ATOM      4  N   UNL     1       4.391   2.910  18.959  0.00  0.00    +0.000 NA
ATOM      5  C   UNL     1       3.142   2.807  19.456  0.00  0.00    +0.000 A 
ATOM      6  C   UNL     1       2.427   3.857  20.032  0.00  0.00    +0.000 A 
ENDROOT
BRANCH   6   7
ATOM      7  C   UNL     1       1.036   3.564  20.488  0.00  0.00    +0.000 C 
ATOM      8  F   UNL     1       0.250   4.672  20.609  0.00  0.00    +0.000 F 
ATOM      9  F   UNL     1       0.373   2.727  19.642  0.00  0.00    +0.000 F 
ATOM     10  F   UNL     1       1.007   2.959  21.707  0.00  0.00    +0.000 F 
ENDBRANCH   6   7
BRANCH   1  11
ATOM     11  N   UNL     1       2.383   6.283  20.533  0.00  0.00    +0.000 N 
ATOM     12  H   UNL     1       1.629   6.132  21.213  0.00  0.00    +0.000 HD
BRANCH  11  18
ATOM     13  C   UNL     1       1.351   8.527  20.190  0.00  0.00    +0.000 A 
ATOM     14  C   UNL     1       1.118   9.623  19.333  0.00  0.00    +0.000 A 
ATOM     15  C   UNL     1       1.584   9.625  18.017  0.00  0.00    +0.000 A 
ATOM     16  C   UNL     1       2.268   8.523  17.532  0.00  0.00    +0.000 A 
ATOM     17  C   UNL     1       2.498   7.431  18.366  0.00  0.00    +0.000 A 
ATOM     18  C   UNL     1       2.074   7.412  19.713  0.00  0.00    +0.000 A 
BRANCH  13  20
ATOM     19  N   UNL     1       1.607   9.053  22.570  0.00  0.00    +0.000 N 
ATOM     20  C   UNL     1       0.777   8.656  21.562  0.00  0.00    +0.000 C 
ATOM     21  O   UNL     1      -0.410   8.457  21.786  0.00  0.00    +0.000 OA
ATOM     22  H   UNL     1       1.172   9.268  23.460  0.00  0.00    +0.000 HD
ATOM     23  H   UNL     1       2.525   9.427  22.373  0.00  0.00    +0.000 HD
ENDBRANCH  13  20
ENDBRANCH  11  18
ENDBRANCH   1  11
BRANCH   3  24
ATOM     24  O   UNL     1       6.247   4.325  18.518  0.00  0.00    +0.000 OA
BRANCH  24  25
ATOM     25  C   UNL     1       6.346   4.347  17.147  0.00  0.00    +0.000 A 
ATOM     26  C   UNL     1       5.209   3.971  16.423  0.00  0.00    +0.000 A 
ATOM     27  C   UNL     1       5.223   4.031  15.029  0.00  0.00    +0.000 A 
ATOM     28  C   UNL     1       6.367   4.476  14.374  0.00  0.00    +0.000 A 
ATOM     29  F   UNL     1       6.380   4.536  13.036  0.00  0.00    +0.000 F 
ATOM     30  C   UNL     1       7.494   4.871  15.085  0.00  0.00    +0.000 A 
ATOM     31  C   UNL     1       7.479   4.819  16.477  0.00  0.00    +0.000 A 
ENDBRANCH  24  25
ENDBRANCH   3  24
TORSDOF 6
ENDMDL
MODEL 8
REMARK VINA RESULT:      -9.0      2.432      6.115
REMARK  Name = 
REMARK  6 active torsions:
REMARK  status: ('A' for Active; 'I' for Inactive)
REMARK    1  A    between atoms: C_2  and  C_4
REMARK    2  A    between atoms: C_9  and  N_10
REMARK    3  A    between atoms: N_10  and  C_11
REMARK    4  A    between atoms: C_13  and  O_14
REMARK    5  A    between atoms: O_14  and  C_15
REMARK    6  A    between atoms: C_24  and  C_25
REMARK                            x       y       z     vdW  Elec       q    Type
REMARK                         _______ _______ _______ _____ _____    ______ ____
ROOT
ATOM      1  C   UNL     1       3.505   4.779  19.311  0.00  0.00    +0.000 A 
ATOM      2  C   UNL     1       3.390   6.130  18.941  0.00  0.00    +0.000 A 
ATOM      3  C   UNL     1       2.441   6.927  19.554  0.00  0.00    +0.000 A 
ATOM      4  N   UNL     1       1.577   6.466  20.479  0.00  0.00    +0.000 NA
ATOM      5  C   UNL     1       1.653   5.153  20.777  0.00  0.00    +0.000 A 
ATOM      6  C   UNL     1       2.588   4.269  20.238  0.00  0.00    +0.000 A 
ENDROOT
BRANCH   6   7
ATOM      7  C   UNL     1       2.548   2.857  20.723  0.00  0.00    +0.000 C 
ATOM      8  F   UNL     1       1.786   2.677  21.839  0.00  0.00    +0.000 F 
ATOM      9  F   UNL     1       2.054   1.997  19.790  0.00  0.00    +0.000 F 
ATOM     10  F   UNL     1       3.786   2.386  21.043  0.00  0.00    +0.000 F 
ENDBRANCH   6   7
BRANCH   1  11
ATOM     11  N   UNL     1       4.594   4.019  18.807  0.00  0.00    +0.000 N 
ATOM     12  H   UNL     1       5.200   3.600  19.521  0.00  0.00    +0.000 HD
BRANCH  11  18
ATOM     13  C   UNL     1       6.590   5.030  17.703  0.00  0.00    +0.000 A 
ATOM     14  C   UNL     1       7.314   5.266  16.516  0.00  0.00    +0.000 A 
ATOM     15  C   UNL     1       6.839   4.828  15.279  0.00  0.00    +0.000 A 
ATOM     16  C   UNL     1       5.622   4.170  15.207  0.00  0.00    +0.000 A 
ATOM     17  C   UNL     1       4.894   3.935  16.371  0.00  0.00    +0.000 A 
ATOM     18  C   UNL     1       5.364   4.330  17.643  0.00  0.00    +0.000 A 
BRANCH  13  20
ATOM     19  N   UNL     1       8.060   6.633  18.832  0.00  0.00    +0.000 N 
ATOM     20  C   UNL     1       7.209   5.572  18.948  0.00  0.00    +0.000 C 
ATOM     21  O   UNL     1       6.939   5.120  20.053  0.00  0.00    +0.000 OA
ATOM     22  H   UNL     1       8.360   7.073  19.694  0.00  0.00    +0.000 HD
ATOM     23  H   UNL     1       8.129   7.154  17.968  0.00  0.00    +0.000 HD
ENDBRANCH  13  20
ENDBRANCH  11  18
ENDBRANCH   1  11
BRANCH   3  24
ATOM     24  O   UNL     1       2.487   8.283  19.251  0.00  0.00    +0.000 OA
BRANCH  24  25
ATOM     25  C   UNL     1       1.300   8.978  19.206  0.00  0.00    +0.000 A 
ATOM     26  C   UNL     1       0.786   9.432  20.425  0.00  0.00    +0.000 A 
ATOM     27  C   UNL     1      -0.382  10.197  20.444  0.00  0.00    +0.000 A 
ATOM     28  C   UNL     1      -1.014  10.509  19.245  0.00  0.00    +0.000 A 
ATOM     29  F   UNL     1      -2.134  11.245  19.262  0.00  0.00    +0.000 F 
ATOM     30  C   UNL     1      -0.500  10.080  18.027  0.00  0.00    +0.000 A 
ATOM     31  C   UNL     1       0.670   9.322  18.007  0.00  0.00    +0.000 A 
ENDBRANCH  24  25
ENDBRANCH   3  24
TORSDOF 6
ENDMDL
MODEL 9
REMARK VINA RESULT:      -9.0      2.410      6.197
REMARK  Name = 
REMARK  6 active torsions:
REMARK  status: ('A' for Active; 'I' for Inactive)
REMARK    1  A    between atoms: C_2  and  C_4
REMARK    2  A    between atoms: C_9  and  N_10
REMARK    3  A    between atoms: N_10  and  C_11
REMARK    4  A    between atoms: C_13  and  O_14
REMARK    5  A    between atoms: O_14  and  C_15
REMARK    6  A    between atoms: C_24  and  C_25
REMARK                            x       y       z     vdW  Elec       q    Type
REMARK                         _______ _______ _______ _____ _____    ______ ____
ROOT
ATOM      1  C   UNL     1       3.505   4.846  19.417  0.00  0.00    +0.000 A 
ATOM      2  C   UNL     1       3.435   6.210  19.089  0.00  0.00    +0.000 A 
ATOM      3  C   UNL     1       2.434   6.993  19.633  0.00  0.00    +0.000 A 
ATOM      4  N   UNL     1       1.479   6.507  20.450  0.00  0.00    +0.000 NA
ATOM      5  C   UNL     1       1.518   5.183  20.705  0.00  0.00    +0.000 A 
ATOM      6  C   UNL     1       2.496   4.311  20.229  0.00  0.00    +0.000 A 
ENDROOT
BRANCH   6   7
ATOM      7  C   UNL     1       2.401   2.883  20.654  0.00  0.00    +0.000 C 
ATOM      8  F   UNL     1       2.340   2.000  19.617  0.00  0.00    +0.000 F 
ATOM      9  F   UNL     1       3.461   2.492  21.415  0.00  0.00    +0.000 F 
ATOM     10  F   UNL     1       1.293   2.640  21.409  0.00  0.00    +0.000 F 
ENDBRANCH   6   7
BRANCH   1  11
ATOM     11  N   UNL     1       4.634   4.095  18.996  0.00  0.00    +0.000 N 
ATOM     12  H   UNL     1       5.256   3.784  19.751  0.00  0.00    +0.000 HD
BRANCH  11  18
ATOM     13  C   UNL     1       6.632   5.003  17.810  0.00  0.00    +0.000 A 
ATOM     14  C   UNL     1       7.345   5.155  16.603  0.00  0.00    +0.000 A 
ATOM     15  C   UNL     1       6.847   4.652  15.400  0.00  0.00    +0.000 A 
ATOM     16  C   UNL     1       5.619   4.010  15.382  0.00  0.00    +0.000 A 
ATOM     17  C   UNL     1       4.902   3.859  16.567  0.00  0.00    +0.000 A 
ATOM     18  C   UNL     1       5.394   4.322  17.807  0.00  0.00    +0.000 A 
BRANCH  13  20
ATOM     19  N   UNL     1       8.090   6.689  18.829  0.00  0.00    +0.000 N 
ATOM     20  C   UNL     1       7.275   5.609  19.013  0.00  0.00    +0.000 C 
ATOM     21  O   UNL     1       7.056   5.191  20.142  0.00  0.00    +0.000 OA
ATOM     22  H   UNL     1       8.404   7.169  19.665  0.00  0.00    +0.000 HD
ATOM     23  H   UNL     1       8.114   7.180  17.946  0.00  0.00    +0.000 HD
ENDBRANCH  13  20
ENDBRANCH  11  18
ENDBRANCH   1  11
BRANCH   3  24
ATOM     24  O   UNL     1       2.518   8.359  19.388  0.00  0.00    +0.000 OA
BRANCH  24  25
ATOM     25  C   UNL     1       1.346   9.076  19.306  0.00  0.00    +0.000 A 
ATOM     26  C   UNL     1       0.795   9.246  18.032  0.00  0.00    +0.000 A 
ATOM     27  C   UNL     1      -0.425   9.909  17.886  0.00  0.00    +0.000 A 
ATOM     28  C   UNL     1      -1.084  10.384  19.015  0.00  0.00    +0.000 A 
ATOM     29  F   UNL     1      -2.256  11.019  18.876  0.00  0.00    +0.000 F 
ATOM     30  C   UNL     1      -0.555  10.202  20.287  0.00  0.00    +0.000 A 
ATOM     31  C   UNL     1       0.659   9.534  20.435  0.00  0.00    +0.000 A 
ENDBRANCH  24  25
ENDBRANCH   3  24
TORSDOF 6
ENDMDL
