MODEL 1
REMARK VINA RESULT:      -9.6      0.000      0.000
REMARK  Name = 
REMARK  6 active torsions:
REMARK  status: ('A' for Active; 'I' for Inactive)
REMARK    1  A    between atoms: C_1  and  O_2
REMARK    2  A    between atoms: O_2  and  C_3
REMARK    3  A    between atoms: C_10  and  C_12
REMARK    4  A    between atoms: C_12  and  N_13
REMARK    5  A    between atoms: C_14  and  C_16
REMARK    6  A    between atoms: N_18  and  C_19
REMARK                            x       y       z     vdW  Elec       q    Type
REMARK                         _______ _______ _______ _____ _____    ______ ____
ROOT
ATOM      1  N   UNL     1       7.714   7.044  18.472  0.00  0.00    +0.000 N 
ATOM      2  C   UNL     1       7.545   5.734  18.847  0.00  0.00    +0.000 C 
ATOM      3  O   UNL     1       8.303   5.165  19.619  0.00  0.00    +0.000 OA
ATOM      4  H   UNL     1       7.039   7.460  17.835  0.00  0.00    +0.000 HD
ENDROOT
BRANCH   2   5
ATOM      5  C   UNL     1       6.329   5.024  18.222  0.00  0.00    +0.000 A 
ATOM      6  N   UNL     1       5.359   4.717  19.039  0.00  0.00    +0.000 NA
ATOM      7  N   UNL     1       4.227   4.081  18.549  0.00  0.00    +0.000 N 
ATOM      8  C   UNL     1       4.041   3.786  17.190  0.00  0.00    +0.000 A 
ATOM      9  O   UNL     1       3.058   3.253  16.680  0.00  0.00    +0.000 OA
ATOM     10  C   UNL     1       5.118   4.194  16.273  0.00  0.00    +0.000 A 
ATOM     11  C   UNL     1       4.945   4.021  14.890  0.00  0.00    +0.000 A 
ATOM     12  C   UNL     1       5.951   4.395  14.004  0.00  0.00    +0.000 A 
ATOM     13  C   UNL     1       7.144   4.905  14.501  0.00  0.00    +0.000 A 
ATOM     14  C   UNL     1       7.318   5.074  15.878  0.00  0.00    +0.000 A 
ATOM     15  C   UNL     1       6.286   4.756  16.771  0.00  0.00    +0.000 A 
BRANCH   7  16
ATOM     16  C   UNL     1       3.212   3.814  19.533  0.00  0.00    +0.000 A 
ATOM     17  C   UNL     1       3.339   2.779  20.476  0.00  0.00    +0.000 A 
ATOM     18  C   UNL     1       2.311   2.480  21.378  0.00  0.00    +0.000 A 
ATOM     19  C   UNL     1       1.132   3.210  21.358  0.00  0.00    +0.000 A 
ATOM     20  C   UNL     1       0.991   4.259  20.454  0.00  0.00    +0.000 A 
ATOM     21  C   UNL     1       2.027   4.567  19.561  0.00  0.00    +0.000 A 
ENDBRANCH   7  16
ENDBRANCH   2   5
BRANCH   1  22
ATOM     22  C   UNL     1       8.781   7.847  19.034  0.00  0.00    +0.000 C 
BRANCH  22  30
ATOM     23  C   UNL     1      10.130  16.116  17.959  0.00  0.00    +0.000 A 
ATOM     24  C   UNL     1      11.324  15.830  18.618  0.00  0.00    +0.000 A 
ATOM     25  C   UNL     1      11.579  14.536  19.103  0.00  0.00    +0.000 A 
ATOM     26  C   UNL     1      10.630  13.509  18.915  0.00  0.00    +0.000 A 
ATOM     27  N   UNL     1      10.741  12.187  19.334  0.00  0.00    +0.000 NA
ATOM     28  C   UNL     1       9.701  11.502  18.917  0.00  0.00    +0.000 A 
ATOM     29  N   UNL     1       9.577  10.151  19.155  0.00  0.00    +0.000 N 
ATOM     30  C   UNL     1       8.670   9.297  18.556  0.00  0.00    +0.000 C 
ATOM     31  O   UNL     1       7.791   9.602  17.752  0.00  0.00    +0.000 OA
ATOM     32  S   UNL     1       8.498  12.397  18.108  0.00  0.00    +0.000 S 
ATOM     33  C   UNL     1       9.448  13.820  18.243  0.00  0.00    +0.000 A 
ATOM     34  C   UNL     1       9.170  15.116  17.780  0.00  0.00    +0.000 A 
ATOM     35  H   UNL     1      10.292   9.775  19.767  0.00  0.00    +0.000 HD
BRANCH  23  37
ATOM     36  C   UNL     1       8.716  18.007  18.176  0.00  0.00    +0.000 C 
ATOM     37  O   UNL     1       9.766  17.345  17.479  0.00  0.00    +0.000 OA
ENDBRANCH  23  37
ENDBRANCH  22  30
ENDBRANCH   1  22
TORSDOF 5
ENDMDL
MODEL 2
REMARK VINA RESULT:      -9.2      2.646      3.894
REMARK  Name = 
REMARK  6 active torsions:
REMARK  status: ('A' for Active; 'I' for Inactive)
REMARK    1  A    between atoms: C_1  and  O_2
REMARK    2  A    between atoms: O_2  and  C_3
REMARK    3  A    between atoms: C_10  and  C_12
REMARK    4  A    between atoms: C_12  and  N_13
REMARK    5  A    between atoms: C_14  and  C_16
REMARK    6  A    between atoms: N_18  and  C_19
REMARK                            x       y       z     vdW  Elec       q    Type
REMARK                         _______ _______ _______ _____ _____    ______ ____
ROOT
ATOM      1  N   UNL     1       6.471   6.081  18.865  0.00  0.00    +0.000 N 
ATOM      2  C   UNL     1       5.421   5.766  18.037  0.00  0.00    +0.000 C 
ATOM      3  O   UNL     1       5.547   5.655  16.826  0.00  0.00    +0.000 OA
ATOM      4  H   UNL     1       6.300   6.147  19.865  0.00  0.00    +0.000 HD
ENDROOT
BRANCH   2   5
ATOM      5  C   UNL     1       4.066   5.565  18.741  0.00  0.00    +0.000 A 
ATOM      6  N   UNL     1       3.473   6.646  19.168  0.00  0.00    +0.000 NA
ATOM      7  N   UNL     1       2.246   6.547  19.808  0.00  0.00    +0.000 N 
ATOM      8  C   UNL     1       1.570   5.330  19.985  0.00  0.00    +0.000 A 
ATOM      9  O   UNL     1       0.472   5.168  20.514  0.00  0.00    +0.000 OA
ATOM     10  C   UNL     1       2.225   4.128  19.443  0.00  0.00    +0.000 A 
ATOM     11  C   UNL     1       1.550   2.897  19.496  0.00  0.00    +0.000 A 
ATOM     12  C   UNL     1       2.150   1.745  18.995  0.00  0.00    +0.000 A 
ATOM     13  C   UNL     1       3.438   1.815  18.478  0.00  0.00    +0.000 A 
ATOM     14  C   UNL     1       4.111   3.040  18.429  0.00  0.00    +0.000 A 
ATOM     15  C   UNL     1       3.489   4.214  18.876  0.00  0.00    +0.000 A 
BRANCH   7  16
ATOM     16  C   UNL     1       1.673   7.804  20.212  0.00  0.00    +0.000 A 
ATOM     17  C   UNL     1       1.298   8.061  21.542  0.00  0.00    +0.000 A 
ATOM     18  C   UNL     1       0.670   9.257  21.908  0.00  0.00    +0.000 A 
ATOM     19  C   UNL     1       0.405  10.226  20.951  0.00  0.00    +0.000 A 
ATOM     20  C   UNL     1       0.793  10.009  19.631  0.00  0.00    +0.000 A 
ATOM     21  C   UNL     1       1.434   8.816  19.269  0.00  0.00    +0.000 A 
ENDBRANCH   7  16
ENDBRANCH   2   5
BRANCH   1  22
ATOM     22  C   UNL     1       7.813   6.235  18.340  0.00  0.00    +0.000 C 
BRANCH  22  30
ATOM     23  C   UNL     1      10.355  14.278  18.783  0.00  0.00    +0.000 A 
ATOM     24  C   UNL     1      11.059  13.813  19.891  0.00  0.00    +0.000 A 
ATOM     25  C   UNL     1      10.920  12.481  20.318  0.00  0.00    +0.000 A 
ATOM     26  C   UNL     1      10.072  11.598  19.616  0.00  0.00    +0.000 A 
ATOM     27  N   UNL     1       9.834  10.259  19.915  0.00  0.00    +0.000 NA
ATOM     28  C   UNL     1       9.050   9.735  19.001  0.00  0.00    +0.000 A 
ATOM     29  N   UNL     1       8.689   8.405  19.028  0.00  0.00    +0.000 N 
ATOM     30  C   UNL     1       8.090   7.702  18.001  0.00  0.00    +0.000 C 
ATOM     31  O   UNL     1       7.733   8.148  16.912  0.00  0.00    +0.000 OA
ATOM     32  S   UNL     1       8.472  10.809  17.813  0.00  0.00    +0.000 S 
ATOM     33  C   UNL     1       9.387  12.087  18.504  0.00  0.00    +0.000 A 
ATOM     34  C   UNL     1       9.496  13.423  18.087  0.00  0.00    +0.000 A 
ATOM     35  H   UNL     1       8.988   7.917  19.865  0.00  0.00    +0.000 HD
BRANCH  23  37
ATOM     36  C   UNL     1      10.815  15.716  16.954  0.00  0.00    +0.000 C 
ATOM     37  O   UNL     1      10.391  15.560  18.304  0.00  0.00    +0.000 OA
ENDBRANCH  23  37
ENDBRANCH  22  30
ENDBRANCH   1  22
TORSDOF 5
ENDMDL
MODEL 3
REMARK VINA RESULT:      -8.9      8.113     11.958
REMARK  Name = 
REMARK  6 active torsions:
REMARK  status: ('A' for Active; 'I' for Inactive)
REMARK    1  A    between atoms: C_1  and  O_2
REMARK    2  A    between atoms: O_2  and  C_3
REMARK    3  A    between atoms: C_10  and  C_12
REMARK    4  A    between atoms: C_12  and  N_13
REMARK    5  A    between atoms: C_14  and  C_16
REMARK    6  A    between atoms: N_18  and  C_19
REMARK                            x       y       z     vdW  Elec       q    Type
REMARK                         _______ _______ _______ _____ _____    ______ ____
ROOT
ATOM      1  N   UNL     1       0.303  11.192  18.456  0.00  0.00    +0.000 N 
ATOM      2  C   UNL     1      -0.525  11.083  19.547  0.00  0.00    +0.000 C 
ATOM      3  O   UNL     1      -0.133  10.690  20.635  0.00  0.00    +0.000 OA
ATOM      4  H   UNL     1      -0.085  11.538  17.581  0.00  0.00    +0.000 HD
ENDROOT
BRANCH   2   5
ATOM      5  C   UNL     1      -1.990  11.489  19.301  0.00  0.00    +0.000 A 
ATOM      6  N   UNL     1      -2.548  12.221  20.226  0.00  0.00    +0.000 NA
ATOM      7  N   UNL     1      -3.865  12.631  20.073  0.00  0.00    +0.000 N 
ATOM      8  C   UNL     1      -4.632  12.337  18.937  0.00  0.00    +0.000 A 
ATOM      9  O   UNL     1      -5.790  12.689  18.719  0.00  0.00    +0.000 OA
ATOM     10  C   UNL     1      -3.968  11.562  17.875  0.00  0.00    +0.000 A 
ATOM     11  C   UNL     1      -4.649  11.327  16.670  0.00  0.00    +0.000 A 
ATOM     12  C   UNL     1      -4.045  10.593  15.653  0.00  0.00    +0.000 A 
ATOM     13  C   UNL     1      -2.777  10.061  15.856  0.00  0.00    +0.000 A 
ATOM     14  C   UNL     1      -2.101  10.293  17.058  0.00  0.00    +0.000 A 
ATOM     15  C   UNL     1      -2.679  11.082  18.061  0.00  0.00    +0.000 A 
BRANCH   7  16
ATOM     16  C   UNL     1      -4.367  13.455  21.141  0.00  0.00    +0.000 A 
ATOM     17  C   UNL     1      -4.236  14.854  21.131  0.00  0.00    +0.000 A 
ATOM     18  C   UNL     1      -4.659  15.637  22.211  0.00  0.00    +0.000 A 
ATOM     19  C   UNL     1      -5.225  15.038  23.327  0.00  0.00    +0.000 A 
ATOM     20  C   UNL     1      -5.394  13.656  23.351  0.00  0.00    +0.000 A 
ATOM     21  C   UNL     1      -4.982  12.875  22.262  0.00  0.00    +0.000 A 
ENDBRANCH   7  16
ENDBRANCH   2   5
BRANCH   1  22
ATOM     22  C   UNL     1       1.719  10.903  18.564  0.00  0.00    +0.000 C 
BRANCH  22  30
ATOM     23  C   UNL     1       2.641   2.567  19.573  0.00  0.00    +0.000 A 
ATOM     24  C   UNL     1       2.009   2.820  20.788  0.00  0.00    +0.000 A 
ATOM     25  C   UNL     1       1.687   4.134  21.165  0.00  0.00    +0.000 A 
ATOM     26  C   UNL     1       1.989   5.212  20.306  0.00  0.00    +0.000 A 
ATOM     27  N   UNL     1       1.731   6.560  20.539  0.00  0.00    +0.000 NA
ATOM     28  C   UNL     1       2.080   7.265  19.488  0.00  0.00    +0.000 A 
ATOM     29  N   UNL     1       1.891   8.629  19.431  0.00  0.00    +0.000 N 
ATOM     30  C   UNL     1       1.984   9.418  18.301  0.00  0.00    +0.000 C 
ATOM     31  O   UNL     1       2.298   9.052  17.170  0.00  0.00    +0.000 OA
ATOM     32  S   UNL     1       2.823   6.397  18.225  0.00  0.00    +0.000 S 
ATOM     33  C   UNL     1       2.612   4.931  19.091  0.00  0.00    +0.000 A 
ATOM     34  C   UNL     1       2.965   3.624  18.717  0.00  0.00    +0.000 A 
ATOM     35  H   UNL     1       1.572   9.035  20.303  0.00  0.00    +0.000 HD
BRANCH  23  37
ATOM     36  C   UNL     1       3.928   1.320  18.020  0.00  0.00    +0.000 C 
ATOM     37  O   UNL     1       3.030   1.333  19.124  0.00  0.00    +0.000 OA
ENDBRANCH  23  37
ENDBRANCH  22  30
ENDBRANCH   1  22
TORSDOF 5
ENDMDL
MODEL 4
REMARK VINA RESULT:      -8.7      8.088     11.478
REMARK  Name = 
REMARK  6 active torsions:
REMARK  status: ('A' for Active; 'I' for Inactive)
REMARK    1  A    between atoms: C_1  and  O_2
REMARK    2  A    between atoms: O_2  and  C_3
REMARK    3  A    between atoms: C_10  and  C_12
REMARK    4  A    between atoms: C_12  and  N_13
REMARK    5  A    between atoms: C_14  and  C_16
REMARK    6  A    between atoms: N_18  and  C_19
REMARK                            x       y       z     vdW  Elec       q    Type
REMARK                         _______ _______ _______ _____ _____    ______ ____
ROOT
ATOM      1  N   UNL     1      -0.556   9.892  20.656  0.00  0.00    +0.000 N 
ATOM      2  C   UNL     1      -0.724  11.204  20.283  0.00  0.00    +0.000 C 
ATOM      3  O   UNL     1       0.177  12.028  20.347  0.00  0.00    +0.000 OA
ATOM      4  H   UNL     1      -1.345   9.256  20.567  0.00  0.00    +0.000 HD
ENDROOT
BRANCH   2   5
ATOM      5  C   UNL     1      -2.133  11.569  19.780  0.00  0.00    +0.000 A 
ATOM      6  N   UNL     1      -2.852  12.315  20.573  0.00  0.00    +0.000 NA
ATOM      7  N   UNL     1      -4.131  12.690  20.186  0.00  0.00    +0.000 N 
ATOM      8  C   UNL     1      -4.689  12.346  18.946  0.00  0.00    +0.000 A 
ATOM      9  O   UNL     1      -5.799  12.664  18.523  0.00  0.00    +0.000 OA
ATOM     10  C   UNL     1      -3.841  11.555  18.038  0.00  0.00    +0.000 A 
ATOM     11  C   UNL     1      -4.303  11.269  16.743  0.00  0.00    +0.000 A 
ATOM     12  C   UNL     1      -3.522  10.519  15.868  0.00  0.00    +0.000 A 
ATOM     13  C   UNL     1      -2.298  10.023  16.300  0.00  0.00    +0.000 A 
ATOM     14  C   UNL     1      -1.840  10.305  17.591  0.00  0.00    +0.000 A 
ATOM     15  C   UNL     1      -2.594  11.110  18.455  0.00  0.00    +0.000 A 
BRANCH   7  16
ATOM     16  C   UNL     1      -4.822  13.534  21.126  0.00  0.00    +0.000 A 
ATOM     17  C   UNL     1      -4.730  14.935  21.080  0.00  0.00    +0.000 A 
ATOM     18  C   UNL     1      -5.344  15.741  22.046  0.00  0.00    +0.000 A 
ATOM     19  C   UNL     1      -6.065  15.163  23.080  0.00  0.00    +0.000 A 
ATOM     20  C   UNL     1      -6.196  13.778  23.132  0.00  0.00    +0.000 A 
ATOM     21  C   UNL     1      -5.593  12.973  22.156  0.00  0.00    +0.000 A 
ENDBRANCH   7  16
ENDBRANCH   2   5
BRANCH   1  22
ATOM     22  C   UNL     1       0.736   9.401  21.088  0.00  0.00    +0.000 C 
BRANCH  22  30
ATOM     23  C   UNL     1       5.139   4.021  16.289  0.00  0.00    +0.000 A 
ATOM     24  C   UNL     1       4.821   3.125  17.307  0.00  0.00    +0.000 A 
ATOM     25  C   UNL     1       4.119   3.557  18.445  0.00  0.00    +0.000 A 
ATOM     26  C   UNL     1       3.718   4.906  18.560  0.00  0.00    +0.000 A 
ATOM     27  N   UNL     1       3.020   5.478  19.619  0.00  0.00    +0.000 NA
ATOM     28  C   UNL     1       2.755   6.735  19.346  0.00  0.00    +0.000 A 
ATOM     29  N   UNL     1       2.031   7.530  20.208  0.00  0.00    +0.000 N 
ATOM     30  C   UNL     1       1.487   8.765  19.915  0.00  0.00    +0.000 C 
ATOM     31  O   UNL     1       1.596   9.387  18.859  0.00  0.00    +0.000 OA
ATOM     32  S   UNL     1       3.402   7.330  17.888  0.00  0.00    +0.000 S 
ATOM     33  C   UNL     1       4.041   5.779  17.523  0.00  0.00    +0.000 A 
ATOM     34  C   UNL     1       4.767   5.365  16.395  0.00  0.00    +0.000 A 
ATOM     35  H   UNL     1       1.830   7.091  21.099  0.00  0.00    +0.000 HD
BRANCH  23  37
ATOM     36  C   UNL     1       6.605   4.776  14.585  0.00  0.00    +0.000 C 
ATOM     37  O   UNL     1       5.847   3.716  15.158  0.00  0.00    +0.000 OA
ENDBRANCH  23  37
ENDBRANCH  22  30
ENDBRANCH   1  22
TORSDOF 5
ENDMDL
MODEL 5
REMARK VINA RESULT:      -8.7      6.477      9.874
REMARK  Name = 
REMARK  6 active torsions:
REMARK  status: ('A' for Active; 'I' for Inactive)
REMARK    1  A    between atoms: C_1  and  O_2
REMARK    2  A    between atoms: O_2  and  C_3
REMARK    3  A    between atoms: C_10  and  C_12
REMARK    4  A    between atoms: C_12  and  N_13
REMARK    5  A    between atoms: C_14  and  C_16
REMARK    6  A    between atoms: N_18  and  C_19
REMARK                            x       y       z     vdW  Elec       q    Type
REMARK                         _______ _______ _______ _____ _____    ______ ____
ROOT
ATOM      1  N   UNL     1       2.495   8.305  18.186  0.00  0.00    +0.000 N 
ATOM      2  C   UNL     1       2.438   7.326  19.148  0.00  0.00    +0.000 C 
ATOM      3  O   UNL     1       2.099   7.553  20.301  0.00  0.00    +0.000 OA
ATOM      4  H   UNL     1       2.774   8.045  17.243  0.00  0.00    +0.000 HD
ENDROOT
BRANCH   2   5
ATOM      5  C   UNL     1       2.837   5.916  18.675  0.00  0.00    +0.000 A 
ATOM      6  N   UNL     1       3.706   5.858  17.703  0.00  0.00    +0.000 NA
ATOM      7  N   UNL     1       4.119   4.622  17.226  0.00  0.00    +0.000 N 
ATOM      8  C   UNL     1       3.682   3.406  17.770  0.00  0.00    +0.000 A 
ATOM      9  O   UNL     1       4.024   2.277  17.421  0.00  0.00    +0.000 OA
ATOM     10  C   UNL     1       2.749   3.488  18.906  0.00  0.00    +0.000 A 
ATOM     11  C   UNL     1       2.358   2.309  19.560  0.00  0.00    +0.000 A 
ATOM     12  C   UNL     1       1.473   2.360  20.633  0.00  0.00    +0.000 A 
ATOM     13  C   UNL     1       0.948   3.586  21.027  0.00  0.00    +0.000 A 
ATOM     14  C   UNL     1       1.334   4.760  20.373  0.00  0.00    +0.000 A 
ATOM     15  C   UNL     1       2.271   4.721  19.332  0.00  0.00    +0.000 A 
BRANCH   7  16
ATOM     16  C   UNL     1       5.098   4.679  16.173  0.00  0.00    +0.000 A 
ATOM     17  C   UNL     1       4.793   4.318  14.849  0.00  0.00    +0.000 A 
ATOM     18  C   UNL     1       5.774   4.303  13.850  0.00  0.00    +0.000 A 
ATOM     19  C   UNL     1       7.082   4.652  14.152  0.00  0.00    +0.000 A 
ATOM     20  C   UNL     1       7.404   5.043  15.449  0.00  0.00    +0.000 A 
ATOM     21  C   UNL     1       6.418   5.070  16.445  0.00  0.00    +0.000 A 
ENDBRANCH   7  16
ENDBRANCH   2   5
BRANCH   1  22
ATOM     22  C   UNL     1       2.086   9.663  18.481  0.00  0.00    +0.000 C 
BRANCH  22  30
ATOM     23  C   UNL     1      -5.969  12.201  18.674  0.00  0.00    +0.000 A 
ATOM     24  C   UNL     1      -5.479  13.106  19.612  0.00  0.00    +0.000 A 
ATOM     25  C   UNL     1      -4.134  13.058  20.017  0.00  0.00    +0.000 A 
ATOM     26  C   UNL     1      -3.262  12.096  19.464  0.00  0.00    +0.000 A 
ATOM     27  N   UNL     1      -1.913  11.927  19.762  0.00  0.00    +0.000 NA
ATOM     28  C   UNL     1      -1.406  10.986  18.999  0.00  0.00    +0.000 A 
ATOM     29  N   UNL     1      -0.073  10.644  19.055  0.00  0.00    +0.000 N 
ATOM     30  C   UNL     1       0.607   9.863  18.140  0.00  0.00    +0.000 C 
ATOM     31  O   UNL     1       0.133   9.302  17.153  0.00  0.00    +0.000 OA
ATOM     32  S   UNL     1      -2.508  10.185  17.976  0.00  0.00    +0.000 S 
ATOM     33  C   UNL     1      -3.775  11.208  18.519  0.00  0.00    +0.000 A 
ATOM     34  C   UNL     1      -5.124  11.229  18.129  0.00  0.00    +0.000 A 
ATOM     35  H   UNL     1       0.436  11.099  19.804  0.00  0.00    +0.000 HD
BRANCH  23  37
ATOM     36  C   UNL     1      -7.862  13.373  17.860  0.00  0.00    +0.000 C 
ATOM     37  O   UNL     1      -7.264  12.137  18.236  0.00  0.00    +0.000 OA
ENDBRANCH  23  37
ENDBRANCH  22  30
ENDBRANCH   1  22
TORSDOF 5
ENDMDL
MODEL 6
REMARK VINA RESULT:      -8.6      8.072     11.522
REMARK  Name = 
REMARK  6 active torsions:
REMARK  status: ('A' for Active; 'I' for Inactive)
REMARK    1  A    between atoms: C_1  and  O_2
REMARK    2  A    between atoms: O_2  and  C_3
REMARK    3  A    between atoms: C_10  and  C_12
REMARK    4  A    between atoms: C_12  and  N_13
REMARK    5  A    between atoms: C_14  and  C_16
REMARK    6  A    between atoms: N_18  and  C_19
REMARK                            x       y       z     vdW  Elec       q    Type
REMARK                         _______ _______ _______ _____ _____    ______ ____
ROOT
ATOM      1  N   UNL     1      -0.096   9.865  21.238  0.00  0.00    +0.000 N 
ATOM      2  C   UNL     1      -0.432  10.632  22.327  0.00  0.00    +0.000 C 
ATOM      3  O   UNL     1      -0.141  10.316  23.471  0.00  0.00    +0.000 OA
ATOM      4  H   UNL     1      -0.358  10.193  20.311  0.00  0.00    +0.000 HD
ENDROOT
BRANCH   2   5
ATOM      5  C   UNL     1      -1.209  11.923  22.006  0.00  0.00    +0.000 A 
ATOM      6  N   UNL     1      -2.487  11.906  22.267  0.00  0.00    +0.000 NA
ATOM      7  N   UNL     1      -3.253  13.035  22.010  0.00  0.00    +0.000 N 
ATOM      8  C   UNL     1      -2.713  14.232  21.520  0.00  0.00    +0.000 A 
ATOM      9  O   UNL     1      -3.321  15.278  21.297  0.00  0.00    +0.000 OA
ATOM     10  C   UNL     1      -1.259  14.254  21.289  0.00  0.00    +0.000 A 
ATOM     11  C   UNL     1      -0.644  15.456  20.899  0.00  0.00    +0.000 A 
ATOM     12  C   UNL     1       0.728  15.500  20.670  0.00  0.00    +0.000 A 
ATOM     13  C   UNL     1       1.479  14.337  20.791  0.00  0.00    +0.000 A 
ATOM     14  C   UNL     1       0.866  13.141  21.176  0.00  0.00    +0.000 A 
ATOM     15  C   UNL     1      -0.504  13.103  21.467  0.00  0.00    +0.000 A 
BRANCH   7  16
ATOM     16  C   UNL     1      -4.644  12.911  22.361  0.00  0.00    +0.000 A 
ATOM     17  C   UNL     1      -5.096  13.050  23.684  0.00  0.00    +0.000 A 
ATOM     18  C   UNL     1      -6.439  12.851  24.024  0.00  0.00    +0.000 A 
ATOM     19  C   UNL     1      -7.362  12.510  23.046  0.00  0.00    +0.000 A 
ATOM     20  C   UNL     1      -6.946  12.395  21.722  0.00  0.00    +0.000 A 
ATOM     21  C   UNL     1      -5.603  12.608  21.382  0.00  0.00    +0.000 A 
ENDBRANCH   7  16
ENDBRANCH   2   5
BRANCH   1  22
ATOM     22  C   UNL     1       0.690   8.658  21.392  0.00  0.00    +0.000 C 
BRANCH  22  30
ATOM     23  C   UNL     1       5.601   4.931  15.617  0.00  0.00    +0.000 A 
ATOM     24  C   UNL     1       5.471   3.835  16.467  0.00  0.00    +0.000 A 
ATOM     25  C   UNL     1       4.770   3.951  17.679  0.00  0.00    +0.000 A 
ATOM     26  C   UNL     1       4.179   5.181  18.041  0.00  0.00    +0.000 A 
ATOM     27  N   UNL     1       3.457   5.448  19.200  0.00  0.00    +0.000 NA
ATOM     28  C   UNL     1       2.994   6.676  19.160  0.00  0.00    +0.000 A 
ATOM     29  N   UNL     1       2.204   7.189  20.165  0.00  0.00    +0.000 N 
ATOM     30  C   UNL     1       1.468   8.357  20.108  0.00  0.00    +0.000 C 
ATOM     31  O   UNL     1       1.430   9.159  19.177  0.00  0.00    +0.000 OA
ATOM     32  S   UNL     1       3.472   7.606  17.816  0.00  0.00    +0.000 S 
ATOM     33  C   UNL     1       4.316   6.259  17.167  0.00  0.00    +0.000 A 
ATOM     34  C   UNL     1       5.038   6.162  15.967  0.00  0.00    +0.000 A 
ATOM     35  H   UNL     1       2.115   6.578  20.969  0.00  0.00    +0.000 HD
BRANCH  23  37
ATOM     36  C   UNL     1       6.017   3.861  13.542  0.00  0.00    +0.000 C 
ATOM     37  O   UNL     1       6.289   4.937  14.434  0.00  0.00    +0.000 OA
ENDBRANCH  23  37
ENDBRANCH  22  30
ENDBRANCH   1  22
TORSDOF 5
ENDMDL
MODEL 7
REMARK VINA RESULT:      -8.6      8.547     11.846
REMARK  Name = 
REMARK  6 active torsions:
REMARK  status: ('A' for Active; 'I' for Inactive)
REMARK    1  A    between atoms: C_1  and  O_2
REMARK    2  A    between atoms: O_2  and  C_3
REMARK    3  A    between atoms: C_10  and  C_12
REMARK    4  A    between atoms: C_12  and  N_13
REMARK    5  A    between atoms: C_14  and  C_16
REMARK    6  A    between atoms: N_18  and  C_19
REMARK                            x       y       z     vdW  Elec       q    Type
REMARK                         _______ _______ _______ _____ _____    ______ ____
ROOT
ATOM      1  N   UNL     1      -1.044  11.280  20.920  0.00  0.00    +0.000 N 
ATOM      2  C   UNL     1      -1.176  11.811  19.660  0.00  0.00    +0.000 C 
ATOM      3  O   UNL     1      -0.230  12.265  19.033  0.00  0.00    +0.000 OA
ATOM      4  H   UNL     1      -1.871  10.907  21.381  0.00  0.00    +0.000 HD
ENDROOT
BRANCH   2   5
ATOM      5  C   UNL     1      -2.606  11.798  19.089  0.00  0.00    +0.000 A 
ATOM      6  N   UNL     1      -3.509  12.436  19.783  0.00  0.00    +0.000 NA
ATOM      7  N   UNL     1      -4.820  12.474  19.329  0.00  0.00    +0.000 N 
ATOM      8  C   UNL     1      -5.229  11.895  18.119  0.00  0.00    +0.000 A 
ATOM      9  O   UNL     1      -6.362  11.914  17.640  0.00  0.00    +0.000 OA
ATOM     10  C   UNL     1      -4.187  11.233  17.318  0.00  0.00    +0.000 A 
ATOM     11  C   UNL     1      -4.513  10.727  16.049  0.00  0.00    +0.000 A 
ATOM     12  C   UNL     1      -3.546  10.092  15.276  0.00  0.00    +0.000 A 
ATOM     13  C   UNL     1      -2.263   9.928  15.785  0.00  0.00    +0.000 A 
ATOM     14  C   UNL     1      -1.939  10.429  17.050  0.00  0.00    +0.000 A 
ATOM     15  C   UNL     1      -2.892  11.122  17.808  0.00  0.00    +0.000 A 
BRANCH   7  16
ATOM     16  C   UNL     1      -5.723  13.227  20.159  0.00  0.00    +0.000 A 
ATOM     17  C   UNL     1      -6.563  12.608  21.101  0.00  0.00    +0.000 A 
ATOM     18  C   UNL     1      -7.492  13.342  21.847  0.00  0.00    +0.000 A 
ATOM     19  C   UNL     1      -7.601  14.713  21.670  0.00  0.00    +0.000 A 
ATOM     20  C   UNL     1      -6.761  15.356  20.764  0.00  0.00    +0.000 A 
ATOM     21  C   UNL     1      -5.821  14.621  20.028  0.00  0.00    +0.000 A 
ENDBRANCH   7  16
ENDBRANCH   2   5
BRANCH   1  22
ATOM     22  C   UNL     1       0.257  11.172  21.549  0.00  0.00    +0.000 C 
BRANCH  22  30
ATOM     23  C   UNL     1       3.714   4.079  18.532  0.00  0.00    +0.000 A 
ATOM     24  C   UNL     1       4.103   4.919  17.491  0.00  0.00    +0.000 A 
ATOM     25  C   UNL     1       3.700   6.265  17.470  0.00  0.00    +0.000 A 
ATOM     26  C   UNL     1       2.905   6.782  18.515  0.00  0.00    +0.000 A 
ATOM     27  N   UNL     1       2.432   8.086  18.633  0.00  0.00    +0.000 NA
ATOM     28  C   UNL     1       1.791   8.223  19.771  0.00  0.00    +0.000 A 
ATOM     29  N   UNL     1       1.256   9.430  20.164  0.00  0.00    +0.000 N 
ATOM     30  C   UNL     1       0.794   9.743  21.428  0.00  0.00    +0.000 C 
ATOM     31  O   UNL     1       0.734   8.991  22.398  0.00  0.00    +0.000 OA
ATOM     32  S   UNL     1       1.622   6.807  20.702  0.00  0.00    +0.000 S 
ATOM     33  C   UNL     1       2.537   5.923  19.549  0.00  0.00    +0.000 A 
ATOM     34  C   UNL     1       2.910   4.570  19.565  0.00  0.00    +0.000 A 
ATOM     35  H   UNL     1       1.306  10.151  19.454  0.00  0.00    +0.000 HD
BRANCH  23  37
ATOM     36  C   UNL     1       3.126   1.848  17.988  0.00  0.00    +0.000 C 
ATOM     37  O   UNL     1       4.020   2.749  18.633  0.00  0.00    +0.000 OA
ENDBRANCH  23  37
ENDBRANCH  22  30
ENDBRANCH   1  22
TORSDOF 5
ENDMDL
MODEL 8
REMARK VINA RESULT:      -8.5      6.271     11.791
REMARK  Name = 
REMARK  6 active torsions:
REMARK  status: ('A' for Active; 'I' for Inactive)
REMARK    1  A    between atoms: C_1  and  O_2
REMARK    2  A    between atoms: O_2  and  C_3
REMARK    3  A    between atoms: C_10  and  C_12
REMARK    4  A    between atoms: C_12  and  N_13
REMARK    5  A    between atoms: C_14  and  C_16
REMARK    6  A    between atoms: N_18  and  C_19
REMARK                            x       y       z     vdW  Elec       q    Type
REMARK                         _______ _______ _______ _____ _____    ______ ____
ROOT
ATOM      1  N   UNL     1       0.105  12.589  19.635  0.00  0.00    +0.000 N 
ATOM      2  C   UNL     1       0.761  13.458  20.475  0.00  0.00    +0.000 C 
ATOM      3  O   UNL     1       0.696  13.373  21.692  0.00  0.00    +0.000 OA
ATOM      4  H   UNL     1       0.212  12.709  18.631  0.00  0.00    +0.000 HD
ENDROOT
BRANCH   2   5
ATOM      5  C   UNL     1       1.584  14.553  19.772  0.00  0.00    +0.000 A 
ATOM      6  N   UNL     1       2.871  14.350  19.701  0.00  0.00    +0.000 NA
ATOM      7  N   UNL     1       3.679  15.290  19.077  0.00  0.00    +0.000 N 
ATOM      8  C   UNL     1       3.177  16.447  18.465  0.00  0.00    +0.000 A 
ATOM      9  O   UNL     1       3.825  17.307  17.871  0.00  0.00    +0.000 OA
ATOM     10  C   UNL     1       1.716  16.632  18.501  0.00  0.00    +0.000 A 
ATOM     11  C   UNL     1       1.144  17.716  17.815  0.00  0.00    +0.000 A 
ATOM     12  C   UNL     1      -0.233  17.913  17.839  0.00  0.00    +0.000 A 
ATOM     13  C   UNL     1      -1.035  17.052  18.578  0.00  0.00    +0.000 A 
ATOM     14  C   UNL     1      -0.464  15.975  19.264  0.00  0.00    +0.000 A 
ATOM     15  C   UNL     1       0.914  15.735  19.195  0.00  0.00    +0.000 A 
BRANCH   7  16
ATOM     16  C   UNL     1       5.077  14.950  19.034  0.00  0.00    +0.000 A 
ATOM     17  C   UNL     1       5.912  15.078  20.157  0.00  0.00    +0.000 A 
ATOM     18  C   UNL     1       7.286  14.819  20.082  0.00  0.00    +0.000 A 
ATOM     19  C   UNL     1       7.855  14.422  18.881  0.00  0.00    +0.000 A 
ATOM     20  C   UNL     1       7.045  14.258  17.760  0.00  0.00    +0.000 A 
ATOM     21  C   UNL     1       5.668  14.506  17.841  0.00  0.00    +0.000 A 
ENDBRANCH   7  16
ENDBRANCH   2   5
BRANCH   1  22
ATOM     22  C   UNL     1      -0.654  11.474  20.164  0.00  0.00    +0.000 C 
BRANCH  22  30
ATOM     23  C   UNL     1       4.642   5.057  18.701  0.00  0.00    +0.000 A 
ATOM     24  C   UNL     1       4.815   5.707  17.481  0.00  0.00    +0.000 A 
ATOM     25  C   UNL     1       4.067   6.855  17.171  0.00  0.00    +0.000 A 
ATOM     26  C   UNL     1       3.139   7.369  18.102  0.00  0.00    +0.000 A 
ATOM     27  N   UNL     1       2.332   8.491  17.940  0.00  0.00    +0.000 NA
ATOM     28  C   UNL     1       1.653   8.711  19.042  0.00  0.00    +0.000 A 
ATOM     29  N   UNL     1       0.807   9.790  19.172  0.00  0.00    +0.000 N 
ATOM     30  C   UNL     1       0.249  10.251  20.349  0.00  0.00    +0.000 C 
ATOM     31  O   UNL     1       0.371   9.754  21.467  0.00  0.00    +0.000 OA
ATOM     32  S   UNL     1       1.849   7.555  20.277  0.00  0.00    +0.000 S 
ATOM     33  C   UNL     1       2.992   6.705  19.319  0.00  0.00    +0.000 A 
ATOM     34  C   UNL     1       3.714   5.541  19.628  0.00  0.00    +0.000 A 
ATOM     35  H   UNL     1       0.677  10.315  18.314  0.00  0.00    +0.000 HD
BRANCH  23  37
ATOM     36  C   UNL     1       4.466   2.846  19.537  0.00  0.00    +0.000 C 
ATOM     37  O   UNL     1       5.290   3.916  19.089  0.00  0.00    +0.000 OA
ENDBRANCH  23  37
ENDBRANCH  22  30
ENDBRANCH   1  22
TORSDOF 5
ENDMDL
MODEL 9
REMARK VINA RESULT:      -8.5      7.795     11.121
REMARK  Name = 
REMARK  6 active torsions:
REMARK  status: ('A' for Active; 'I' for Inactive)
REMARK    1  A    between atoms: C_1  and  O_2
REMARK    2  A    between atoms: O_2  and  C_3
REMARK    3  A    between atoms: C_10  and  C_12
REMARK    4  A    between atoms: C_12  and  N_13
REMARK    5  A    between atoms: C_14  and  C_16
REMARK    6  A    between atoms: N_18  and  C_19
REMARK                            x       y       z     vdW  Elec       q    Type
REMARK                         _______ _______ _______ _____ _____    ______ ____
ROOT
ATOM      1  N   UNL     1      -0.195   9.324  20.675  0.00  0.00    +0.000 N 
ATOM      2  C   UNL     1      -0.218  10.691  20.545  0.00  0.00    +0.000 C 
ATOM      3  O   UNL     1       0.769  11.388  20.734  0.00  0.00    +0.000 OA
ATOM      4  H   UNL     1      -1.049   8.803  20.491  0.00  0.00    +0.000 HD
ENDROOT
BRANCH   2   5
ATOM      5  C   UNL     1      -1.579  11.291  20.147  0.00  0.00    +0.000 A 
ATOM      6  N   UNL     1      -2.138  12.081  21.022  0.00  0.00    +0.000 NA
ATOM      7  N   UNL     1      -3.364  12.665  20.732  0.00  0.00    +0.000 N 
ATOM      8  C   UNL     1      -4.028  12.487  19.510  0.00  0.00    +0.000 A 
ATOM      9  O   UNL     1      -5.097  12.992  19.171  0.00  0.00    +0.000 OA
ATOM     10  C   UNL     1      -3.354  11.641  18.510  0.00  0.00    +0.000 A 
ATOM     11  C   UNL     1      -3.917  11.510  17.230  0.00  0.00    +0.000 A 
ATOM     12  C   UNL     1      -3.302  10.712  16.270  0.00  0.00    +0.000 A 
ATOM     13  C   UNL     1      -2.146  10.015  16.600  0.00  0.00    +0.000 A 
ATOM     14  C   UNL     1      -1.588  10.142  17.876  0.00  0.00    +0.000 A 
ATOM     15  C   UNL     1      -2.169  10.991  18.828  0.00  0.00    +0.000 A 
BRANCH   7  16
ATOM     16  C   UNL     1      -3.873  13.538  21.757  0.00  0.00    +0.000 A 
ATOM     17  C   UNL     1      -3.665  14.927  21.726  0.00  0.00    +0.000 A 
ATOM     18  C   UNL     1      -4.098  15.755  22.768  0.00  0.00    +0.000 A 
ATOM     19  C   UNL     1      -4.751  15.212  23.865  0.00  0.00    +0.000 A 
ATOM     20  C   UNL     1      -4.996  13.842  23.907  0.00  0.00    +0.000 A 
ATOM     21  C   UNL     1      -4.574  13.016  22.856  0.00  0.00    +0.000 A 
ENDBRANCH   7  16
ENDBRANCH   2   5
BRANCH   1  22
ATOM     22  C   UNL     1       1.036   8.626  20.983  0.00  0.00    +0.000 C 
BRANCH  22  30
ATOM     23  C   UNL     1       5.852   4.731  15.239  0.00  0.00    +0.000 A 
ATOM     24  C   UNL     1       5.719   3.654  16.112  0.00  0.00    +0.000 A 
ATOM     25  C   UNL     1       5.031   3.802  17.329  0.00  0.00    +0.000 A 
ATOM     26  C   UNL     1       4.456   5.045  17.671  0.00  0.00    +0.000 A 
ATOM     27  N   UNL     1       3.748   5.343  18.831  0.00  0.00    +0.000 NA
ATOM     28  C   UNL     1       3.298   6.575  18.771  0.00  0.00    +0.000 A 
ATOM     29  N   UNL     1       2.523   7.117  19.772  0.00  0.00    +0.000 N 
ATOM     30  C   UNL     1       1.799   8.291  19.698  0.00  0.00    +0.000 C 
ATOM     31  O   UNL     1       1.760   9.075  18.752  0.00  0.00    +0.000 OA
ATOM     32  S   UNL     1       3.773   7.472  17.403  0.00  0.00    +0.000 S 
ATOM     33  C   UNL     1       4.596   6.104  16.774  0.00  0.00    +0.000 A 
ATOM     34  C   UNL     1       5.306   5.975  15.570  0.00  0.00    +0.000 A 
ATOM     35  H   UNL     1       2.436   6.523  20.590  0.00  0.00    +0.000 HD
BRANCH  23  37
ATOM     36  C   UNL     1       6.169   3.670  13.143  0.00  0.00    +0.000 C 
ATOM     37  O   UNL     1       6.529   4.706  14.049  0.00  0.00    +0.000 OA
ENDBRANCH  23  37
ENDBRANCH  22  30
ENDBRANCH   1  22
TORSDOF 5
ENDMDL
