MODEL 1
REMARK VINA RESULT:      -8.4      0.000      0.000
REMARK  Name = 
REMARK  9 active torsions:
REMARK  status: ('A' for Active; 'I' for Inactive)
REMARK    1  A    between atoms: C_1  and  O_2
REMARK    2  A    between atoms: O_2  and  C_3
REMARK    3  A    between atoms: C_3  and  C_5
REMARK    4  A    between atoms: C_5  and  C_6
REMARK    5  A    between atoms: C_9  and  C_10
REMARK    6  A    between atoms: C_10  and  S_11
REMARK    7  A    between atoms: S_11  and  C_12
REMARK    8  A    between atoms: N_20  and  C_21
REMARK    9  A    between atoms: C_21  and  C_22
REMARK                            x       y       z     vdW  Elec       q    Type
REMARK                         _______ _______ _______ _____ _____    ______ ____
ROOT
ATOM      1  C   UNL     1       4.781   5.283  18.828  0.00  0.00    +0.000 A 
ATOM      2  N   UNL     1       4.629   4.342  19.726  0.00  0.00    +0.000 NA
ATOM      3  C   UNL     1       3.381   3.822  19.495  0.00  0.00    +0.000 A 
ATOM      4  C   UNL     1       2.770   2.719  20.120  0.00  0.00    +0.000 A 
ATOM      5  C   UNL     1       1.548   2.236  19.639  0.00  0.00    +0.000 A 
ATOM      6  C   UNL     1       0.955   2.863  18.548  0.00  0.00    +0.000 A 
ATOM      7  C   UNL     1       1.502   4.017  17.950  0.00  0.00    +0.000 A 
ATOM      8  C   UNL     1       2.734   4.494  18.450  0.00  0.00    +0.000 A 
ATOM      9  N   UNL     1       3.589   5.570  18.176  0.00  0.00    +0.000 N 
ENDROOT
BRANCH   1  10
ATOM     10  S   UNL     1       6.293   6.043  18.423  0.00  0.00    +0.000 S 
BRANCH  10  11
ATOM     11  C   UNL     1       7.276   4.683  17.688  0.00  0.00    +0.000 C 
BRANCH  11  15
ATOM     12  C   UNL     1       6.540   4.122  13.429  0.00  0.00    +0.000 A 
ATOM     13  C   UNL     1       5.797   3.422  14.387  0.00  0.00    +0.000 A 
ATOM     14  C   UNL     1       6.034   3.618  15.752  0.00  0.00    +0.000 A 
ATOM     15  C   UNL     1       7.006   4.526  16.194  0.00  0.00    +0.000 A 
ATOM     16  C   UNL     1       7.709   5.269  15.232  0.00  0.00    +0.000 A 
ATOM     17  C   UNL     1       7.475   5.069  13.864  0.00  0.00    +0.000 A 
BRANCH  12  18
ATOM     18  C   UNL     1       6.343   3.860  11.953  0.00  0.00    +0.000 C 
BRANCH  18  19
ATOM     19  C   UNL     1       5.282   2.827  11.642  0.00  0.00    +0.000 C 
ATOM     20  O   UNL     1       5.471   1.644  11.403  0.00  0.00    +0.000 OA
BRANCH  19  22
ATOM     21  C   UNL     1       3.349   3.268  10.412  0.00  0.00    +0.000 C 
ATOM     22  O   UNL     1       4.051   3.420  11.648  0.00  0.00    +0.000 OA
ENDBRANCH  19  22
ENDBRANCH  18  19
ENDBRANCH  12  18
ENDBRANCH  11  15
ENDBRANCH  10  11
ENDBRANCH   1  10
BRANCH   9  23
ATOM     23  C   UNL     1       3.243   6.908  17.642  0.00  0.00    +0.000 C 
BRANCH  23  24
ATOM     24  C   UNL     1       2.353   7.811  18.483  0.00  0.00    +0.000 A 
ATOM     25  C   UNL     1       2.113   7.550  19.834  0.00  0.00    +0.000 A 
ATOM     26  C   UNL     1       1.313   8.402  20.603  0.00  0.00    +0.000 A 
ATOM     27  C   UNL     1       0.756   9.545  20.040  0.00  0.00    +0.000 A 
ATOM     28 CL   UNL     1      -0.190  10.598  21.019  0.00  0.00    +0.000 Cl
ATOM     29  C   UNL     1       0.968   9.833  18.693  0.00  0.00    +0.000 A 
ATOM     30  C   UNL     1       1.760   8.966  17.918  0.00  0.00    +0.000 A 
ENDBRANCH  23  24
ENDBRANCH   9  23
TORSDOF 8
ENDMDL
MODEL 2
REMARK VINA RESULT:      -7.9      3.816      6.382
REMARK  Name = 
REMARK  9 active torsions:
REMARK  status: ('A' for Active; 'I' for Inactive)
REMARK    1  A    between atoms: C_1  and  O_2
REMARK    2  A    between atoms: O_2  and  C_3
REMARK    3  A    between atoms: C_3  and  C_5
REMARK    4  A    between atoms: C_5  and  C_6
REMARK    5  A    between atoms: C_9  and  C_10
REMARK    6  A    between atoms: C_10  and  S_11
REMARK    7  A    between atoms: S_11  and  C_12
REMARK    8  A    between atoms: N_20  and  C_21
REMARK    9  A    between atoms: C_21  and  C_22
REMARK                            x       y       z     vdW  Elec       q    Type
REMARK                         _______ _______ _______ _____ _____    ______ ____
ROOT
ATOM      1  C   UNL     1       0.238   9.780  18.172  0.00  0.00    +0.000 A 
ATOM      2  N   UNL     1      -0.716   9.335  17.392  0.00  0.00    +0.000 NA
ATOM      3  C   UNL     1      -1.826  10.069  17.727  0.00  0.00    +0.000 A 
ATOM      4  C   UNL     1      -3.094  10.053  17.117  0.00  0.00    +0.000 A 
ATOM      5  C   UNL     1      -4.059  10.992  17.497  0.00  0.00    +0.000 A 
ATOM      6  C   UNL     1      -3.747  11.925  18.480  0.00  0.00    +0.000 A 
ATOM      7  C   UNL     1      -2.514  11.917  19.164  0.00  0.00    +0.000 A 
ATOM      8  C   UNL     1      -1.551  10.961  18.772  0.00  0.00    +0.000 A 
ATOM      9  N   UNL     1      -0.258  10.602  19.175  0.00  0.00    +0.000 N 
ENDROOT
BRANCH   1  10
ATOM     10  S   UNL     1       1.935   9.461  17.956  0.00  0.00    +0.000 S 
BRANCH  10  11
ATOM     11  C   UNL     1       2.207   7.916  18.903  0.00  0.00    +0.000 C 
BRANCH  11  15
ATOM     12  C   UNL     1       4.609   4.977  16.761  0.00  0.00    +0.000 A 
ATOM     13  C   UNL     1       3.503   4.585  17.525  0.00  0.00    +0.000 A 
ATOM     14  C   UNL     1       2.732   5.538  18.199  0.00  0.00    +0.000 A 
ATOM     15  C   UNL     1       3.035   6.904  18.116  0.00  0.00    +0.000 A 
ATOM     16  C   UNL     1       4.110   7.298  17.302  0.00  0.00    +0.000 A 
ATOM     17  C   UNL     1       4.885   6.343  16.630  0.00  0.00    +0.000 A 
BRANCH  12  18
ATOM     18  C   UNL     1       5.491   3.948  16.091  0.00  0.00    +0.000 C 
BRANCH  18  19
ATOM     19  C   UNL     1       6.894   4.431  15.795  0.00  0.00    +0.000 C 
ATOM     20  O   UNL     1       7.815   4.513  16.593  0.00  0.00    +0.000 OA
BRANCH  19  22
ATOM     21  C   UNL     1       6.290   3.896  13.606  0.00  0.00    +0.000 C 
ATOM     22  O   UNL     1       6.986   4.788  14.480  0.00  0.00    +0.000 OA
ENDBRANCH  19  22
ENDBRANCH  18  19
ENDBRANCH  12  18
ENDBRANCH  11  15
ENDBRANCH  10  11
ENDBRANCH   1  10
BRANCH   9  23
ATOM     23  C   UNL     1       0.354  10.724  20.519  0.00  0.00    +0.000 C 
BRANCH  23  24
ATOM     24  C   UNL     1      -0.233  11.737  21.489  0.00  0.00    +0.000 A 
ATOM     25  C   UNL     1      -1.168  11.366  22.458  0.00  0.00    +0.000 A 
ATOM     26  C   UNL     1      -1.682  12.302  23.363  0.00  0.00    +0.000 A 
ATOM     27  C   UNL     1      -1.254  13.625  23.327  0.00  0.00    +0.000 A 
ATOM     28 CL   UNL     1      -1.872  14.748  24.476  0.00  0.00    +0.000 Cl
ATOM     29  C   UNL     1      -0.329  14.033  22.368  0.00  0.00    +0.000 A 
ATOM     30  C   UNL     1       0.175  13.093  21.451  0.00  0.00    +0.000 A 
ENDBRANCH  23  24
ENDBRANCH   9  23
TORSDOF 8
ENDMDL
MODEL 3
REMARK VINA RESULT:      -7.9      3.921      8.108
REMARK  Name = 
REMARK  9 active torsions:
REMARK  status: ('A' for Active; 'I' for Inactive)
REMARK    1  A    between atoms: C_1  and  O_2
REMARK    2  A    between atoms: O_2  and  C_3
REMARK    3  A    between atoms: C_3  and  C_5
REMARK    4  A    between atoms: C_5  and  C_6
REMARK    5  A    between atoms: C_9  and  C_10
REMARK    6  A    between atoms: C_10  and  S_11
REMARK    7  A    between atoms: S_11  and  C_12
REMARK    8  A    between atoms: N_20  and  C_21
REMARK    9  A    between atoms: C_21  and  C_22
REMARK                            x       y       z     vdW  Elec       q    Type
REMARK                         _______ _______ _______ _____ _____    ______ ____
ROOT
ATOM      1  C   UNL     1       6.116   5.308  16.189  0.00  0.00    +0.000 A 
ATOM      2  N   UNL     1       7.010   5.845  15.397  0.00  0.00    +0.000 NA
ATOM      3  C   UNL     1       7.004   5.067  14.267  0.00  0.00    +0.000 A 
ATOM      4  C   UNL     1       7.711   5.271  13.068  0.00  0.00    +0.000 A 
ATOM      5  C   UNL     1       7.454   4.455  11.962  0.00  0.00    +0.000 A 
ATOM      6  C   UNL     1       6.503   3.446  12.071  0.00  0.00    +0.000 A 
ATOM      7  C   UNL     1       5.835   3.165  13.281  0.00  0.00    +0.000 A 
ATOM      8  C   UNL     1       6.108   3.997  14.390  0.00  0.00    +0.000 A 
ATOM      9  N   UNL     1       5.700   4.065  15.729  0.00  0.00    +0.000 N 
ENDROOT
BRANCH   1  10
ATOM     10  S   UNL     1       5.453   6.066  17.608  0.00  0.00    +0.000 S 
BRANCH  10  11
ATOM     11  C   UNL     1       4.008   6.992  16.967  0.00  0.00    +0.000 C 
BRANCH  11  15
ATOM     12  C   UNL     1       1.378   8.355  20.164  0.00  0.00    +0.000 A 
ATOM     13  C   UNL     1       2.093   7.157  20.280  0.00  0.00    +0.000 A 
ATOM     14  C   UNL     1       2.944   6.735  19.253  0.00  0.00    +0.000 A 
ATOM     15  C   UNL     1       3.113   7.502  18.092  0.00  0.00    +0.000 A 
ATOM     16  C   UNL     1       2.439   8.731  18.003  0.00  0.00    +0.000 A 
ATOM     17  C   UNL     1       1.583   9.153  19.031  0.00  0.00    +0.000 A 
BRANCH  12  18
ATOM     18  C   UNL     1       0.400   8.781  21.235  0.00  0.00    +0.000 C 
BRANCH  18  19
ATOM     19  C   UNL     1      -0.225  10.139  21.001  0.00  0.00    +0.000 C 
ATOM     20  O   UNL     1      -0.953  10.450  20.071  0.00  0.00    +0.000 OA
BRANCH  19  22
ATOM     21  C   UNL     1      -0.906  11.359  22.869  0.00  0.00    +0.000 C 
ATOM     22  O   UNL     1       0.162  10.997  21.991  0.00  0.00    +0.000 OA
ENDBRANCH  19  22
ENDBRANCH  18  19
ENDBRANCH  12  18
ENDBRANCH  11  15
ENDBRANCH  10  11
ENDBRANCH   1  10
BRANCH   9  23
ATOM     23  C   UNL     1       5.264   2.961  16.615  0.00  0.00    +0.000 C 
BRANCH  23  24
ATOM     24  C   UNL     1       4.072   3.200  17.530  0.00  0.00    +0.000 A 
ATOM     25  C   UNL     1       2.813   3.529  17.021  0.00  0.00    +0.000 A 
ATOM     26  C   UNL     1       1.718   3.720  17.871  0.00  0.00    +0.000 A 
ATOM     27  C   UNL     1       1.858   3.565  19.247  0.00  0.00    +0.000 A 
ATOM     28 CL   UNL     1       0.486   3.767  20.266  0.00  0.00    +0.000 Cl
ATOM     29  C   UNL     1       3.101   3.246  19.789  0.00  0.00    +0.000 A 
ATOM     30  C   UNL     1       4.203   3.068  18.934  0.00  0.00    +0.000 A 
ENDBRANCH  23  24
ENDBRANCH   9  23
TORSDOF 8
ENDMDL
MODEL 4
REMARK VINA RESULT:      -7.8      4.993      9.032
REMARK  Name = 
REMARK  9 active torsions:
REMARK  status: ('A' for Active; 'I' for Inactive)
REMARK    1  A    between atoms: C_1  and  O_2
REMARK    2  A    between atoms: O_2  and  C_3
REMARK    3  A    between atoms: C_3  and  C_5
REMARK    4  A    between atoms: C_5  and  C_6
REMARK    5  A    between atoms: C_9  and  C_10
REMARK    6  A    between atoms: C_10  and  S_11
REMARK    7  A    between atoms: S_11  and  C_12
REMARK    8  A    between atoms: N_20  and  C_21
REMARK    9  A    between atoms: C_21  and  C_22
REMARK                            x       y       z     vdW  Elec       q    Type
REMARK                         _______ _______ _______ _____ _____    ______ ____
ROOT
ATOM      1  C   UNL     1       3.132   6.009  18.047  0.00  0.00    +0.000 A 
ATOM      2  N   UNL     1       1.929   5.526  17.860  0.00  0.00    +0.000 NA
ATOM      3  C   UNL     1       1.993   4.223  18.285  0.00  0.00    +0.000 A 
ATOM      4  C   UNL     1       0.944   3.291  18.390  0.00  0.00    +0.000 A 
ATOM      5  C   UNL     1       1.173   2.053  18.999  0.00  0.00    +0.000 A 
ATOM      6  C   UNL     1       2.443   1.763  19.487  0.00  0.00    +0.000 A 
ATOM      7  C   UNL     1       3.533   2.644  19.327  0.00  0.00    +0.000 A 
ATOM      8  C   UNL     1       3.286   3.888  18.707  0.00  0.00    +0.000 A 
ATOM      9  N   UNL     1       4.048   5.008  18.347  0.00  0.00    +0.000 N 
ENDROOT
BRANCH   1  10
ATOM     10  S   UNL     1       3.549   7.698  18.010  0.00  0.00    +0.000 S 
BRANCH  10  11
ATOM     11  C   UNL     1       1.934   8.535  17.782  0.00  0.00    +0.000 C 
BRANCH  11  15
ATOM     12  C   UNL     1       0.134   9.678  21.583  0.00  0.00    +0.000 A 
ATOM     13  C   UNL     1      -0.240  10.308  20.390  0.00  0.00    +0.000 A 
ATOM     14  C   UNL     1       0.336   9.925  19.174  0.00  0.00    +0.000 A 
ATOM     15  C   UNL     1       1.287   8.897  19.115  0.00  0.00    +0.000 A 
ATOM     16  C   UNL     1       1.617   8.229  20.306  0.00  0.00    +0.000 A 
ATOM     17  C   UNL     1       1.043   8.615  21.525  0.00  0.00    +0.000 A 
BRANCH  12  18
ATOM     18  C   UNL     1      -0.427  10.137  22.910  0.00  0.00    +0.000 C 
BRANCH  18  19
ATOM     19  C   UNL     1      -1.113  11.485  22.862  0.00  0.00    +0.000 C 
ATOM     20  O   UNL     1      -2.307  11.683  22.698  0.00  0.00    +0.000 OA
BRANCH  19  22
ATOM     21  C   UNL     1      -0.372  13.563  22.105  0.00  0.00    +0.000 C 
ATOM     22  O   UNL     1      -0.185  12.476  23.014  0.00  0.00    +0.000 OA
ENDBRANCH  19  22
ENDBRANCH  18  19
ENDBRANCH  12  18
ENDBRANCH  11  15
ENDBRANCH  10  11
ENDBRANCH   1  10
BRANCH   9  23
ATOM     23  C   UNL     1       5.482   5.067  17.982  0.00  0.00    +0.000 C 
BRANCH  23  24
ATOM     24  C   UNL     1       5.869   4.791  16.537  0.00  0.00    +0.000 A 
ATOM     25  C   UNL     1       5.086   3.982  15.710  0.00  0.00    +0.000 A 
ATOM     26  C   UNL     1       5.439   3.757  14.375  0.00  0.00    +0.000 A 
ATOM     27  C   UNL     1       6.574   4.354  13.836  0.00  0.00    +0.000 A 
ATOM     28 CL   UNL     1       6.964   4.092  12.180  0.00  0.00    +0.000 Cl
ATOM     29  C   UNL     1       7.383   5.159  14.634  0.00  0.00    +0.000 A 
ATOM     30  C   UNL     1       7.034   5.373  15.979  0.00  0.00    +0.000 A 
ENDBRANCH  23  24
ENDBRANCH   9  23
TORSDOF 8
ENDMDL
MODEL 5
REMARK VINA RESULT:      -7.6      0.670      1.615
REMARK  Name = 
REMARK  9 active torsions:
REMARK  status: ('A' for Active; 'I' for Inactive)
REMARK    1  A    between atoms: C_1  and  O_2
REMARK    2  A    between atoms: O_2  and  C_3
REMARK    3  A    between atoms: C_3  and  C_5
REMARK    4  A    between atoms: C_5  and  C_6
REMARK    5  A    between atoms: C_9  and  C_10
REMARK    6  A    between atoms: C_10  and  S_11
REMARK    7  A    between atoms: S_11  and  C_12
REMARK    8  A    between atoms: N_20  and  C_21
REMARK    9  A    between atoms: C_21  and  C_22
REMARK                            x       y       z     vdW  Elec       q    Type
REMARK                         _______ _______ _______ _____ _____    ______ ____
ROOT
ATOM      1  C   UNL     1       4.632   5.419  18.676  0.00  0.00    +0.000 A 
ATOM      2  N   UNL     1       4.628   4.425  19.528  0.00  0.00    +0.000 NA
ATOM      3  C   UNL     1       3.383   3.861  19.418  0.00  0.00    +0.000 A 
ATOM      4  C   UNL     1       2.897   2.699  20.045  0.00  0.00    +0.000 A 
ATOM      5  C   UNL     1       1.646   2.186  19.685  0.00  0.00    +0.000 A 
ATOM      6  C   UNL     1       0.900   2.843  18.713  0.00  0.00    +0.000 A 
ATOM      7  C   UNL     1       1.324   4.052  18.123  0.00  0.00    +0.000 A 
ATOM      8  C   UNL     1       2.587   4.558  18.499  0.00  0.00    +0.000 A 
ATOM      9  N   UNL     1       3.359   5.686  18.189  0.00  0.00    +0.000 N 
ENDROOT
BRANCH   1  10
ATOM     10  S   UNL     1       6.052   6.270  18.139  0.00  0.00    +0.000 S 
BRANCH  10  11
ATOM     11  C   UNL     1       7.167   4.931  17.571  0.00  0.00    +0.000 C 
BRANCH  11  15
ATOM     12  C   UNL     1       6.586   4.162  13.320  0.00  0.00    +0.000 A 
ATOM     13  C   UNL     1       7.505   5.123  13.760  0.00  0.00    +0.000 A 
ATOM     14  C   UNL     1       7.693   5.353  15.127  0.00  0.00    +0.000 A 
ATOM     15  C   UNL     1       6.979   4.623  16.088  0.00  0.00    +0.000 A 
ATOM     16  C   UNL     1       6.101   3.621  15.645  0.00  0.00    +0.000 A 
ATOM     17  C   UNL     1       5.910   3.393  14.275  0.00  0.00    +0.000 A 
BRANCH  12  18
ATOM     18  C   UNL     1       6.322   3.960  11.845  0.00  0.00    +0.000 C 
BRANCH  18  19
ATOM     19  C   UNL     1       5.681   2.633  11.505  0.00  0.00    +0.000 C 
ATOM     20  O   UNL     1       4.483   2.397  11.464  0.00  0.00    +0.000 OA
BRANCH  19  22
ATOM     21  C   UNL     1       6.152   0.368  11.207  0.00  0.00    +0.000 C 
ATOM     22  O   UNL     1       6.654   1.705  11.260  0.00  0.00    +0.000 OA
ENDBRANCH  19  22
ENDBRANCH  18  19
ENDBRANCH  12  18
ENDBRANCH  11  15
ENDBRANCH  10  11
ENDBRANCH   1  10
BRANCH   9  23
ATOM     23  C   UNL     1       2.898   7.033  17.781  0.00  0.00    +0.000 C 
BRANCH  23  24
ATOM     24  C   UNL     1       2.162   7.883  18.805  0.00  0.00    +0.000 A 
ATOM     25  C   UNL     1       1.571   9.100  18.457  0.00  0.00    +0.000 A 
ATOM     26  C   UNL     1       0.875   9.861  19.402  0.00  0.00    +0.000 A 
ATOM     27  C   UNL     1       0.738   9.408  20.710  0.00  0.00    +0.000 A 
ATOM     28 CL   UNL     1      -0.158  10.345  21.843  0.00  0.00    +0.000 Cl
ATOM     29  C   UNL     1       1.322   8.203  21.094  0.00  0.00    +0.000 A 
ATOM     30  C   UNL     1       2.034   7.447  20.146  0.00  0.00    +0.000 A 
ENDBRANCH  23  24
ENDBRANCH   9  23
TORSDOF 8
ENDMDL
MODEL 6
REMARK VINA RESULT:      -7.6      3.536      5.790
REMARK  Name = 
REMARK  9 active torsions:
REMARK  status: ('A' for Active; 'I' for Inactive)
REMARK    1  A    between atoms: C_1  and  O_2
REMARK    2  A    between atoms: O_2  and  C_3
REMARK    3  A    between atoms: C_3  and  C_5
REMARK    4  A    between atoms: C_5  and  C_6
REMARK    5  A    between atoms: C_9  and  C_10
REMARK    6  A    between atoms: C_10  and  S_11
REMARK    7  A    between atoms: S_11  and  C_12
REMARK    8  A    between atoms: N_20  and  C_21
REMARK    9  A    between atoms: C_21  and  C_22
REMARK                            x       y       z     vdW  Elec       q    Type
REMARK                         _______ _______ _______ _____ _____    ______ ____
ROOT
ATOM      1  C   UNL     1       1.397   9.359  19.486  0.00  0.00    +0.000 A 
ATOM      2  N   UNL     1       1.303   8.804  20.668  0.00  0.00    +0.000 NA
ATOM      3  C   UNL     1       0.498   9.643  21.397  0.00  0.00    +0.000 A 
ATOM      4  C   UNL     1       0.003   9.456  22.700  0.00  0.00    +0.000 A 
ATOM      5  C   UNL     1      -0.939  10.350  23.221  0.00  0.00    +0.000 A 
ATOM      6  C   UNL     1      -1.365  11.417  22.438  0.00  0.00    +0.000 A 
ATOM      7  C   UNL     1      -0.829  11.676  21.159  0.00  0.00    +0.000 A 
ATOM      8  C   UNL     1       0.122  10.766  20.649  0.00  0.00    +0.000 A 
ATOM      9  N   UNL     1       0.890  10.653  19.482  0.00  0.00    +0.000 N 
ENDROOT
BRANCH   1  10
ATOM     10  S   UNL     1       2.003   8.572  18.057  0.00  0.00    +0.000 S 
BRANCH  10  11
ATOM     11  C   UNL     1       2.330   6.857  18.616  0.00  0.00    +0.000 C 
BRANCH  11  15
ATOM     12  C   UNL     1       5.506   4.891  16.371  0.00  0.00    +0.000 A 
ATOM     13  C   UNL     1       4.421   4.163  16.873  0.00  0.00    +0.000 A 
ATOM     14  C   UNL     1       3.401   4.806  17.582  0.00  0.00    +0.000 A 
ATOM     15  C   UNL     1       3.430   6.191  17.796  0.00  0.00    +0.000 A 
ATOM     16  C   UNL     1       4.491   6.926  17.242  0.00  0.00    +0.000 A 
ATOM     17  C   UNL     1       5.515   6.282  16.535  0.00  0.00    +0.000 A 
BRANCH  12  18
ATOM     18  C   UNL     1       6.650   4.193  15.670  0.00  0.00    +0.000 C 
BRANCH  18  19
ATOM     19  C   UNL     1       6.779   4.534  14.202  0.00  0.00    +0.000 C 
ATOM     20  O   UNL     1       7.475   5.415  13.722  0.00  0.00    +0.000 OA
BRANCH  19  22
ATOM     21  C   UNL     1       6.482   3.449  12.158  0.00  0.00    +0.000 C 
ATOM     22  O   UNL     1       5.974   3.709  13.468  0.00  0.00    +0.000 OA
ENDBRANCH  19  22
ENDBRANCH  18  19
ENDBRANCH  12  18
ENDBRANCH  11  15
ENDBRANCH  10  11
ENDBRANCH   1  10
BRANCH   9  23
ATOM     23  C   UNL     1       1.396  11.733  18.604  0.00  0.00    +0.000 C 
BRANCH  23  24
ATOM     24  C   UNL     1       1.536  13.130  19.189  0.00  0.00    +0.000 A 
ATOM     25  C   UNL     1       0.633  14.149  18.876  0.00  0.00    +0.000 A 
ATOM     26  C   UNL     1       0.758  15.423  19.441  0.00  0.00    +0.000 A 
ATOM     27  C   UNL     1       1.778  15.696  20.346  0.00  0.00    +0.000 A 
ATOM     28 CL   UNL     1       1.885  17.261  21.056  0.00  0.00    +0.000 Cl
ATOM     29  C   UNL     1       2.702  14.707  20.674  0.00  0.00    +0.000 A 
ATOM     30  C   UNL     1       2.583  13.430  20.094  0.00  0.00    +0.000 A 
ENDBRANCH  23  24
ENDBRANCH   9  23
TORSDOF 8
ENDMDL
MODEL 7
REMARK VINA RESULT:      -7.6      4.143      6.879
REMARK  Name = 
REMARK  9 active torsions:
REMARK  status: ('A' for Active; 'I' for Inactive)
REMARK    1  A    between atoms: C_1  and  O_2
REMARK    2  A    between atoms: O_2  and  C_3
REMARK    3  A    between atoms: C_3  and  C_5
REMARK    4  A    between atoms: C_5  and  C_6
REMARK    5  A    between atoms: C_9  and  C_10
REMARK    6  A    between atoms: C_10  and  S_11
REMARK    7  A    between atoms: S_11  and  C_12
REMARK    8  A    between atoms: N_20  and  C_21
REMARK    9  A    between atoms: C_21  and  C_22
REMARK                            x       y       z     vdW  Elec       q    Type
REMARK                         _______ _______ _______ _____ _____    ______ ____
ROOT
ATOM      1  C   UNL     1      -0.125   9.936  18.262  0.00  0.00    +0.000 A 
ATOM      2  N   UNL     1      -0.982   9.574  17.341  0.00  0.00    +0.000 NA
ATOM      3  C   UNL     1      -2.136  10.255  17.633  0.00  0.00    +0.000 A 
ATOM      4  C   UNL     1      -3.331  10.297  16.893  0.00  0.00    +0.000 A 
ATOM      5  C   UNL     1      -4.350  11.179  17.267  0.00  0.00    +0.000 A 
ATOM      6  C   UNL     1      -4.163  11.998  18.375  0.00  0.00    +0.000 A 
ATOM      7  C   UNL     1      -3.010  11.925  19.183  0.00  0.00    +0.000 A 
ATOM      8  C   UNL     1      -1.992  11.027  18.794  0.00  0.00    +0.000 A 
ATOM      9  N   UNL     1      -0.741  10.637  19.292  0.00  0.00    +0.000 N 
ENDROOT
BRANCH   1  10
ATOM     10  S   UNL     1       1.592   9.659  18.197  0.00  0.00    +0.000 S 
BRANCH  10  11
ATOM     11  C   UNL     1       1.823   8.150  19.211  0.00  0.00    +0.000 C 
BRANCH  11  15
ATOM     12  C   UNL     1       4.615   5.405  17.296  0.00  0.00    +0.000 A 
ATOM     13  C   UNL     1       4.548   6.749  16.912  0.00  0.00    +0.000 A 
ATOM     14  C   UNL     1       3.657   7.625  17.541  0.00  0.00    +0.000 A 
ATOM     15  C   UNL     1       2.821   7.185  18.577  0.00  0.00    +0.000 A 
ATOM     16  C   UNL     1       2.931   5.850  18.999  0.00  0.00    +0.000 A 
ATOM     17  C   UNL     1       3.821   4.971  18.366  0.00  0.00    +0.000 A 
BRANCH  12  18
ATOM     18  C   UNL     1       5.520   4.435  16.570  0.00  0.00    +0.000 C 
BRANCH  18  19
ATOM     19  C   UNL     1       6.970   4.501  16.998  0.00  0.00    +0.000 C 
ATOM     20  O   UNL     1       7.386   4.490  18.147  0.00  0.00    +0.000 OA
BRANCH  19  22
ATOM     21  C   UNL     1       7.032   4.763  14.681  0.00  0.00    +0.000 C 
ATOM     22  O   UNL     1       7.769   4.593  15.894  0.00  0.00    +0.000 OA
ENDBRANCH  19  22
ENDBRANCH  18  19
ENDBRANCH  12  18
ENDBRANCH  11  15
ENDBRANCH  10  11
ENDBRANCH   1  10
BRANCH   9  23
ATOM     23  C   UNL     1      -0.277  10.613  20.698  0.00  0.00    +0.000 C 
BRANCH  23  24
ATOM     24  C   UNL     1      -0.559  11.827  21.571  0.00  0.00    +0.000 A 
ATOM     25  C   UNL     1      -1.490  11.780  22.611  0.00  0.00    +0.000 A 
ATOM     26  C   UNL     1      -1.722  12.895  23.424  0.00  0.00    +0.000 A 
ATOM     27  C   UNL     1      -1.011  14.074  23.223  0.00  0.00    +0.000 A 
ATOM     28 CL   UNL     1      -1.287  15.418  24.261  0.00  0.00    +0.000 Cl
ATOM     29  C   UNL     1      -0.081  14.159  22.189  0.00  0.00    +0.000 A 
ATOM     30  C   UNL     1       0.140  13.041  21.364  0.00  0.00    +0.000 A 
ENDBRANCH  23  24
ENDBRANCH   9  23
TORSDOF 8
ENDMDL
MODEL 8
REMARK VINA RESULT:      -7.6      0.719      1.426
REMARK  Name = 
REMARK  9 active torsions:
REMARK  status: ('A' for Active; 'I' for Inactive)
REMARK    1  A    between atoms: C_1  and  O_2
REMARK    2  A    between atoms: O_2  and  C_3
REMARK    3  A    between atoms: C_3  and  C_5
REMARK    4  A    between atoms: C_5  and  C_6
REMARK    5  A    between atoms: C_9  and  C_10
REMARK    6  A    between atoms: C_10  and  S_11
REMARK    7  A    between atoms: S_11  and  C_12
REMARK    8  A    between atoms: N_20  and  C_21
REMARK    9  A    between atoms: C_21  and  C_22
REMARK                            x       y       z     vdW  Elec       q    Type
REMARK                         _______ _______ _______ _____ _____    ______ ____
ROOT
ATOM      1  C   UNL     1       5.034   4.583  18.780  0.00  0.00    +0.000 A 
ATOM      2  N   UNL     1       4.761   3.657  19.665  0.00  0.00    +0.000 NA
ATOM      3  C   UNL     1       3.428   3.379  19.498  0.00  0.00    +0.000 A 
ATOM      4  C   UNL     1       2.661   2.387  20.134  0.00  0.00    +0.000 A 
ATOM      5  C   UNL     1       1.348   2.148  19.716  0.00  0.00    +0.000 A 
ATOM      6  C   UNL     1       0.820   2.907  18.677  0.00  0.00    +0.000 A 
ATOM      7  C   UNL     1       1.536   3.961  18.072  0.00  0.00    +0.000 A 
ATOM      8  C   UNL     1       2.859   4.191  18.507  0.00  0.00    +0.000 A 
ATOM      9  N   UNL     1       3.880   5.102  18.206  0.00  0.00    +0.000 N 
ENDROOT
BRANCH   1  10
ATOM     10  S   UNL     1       6.635   5.069  18.302  0.00  0.00    +0.000 S 
BRANCH  10  11
ATOM     11  C   UNL     1       6.342   6.151  16.853  0.00  0.00    +0.000 C 
BRANCH  11  15
ATOM     12  C   UNL     1       6.498   4.037  13.044  0.00  0.00    +0.000 A 
ATOM     13  C   UNL     1       7.524   4.910  13.427  0.00  0.00    +0.000 A 
ATOM     14  C   UNL     1       7.470   5.574  14.657  0.00  0.00    +0.000 A 
ATOM     15  C   UNL     1       6.399   5.375  15.540  0.00  0.00    +0.000 A 
ATOM     16  C   UNL     1       5.401   4.455  15.178  0.00  0.00    +0.000 A 
ATOM     17  C   UNL     1       5.453   3.792  13.944  0.00  0.00    +0.000 A 
BRANCH  12  18
ATOM     18  C   UNL     1       6.512   3.374  11.686  0.00  0.00    +0.000 C 
BRANCH  18  19
ATOM     19  C   UNL     1       5.483   2.278  11.519  0.00  0.00    +0.000 C 
ATOM     20  O   UNL     1       5.711   1.093  11.328  0.00  0.00    +0.000 OA
BRANCH  19  22
ATOM     21  C   UNL     1       3.876   3.588  10.451  0.00  0.00    +0.000 C 
ATOM     22  O   UNL     1       4.228   2.813  11.598  0.00  0.00    +0.000 OA
ENDBRANCH  19  22
ENDBRANCH  18  19
ENDBRANCH  12  18
ENDBRANCH  11  15
ENDBRANCH  10  11
ENDBRANCH   1  10
BRANCH   9  23
ATOM     23  C   UNL     1       3.756   6.497  17.723  0.00  0.00    +0.000 C 
BRANCH  23  24
ATOM     24  C   UNL     1       2.811   7.433  18.461  0.00  0.00    +0.000 A 
ATOM     25  C   UNL     1       2.255   8.553  17.837  0.00  0.00    +0.000 A 
ATOM     26  C   UNL     1       1.367   9.393  18.518  0.00  0.00    +0.000 A 
ATOM     27  C   UNL     1       1.003   9.116  19.832  0.00  0.00    +0.000 A 
ATOM     28 CL   UNL     1      -0.122  10.143  20.633  0.00  0.00    +0.000 Cl
ATOM     29  C   UNL     1       1.544   8.013  20.488  0.00  0.00    +0.000 A 
ATOM     30  C   UNL     1       2.448   7.178  19.806  0.00  0.00    +0.000 A 
ENDBRANCH  23  24
ENDBRANCH   9  23
TORSDOF 8
ENDMDL
MODEL 9
REMARK VINA RESULT:      -7.5      4.381      7.796
REMARK  Name = 
REMARK  9 active torsions:
REMARK  status: ('A' for Active; 'I' for Inactive)
REMARK    1  A    between atoms: C_1  and  O_2
REMARK    2  A    between atoms: O_2  and  C_3
REMARK    3  A    between atoms: C_3  and  C_5
REMARK    4  A    between atoms: C_5  and  C_6
REMARK    5  A    between atoms: C_9  and  C_10
REMARK    6  A    between atoms: C_10  and  S_11
REMARK    7  A    between atoms: S_11  and  C_12
REMARK    8  A    between atoms: N_20  and  C_21
REMARK    9  A    between atoms: C_21  and  C_22
REMARK                            x       y       z     vdW  Elec       q    Type
REMARK                         _______ _______ _______ _____ _____    ______ ____
ROOT
ATOM      1  C   UNL     1       0.182  10.780  20.129  0.00  0.00    +0.000 A 
ATOM      2  N   UNL     1       1.365  11.114  19.678  0.00  0.00    +0.000 NA
ATOM      3  C   UNL     1       1.237  12.413  19.257  0.00  0.00    +0.000 A 
ATOM      4  C   UNL     1       2.241  13.275  18.780  0.00  0.00    +0.000 A 
ATOM      5  C   UNL     1       1.948  14.623  18.547  0.00  0.00    +0.000 A 
ATOM      6  C   UNL     1       0.659  15.086  18.788  0.00  0.00    +0.000 A 
ATOM      7  C   UNL     1      -0.388  14.232  19.192  0.00  0.00    +0.000 A 
ATOM      8  C   UNL     1      -0.077  12.874  19.419  0.00  0.00    +0.000 A 
ATOM      9  N   UNL     1      -0.782  11.723  19.796  0.00  0.00    +0.000 N 
ENDROOT
BRANCH   1  10
ATOM     10  S   UNL     1      -0.158   9.375  21.098  0.00  0.00    +0.000 S 
BRANCH  10  11
ATOM     11  C   UNL     1       1.489   8.608  21.339  0.00  0.00    +0.000 C 
BRANCH  11  15
ATOM     12  C   UNL     1       2.354   5.425  18.491  0.00  0.00    +0.000 A 
ATOM     13  C   UNL     1       1.861   5.135  19.769  0.00  0.00    +0.000 A 
ATOM     14  C   UNL     1       1.575   6.165  20.671  0.00  0.00    +0.000 A 
ATOM     15  C   UNL     1       1.761   7.509  20.317  0.00  0.00    +0.000 A 
ATOM     16  C   UNL     1       2.201   7.798  19.015  0.00  0.00    +0.000 A 
ATOM     17  C   UNL     1       2.491   6.766  18.112  0.00  0.00    +0.000 A 
BRANCH  12  18
ATOM     18  C   UNL     1       2.736   4.315  17.537  0.00  0.00    +0.000 C 
BRANCH  18  19
ATOM     19  C   UNL     1       3.997   3.572  17.923  0.00  0.00    +0.000 C 
ATOM     20  O   UNL     1       4.065   2.416  18.310  0.00  0.00    +0.000 OA
BRANCH  19  22
ATOM     21  C   UNL     1       5.851   4.127  16.621  0.00  0.00    +0.000 C 
ATOM     22  O   UNL     1       5.075   4.401  17.790  0.00  0.00    +0.000 OA
ENDBRANCH  19  22
ENDBRANCH  18  19
ENDBRANCH  12  18
ENDBRANCH  11  15
ENDBRANCH  10  11
ENDBRANCH   1  10
BRANCH   9  23
ATOM     23  C   UNL     1      -2.206  11.396  19.554  0.00  0.00    +0.000 C 
BRANCH  23  24
ATOM     24  C   UNL     1      -2.638  11.063  18.134  0.00  0.00    +0.000 A 
ATOM     25  C   UNL     1      -1.906  10.183  17.333  0.00  0.00    +0.000 A 
ATOM     26  C   UNL     1      -2.329   9.866  16.037  0.00  0.00    +0.000 A 
ATOM     27  C   UNL     1      -3.503  10.407  15.525  0.00  0.00    +0.000 A 
ATOM     28 CL   UNL     1      -4.020   9.969  13.943  0.00  0.00    +0.000 Cl
ATOM     29  C   UNL     1      -4.253  11.295  16.293  0.00  0.00    +0.000 A 
ATOM     30  C   UNL     1      -3.819  11.625  17.590  0.00  0.00    +0.000 A 
ENDBRANCH  23  24
ENDBRANCH   9  23
TORSDOF 8
ENDMDL
