MODEL 1
REMARK VINA RESULT:      -6.3      0.000      0.000
REMARK  Name = 
REMARK  7 active torsions:
REMARK  status: ('A' for Active; 'I' for Inactive)
REMARK    1  A    between atoms: C_1  and  C_2
REMARK    2  A    between atoms: C_2  and  O_3
REMARK    3  A    between atoms: O_3  and  C_4
REMARK    4  A    between atoms: N_7  and  C_8
REMARK    5  A    between atoms: N_7  and  C_9
REMARK    6  A    between atoms: C_9  and  C_10
REMARK    7  A    between atoms: C_10  and  N_11
REMARK                            x       y       z     vdW  Elec       q    Type
REMARK                         _______ _______ _______ _____ _____    ______ ____
ROOT
ATOM      1  C   UNL     1       1.432   8.086  20.044  0.00  0.00    +0.000 A 
ATOM      2  N   UNL     1       1.990   6.863  20.215  0.00  0.00    +0.000 NA
ATOM      3  C   UNL     1       2.842   6.434  19.275  0.00  0.00    +0.000 A 
ATOM      4  N   UNL     1       3.413   5.164  19.358  0.00  0.00    +0.000 N 
ATOM      5  C   UNL     1       2.803   4.249  20.315  0.00  0.00    +0.000 C 
ATOM      6  N   UNL     1       3.154   7.169  18.191  0.00  0.00    +0.000 NA
ATOM      7  C   UNL     1       2.550   8.363  18.040  0.00  0.00    +0.000 A 
ATOM      8  C   UNL     1       1.661   8.880  18.943  0.00  0.00    +0.000 A 
ATOM      9 BR   UNL     1       0.881  10.571  18.669  0.00  0.00    +0.000 Br
ENDROOT
BRANCH   1  10
ATOM     10  O   UNL     1       0.548   8.542  21.004  0.00  0.00    +0.000 OA
BRANCH  10  12
ATOM     11  C   UNL     1       0.166   9.513  23.159  0.00  0.00    +0.000 C 
ATOM     12  C   UNL     1       1.212   9.038  22.166  0.00  0.00    +0.000 C 
ENDBRANCH  10  12
ENDBRANCH   1  10
BRANCH   4  13
ATOM     13  C   UNL     1       4.883   5.213  19.294  0.00  0.00    +0.000 C 
BRANCH  13  14
ATOM     14  C   UNL     1       5.419   4.286  18.202  0.00  0.00    +0.000 C 
BRANCH  14  15
ATOM     15  N   UNL     1       6.290   4.961  17.272  0.00  0.00    +0.000 N 
ATOM     16  C   UNL     1       6.758   6.231  17.372  0.00  0.00    +0.000 A 
ATOM     17  N   UNL     1       7.485   6.509  16.311  0.00  0.00    +0.000 NA
ATOM     18  N   UNL     1       7.483   5.395  15.501  0.00  0.00    +0.000 NA
ATOM     19  C   UNL     1       6.754   4.475  16.091  0.00  0.00    +0.000 A 
ENDBRANCH  14  15
ENDBRANCH  13  14
ENDBRANCH   4  13
TORSDOF 5
ENDMDL
MODEL 2
REMARK VINA RESULT:      -6.2      3.360      6.248
REMARK  Name = 
REMARK  7 active torsions:
REMARK  status: ('A' for Active; 'I' for Inactive)
REMARK    1  A    between atoms: C_1  and  C_2
REMARK    2  A    between atoms: C_2  and  O_3
REMARK    3  A    between atoms: O_3  and  C_4
REMARK    4  A    between atoms: N_7  and  C_8
REMARK    5  A    between atoms: N_7  and  C_9
REMARK    6  A    between atoms: C_9  and  C_10
REMARK    7  A    between atoms: C_10  and  N_11
REMARK                            x       y       z     vdW  Elec       q    Type
REMARK                         _______ _______ _______ _____ _____    ______ ____
ROOT
ATOM      1  C   UNL     1       5.760   5.132  17.014  0.00  0.00    +0.000 A 
ATOM      2  N   UNL     1       4.931   4.101  17.306  0.00  0.00    +0.000 NA
ATOM      3  C   UNL     1       4.792   3.764  18.594  0.00  0.00    +0.000 A 
ATOM      4  N   UNL     1       3.995   2.680  18.964  0.00  0.00    +0.000 N 
ATOM      5  C   UNL     1       3.602   1.777  17.889  0.00  0.00    +0.000 C 
ATOM      6  N   UNL     1       5.437   4.408  19.585  0.00  0.00    +0.000 NA
ATOM      7  C   UNL     1       6.280   5.403  19.250  0.00  0.00    +0.000 A 
ATOM      8  C   UNL     1       6.492   5.812  17.961  0.00  0.00    +0.000 A 
ATOM      9 BR   UNL     1       7.669   7.231  17.581  0.00  0.00    +0.000 Br
ENDROOT
BRANCH   1  10
ATOM     10  O   UNL     1       5.918   5.491  15.688  0.00  0.00    +0.000 OA
BRANCH  10  12
ATOM     11  C   UNL     1       6.098   3.908  13.901  0.00  0.00    +0.000 C 
ATOM     12  C   UNL     1       6.840   4.647  15.000  0.00  0.00    +0.000 C 
ENDBRANCH  10  12
ENDBRANCH   1  10
BRANCH   4  13
ATOM     13  C   UNL     1       2.973   3.056  19.955  0.00  0.00    +0.000 C 
BRANCH  13  14
ATOM     14  C   UNL     1       1.841   3.853  19.304  0.00  0.00    +0.000 C 
BRANCH  14  15
ATOM     15  N   UNL     1       2.007   5.278  19.445  0.00  0.00    +0.000 N 
ATOM     16  C   UNL     1       1.823   6.011  20.573  0.00  0.00    +0.000 A 
ATOM     17  N   UNL     1       2.022   7.283  20.299  0.00  0.00    +0.000 NA
ATOM     18  N   UNL     1       2.338   7.377  18.962  0.00  0.00    +0.000 NA
ATOM     19  C   UNL     1       2.318   6.163  18.462  0.00  0.00    +0.000 A 
ENDBRANCH  14  15
ENDBRANCH  13  14
ENDBRANCH   4  13
TORSDOF 5
ENDMDL
MODEL 3
REMARK VINA RESULT:      -6.1      4.243      6.693
REMARK  Name = 
REMARK  7 active torsions:
REMARK  status: ('A' for Active; 'I' for Inactive)
REMARK    1  A    between atoms: C_1  and  C_2
REMARK    2  A    between atoms: C_2  and  O_3
REMARK    3  A    between atoms: O_3  and  C_4
REMARK    4  A    between atoms: N_7  and  C_8
REMARK    5  A    between atoms: N_7  and  C_9
REMARK    6  A    between atoms: C_9  and  C_10
REMARK    7  A    between atoms: C_10  and  N_11
REMARK                            x       y       z     vdW  Elec       q    Type
REMARK                         _______ _______ _______ _____ _____    ______ ____
ROOT
ATOM      1  C   UNL     1       6.649   5.732  16.008  0.00  0.00    +0.000 A 
ATOM      2  N   UNL     1       5.680   5.606  16.945  0.00  0.00    +0.000 NA
ATOM      3  C   UNL     1       4.644   4.808  16.661  0.00  0.00    +0.000 A 
ATOM      4  N   UNL     1       3.583   4.671  17.557  0.00  0.00    +0.000 N 
ATOM      5  C   UNL     1       3.520   5.656  18.630  0.00  0.00    +0.000 C 
ATOM      6  N   UNL     1       4.541   4.141  15.496  0.00  0.00    +0.000 NA
ATOM      7  C   UNL     1       5.508   4.323  14.576  0.00  0.00    +0.000 A 
ATOM      8  C   UNL     1       6.600   5.124  14.774  0.00  0.00    +0.000 A 
ATOM      9 BR   UNL     1       7.920   5.301  13.445  0.00  0.00    +0.000 Br
ENDROOT
BRANCH   1  10
ATOM     10  O   UNL     1       7.726   6.555  16.285  0.00  0.00    +0.000 OA
BRANCH  10  12
ATOM     11  C   UNL     1       7.800   8.556  17.597  0.00  0.00    +0.000 C 
ATOM     12  C   UNL     1       7.710   7.041  17.627  0.00  0.00    +0.000 C 
ENDBRANCH  10  12
ENDBRANCH   1  10
BRANCH   4  13
ATOM     13  C   UNL     1       3.327   3.263  17.902  0.00  0.00    +0.000 C 
BRANCH  13  14
ATOM     14  C   UNL     1       1.957   3.097  18.561  0.00  0.00    +0.000 C 
BRANCH  14  15
ATOM     15  N   UNL     1       2.042   2.899  19.987  0.00  0.00    +0.000 N 
ATOM     16  C   UNL     1       3.152   2.578  20.699  0.00  0.00    +0.000 A 
ATOM     17  N   UNL     1       2.827   2.436  21.966  0.00  0.00    +0.000 NA
ATOM     18  N   UNL     1       1.473   2.665  22.077  0.00  0.00    +0.000 NA
ATOM     19  C   UNL     1       1.015   2.935  20.877  0.00  0.00    +0.000 A 
ENDBRANCH  14  15
ENDBRANCH  13  14
ENDBRANCH   4  13
TORSDOF 5
ENDMDL
MODEL 4
REMARK VINA RESULT:      -6.0      3.928      6.708
REMARK  Name = 
REMARK  7 active torsions:
REMARK  status: ('A' for Active; 'I' for Inactive)
REMARK    1  A    between atoms: C_1  and  C_2
REMARK    2  A    between atoms: C_2  and  O_3
REMARK    3  A    between atoms: O_3  and  C_4
REMARK    4  A    between atoms: N_7  and  C_8
REMARK    5  A    between atoms: N_7  and  C_9
REMARK    6  A    between atoms: C_9  and  C_10
REMARK    7  A    between atoms: C_10  and  N_11
REMARK                            x       y       z     vdW  Elec       q    Type
REMARK                         _______ _______ _______ _____ _____    ______ ____
ROOT
ATOM      1  C   UNL     1       6.238   4.867  16.843  0.00  0.00    +0.000 A 
ATOM      2  N   UNL     1       5.285   3.916  16.984  0.00  0.00    +0.000 NA
ATOM      3  C   UNL     1       4.239   4.199  17.771  0.00  0.00    +0.000 A 
ATOM      4  N   UNL     1       3.246   3.247  18.004  0.00  0.00    +0.000 N 
ATOM      5  C   UNL     1       3.566   1.879  17.618  0.00  0.00    +0.000 C 
ATOM      6  N   UNL     1       4.111   5.377  18.410  0.00  0.00    +0.000 NA
ATOM      7  C   UNL     1       5.099   6.282  18.272  0.00  0.00    +0.000 A 
ATOM      8  C   UNL     1       6.208   6.079  17.497  0.00  0.00    +0.000 A 
ATOM      9 BR   UNL     1       7.531   7.408  17.338  0.00  0.00    +0.000 Br
ENDROOT
BRANCH   1  10
ATOM     10  O   UNL     1       7.327   4.590  16.036  0.00  0.00    +0.000 OA
BRANCH  10  12
ATOM     11  C   UNL     1       6.331   3.922  13.964  0.00  0.00    +0.000 C 
ATOM     12  C   UNL     1       7.122   4.999  14.684  0.00  0.00    +0.000 C 
ENDBRANCH  10  12
ENDBRANCH   1  10
BRANCH   4  13
ATOM     13  C   UNL     1       1.903   3.757  17.678  0.00  0.00    +0.000 C 
BRANCH  13  14
ATOM     14  C   UNL     1       0.881   3.332  18.734  0.00  0.00    +0.000 C 
BRANCH  14  15
ATOM     15  N   UNL     1       1.401   3.402  20.077  0.00  0.00    +0.000 N 
ATOM     16  C   UNL     1       1.780   4.521  20.745  0.00  0.00    +0.000 A 
ATOM     17  N   UNL     1       2.246   4.181  21.928  0.00  0.00    +0.000 NA
ATOM     18  N   UNL     1       2.172   2.809  22.027  0.00  0.00    +0.000 NA
ATOM     19  C   UNL     1       1.667   2.356  20.902  0.00  0.00    +0.000 A 
ENDBRANCH  14  15
ENDBRANCH  13  14
ENDBRANCH   4  13
TORSDOF 5
ENDMDL
MODEL 5
REMARK VINA RESULT:      -6.0      2.627      4.111
REMARK  Name = 
REMARK  7 active torsions:
REMARK  status: ('A' for Active; 'I' for Inactive)
REMARK    1  A    between atoms: C_1  and  C_2
REMARK    2  A    between atoms: C_2  and  O_3
REMARK    3  A    between atoms: O_3  and  C_4
REMARK    4  A    between atoms: N_7  and  C_8
REMARK    5  A    between atoms: N_7  and  C_9
REMARK    6  A    between atoms: C_9  and  C_10
REMARK    7  A    between atoms: C_10  and  N_11
REMARK                            x       y       z     vdW  Elec       q    Type
REMARK                         _______ _______ _______ _____ _____    ______ ____
ROOT
ATOM      1  C   UNL     1       3.127   5.151  19.281  0.00  0.00    +0.000 A 
ATOM      2  N   UNL     1       4.139   5.602  18.502  0.00  0.00    +0.000 NA
ATOM      3  C   UNL     1       5.237   4.842  18.413  0.00  0.00    +0.000 A 
ATOM      4  N   UNL     1       6.340   5.268  17.671  0.00  0.00    +0.000 N 
ATOM      5  C   UNL     1       6.347   6.673  17.283  0.00  0.00    +0.000 C 
ATOM      6  N   UNL     1       5.360   3.667  19.060  0.00  0.00    +0.000 NA
ATOM      7  C   UNL     1       4.346   3.273  19.853  0.00  0.00    +0.000 A 
ATOM      8  C   UNL     1       3.189   3.986  20.012  0.00  0.00    +0.000 A 
ATOM      9 BR   UNL     1       1.807   3.349  21.120  0.00  0.00    +0.000 Br
ENDROOT
BRANCH   1  10
ATOM     10  O   UNL     1       1.986   5.925  19.385  0.00  0.00    +0.000 OA
BRANCH  10  12
ATOM     11  C   UNL     1       1.486   7.705  20.907  0.00  0.00    +0.000 C 
ATOM     12  C   UNL     1       2.278   7.291  19.679  0.00  0.00    +0.000 C 
ENDBRANCH  10  12
ENDBRANCH   1  10
BRANCH   4  13
ATOM     13  C   UNL     1       6.747   4.275  16.664  0.00  0.00    +0.000 C 
BRANCH  13  14
ATOM     14  C   UNL     1       5.753   4.227  15.502  0.00  0.00    +0.000 C 
BRANCH  14  15
ATOM     15  N   UNL     1       6.395   4.297  14.213  0.00  0.00    +0.000 N 
ATOM     16  C   UNL     1       7.402   5.131  13.850  0.00  0.00    +0.000 A 
ATOM     17  N   UNL     1       7.691   4.934  12.581  0.00  0.00    +0.000 NA
ATOM     18  N   UNL     1       6.846   3.954  12.109  0.00  0.00    +0.000 NA
ATOM     19  C   UNL     1       6.068   3.587  13.101  0.00  0.00    +0.000 A 
ENDBRANCH  14  15
ENDBRANCH  13  14
ENDBRANCH   4  13
TORSDOF 5
ENDMDL
MODEL 6
REMARK VINA RESULT:      -6.0      2.697      4.358
REMARK  Name = 
REMARK  7 active torsions:
REMARK  status: ('A' for Active; 'I' for Inactive)
REMARK    1  A    between atoms: C_1  and  C_2
REMARK    2  A    between atoms: C_2  and  O_3
REMARK    3  A    between atoms: O_3  and  C_4
REMARK    4  A    between atoms: N_7  and  C_8
REMARK    5  A    between atoms: N_7  and  C_9
REMARK    6  A    between atoms: C_9  and  C_10
REMARK    7  A    between atoms: C_10  and  N_11
REMARK                            x       y       z     vdW  Elec       q    Type
REMARK                         _______ _______ _______ _____ _____    ______ ____
ROOT
ATOM      1  C   UNL     1       3.304   5.227  19.062  0.00  0.00    +0.000 A 
ATOM      2  N   UNL     1       4.350   5.696  18.340  0.00  0.00    +0.000 NA
ATOM      3  C   UNL     1       5.463   4.953  18.307  0.00  0.00    +0.000 A 
ATOM      4  N   UNL     1       6.597   5.398  17.627  0.00  0.00    +0.000 N 
ATOM      5  C   UNL     1       6.604   6.805  17.245  0.00  0.00    +0.000 C 
ATOM      6  N   UNL     1       5.568   3.777  18.955  0.00  0.00    +0.000 NA
ATOM      7  C   UNL     1       4.519   3.365  19.691  0.00  0.00    +0.000 A 
ATOM      8  C   UNL     1       3.344   4.061  19.791  0.00  0.00    +0.000 A 
ATOM      9 BR   UNL     1       1.915   3.399  20.820  0.00  0.00    +0.000 Br
ENDROOT
BRANCH   1  10
ATOM     10  O   UNL     1       2.148   5.985  19.108  0.00  0.00    +0.000 OA
BRANCH  10  12
ATOM     11  C   UNL     1       2.104   8.154  18.095  0.00  0.00    +0.000 C 
ATOM     12  C   UNL     1       2.410   7.366  19.356  0.00  0.00    +0.000 C 
ENDBRANCH  10  12
ENDBRANCH   1  10
BRANCH   4  13
ATOM     13  C   UNL     1       7.072   4.416  16.639  0.00  0.00    +0.000 C 
BRANCH  13  14
ATOM     14  C   UNL     1       6.003   4.136  15.581  0.00  0.00    +0.000 C 
BRANCH  14  15
ATOM     15  N   UNL     1       6.496   4.283  14.234  0.00  0.00    +0.000 N 
ATOM     16  C   UNL     1       6.129   3.556  13.149  0.00  0.00    +0.000 A 
ATOM     17  N   UNL     1       6.830   3.949  12.107  0.00  0.00    +0.000 NA
ATOM     18  N   UNL     1       7.676   4.951  12.528  0.00  0.00    +0.000 NA
ATOM     19  C   UNL     1       7.467   5.135  13.811  0.00  0.00    +0.000 A 
ENDBRANCH  14  15
ENDBRANCH  13  14
ENDBRANCH   4  13
TORSDOF 5
ENDMDL
MODEL 7
REMARK VINA RESULT:      -5.9      4.337      6.631
REMARK  Name = 
REMARK  7 active torsions:
REMARK  status: ('A' for Active; 'I' for Inactive)
REMARK    1  A    between atoms: C_1  and  C_2
REMARK    2  A    between atoms: C_2  and  O_3
REMARK    3  A    between atoms: O_3  and  C_4
REMARK    4  A    between atoms: N_7  and  C_8
REMARK    5  A    between atoms: N_7  and  C_9
REMARK    6  A    between atoms: C_9  and  C_10
REMARK    7  A    between atoms: C_10  and  N_11
REMARK                            x       y       z     vdW  Elec       q    Type
REMARK                         _______ _______ _______ _____ _____    ______ ____
ROOT
ATOM      1  C   UNL     1       6.811   5.746  16.420  0.00  0.00    +0.000 A 
ATOM      2  N   UNL     1       6.072   5.481  17.524  0.00  0.00    +0.000 NA
ATOM      3  C   UNL     1       5.275   4.406  17.491  0.00  0.00    +0.000 A 
ATOM      4  N   UNL     1       4.446   4.101  18.571  0.00  0.00    +0.000 N 
ATOM      5  C   UNL     1       4.268   5.157  19.560  0.00  0.00    +0.000 C 
ATOM      6  N   UNL     1       5.191   3.598  16.417  0.00  0.00    +0.000 NA
ATOM      7  C   UNL     1       5.915   3.918  15.327  0.00  0.00    +0.000 A 
ATOM      8  C   UNL     1       6.750   5.000  15.265  0.00  0.00    +0.000 A 
ATOM      9 BR   UNL     1       7.748   5.361  13.711  0.00  0.00    +0.000 Br
ENDROOT
BRANCH   1  10
ATOM     10  O   UNL     1       7.638   6.855  16.437  0.00  0.00    +0.000 OA
BRANCH  10  12
ATOM     11  C   UNL     1       7.980   8.896  17.639  0.00  0.00    +0.000 C 
ATOM     12  C   UNL     1       7.804   7.393  17.748  0.00  0.00    +0.000 C 
ENDBRANCH  10  12
ENDBRANCH   1  10
BRANCH   4  13
ATOM     13  C   UNL     1       4.656   2.729  19.061  0.00  0.00    +0.000 C 
BRANCH  13  14
ATOM     14  C   UNL     1       3.390   1.885  18.900  0.00  0.00    +0.000 C 
BRANCH  14  15
ATOM     15  N   UNL     1       2.291   2.366  19.701  0.00  0.00    +0.000 N 
ATOM     16  C   UNL     1       1.116   2.870  19.250  0.00  0.00    +0.000 A 
ATOM     17  N   UNL     1       0.384   3.248  20.277  0.00  0.00    +0.000 NA
ATOM     18  N   UNL     1       1.105   2.987  21.420  0.00  0.00    +0.000 NA
ATOM     19  C   UNL     1       2.253   2.463  21.056  0.00  0.00    +0.000 A 
ENDBRANCH  14  15
ENDBRANCH  13  14
ENDBRANCH   4  13
TORSDOF 5
ENDMDL
MODEL 8
REMARK VINA RESULT:      -5.9      2.282      3.165
REMARK  Name = 
REMARK  7 active torsions:
REMARK  status: ('A' for Active; 'I' for Inactive)
REMARK    1  A    between atoms: C_1  and  C_2
REMARK    2  A    between atoms: C_2  and  O_3
REMARK    3  A    between atoms: O_3  and  C_4
REMARK    4  A    between atoms: N_7  and  C_8
REMARK    5  A    between atoms: N_7  and  C_9
REMARK    6  A    between atoms: C_9  and  C_10
REMARK    7  A    between atoms: C_10  and  N_11
REMARK                            x       y       z     vdW  Elec       q    Type
REMARK                         _______ _______ _______ _____ _____    ______ ____
ROOT
ATOM      1  C   UNL     1       2.296   5.486  19.965  0.00  0.00    +0.000 A 
ATOM      2  N   UNL     1       2.841   4.610  19.089  0.00  0.00    +0.000 NA
ATOM      3  C   UNL     1       3.357   5.105  17.957  0.00  0.00    +0.000 A 
ATOM      4  N   UNL     1       3.887   4.257  16.985  0.00  0.00    +0.000 N 
ATOM      5  C   UNL     1       3.566   2.842  17.125  0.00  0.00    +0.000 C 
ATOM      6  N   UNL     1       3.350   6.422  17.674  0.00  0.00    +0.000 NA
ATOM      7  C   UNL     1       2.766   7.256  18.555  0.00  0.00    +0.000 A 
ATOM      8  C   UNL     1       2.206   6.840  19.733  0.00  0.00    +0.000 A 
ATOM      9 BR   UNL     1       1.433   8.076  20.923  0.00  0.00    +0.000 Br
ENDROOT
BRANCH   1  10
ATOM     10  O   UNL     1       1.756   4.990  21.138  0.00  0.00    +0.000 OA
BRANCH  10  12
ATOM     11  C   UNL     1       2.009   2.703  21.798  0.00  0.00    +0.000 C 
ATOM     12  C   UNL     1       1.198   3.687  20.974  0.00  0.00    +0.000 C 
ENDBRANCH  10  12
ENDBRANCH   1  10
BRANCH   4  13
ATOM     13  C   UNL     1       5.270   4.616  16.631  0.00  0.00    +0.000 C 
BRANCH  13  14
ATOM     14  C   UNL     1       6.154   4.703  17.877  0.00  0.00    +0.000 C 
BRANCH  14  15
ATOM     15  N   UNL     1       6.938   5.912  17.923  0.00  0.00    +0.000 N 
ATOM     16  C   UNL     1       7.851   6.254  18.868  0.00  0.00    +0.000 A 
ATOM     17  N   UNL     1       8.325   7.451  18.598  0.00  0.00    +0.000 NA
ATOM     18  N   UNL     1       7.701   7.899  17.454  0.00  0.00    +0.000 NA
ATOM     19  C   UNL     1       6.865   6.964  17.065  0.00  0.00    +0.000 A 
ENDBRANCH  14  15
ENDBRANCH  13  14
ENDBRANCH   4  13
TORSDOF 5
ENDMDL
MODEL 9
REMARK VINA RESULT:      -5.9      2.254      3.367
REMARK  Name = 
REMARK  7 active torsions:
REMARK  status: ('A' for Active; 'I' for Inactive)
REMARK    1  A    between atoms: C_1  and  C_2
REMARK    2  A    between atoms: C_2  and  O_3
REMARK    3  A    between atoms: O_3  and  C_4
REMARK    4  A    between atoms: N_7  and  C_8
REMARK    5  A    between atoms: N_7  and  C_9
REMARK    6  A    between atoms: C_9  and  C_10
REMARK    7  A    between atoms: C_10  and  N_11
REMARK                            x       y       z     vdW  Elec       q    Type
REMARK                         _______ _______ _______ _____ _____    ______ ____
ROOT
ATOM      1  C   UNL     1       2.837   5.825  19.741  0.00  0.00    +0.000 A 
ATOM      2  N   UNL     1       3.505   5.220  18.730  0.00  0.00    +0.000 NA
ATOM      3  C   UNL     1       3.651   5.904  17.588  0.00  0.00    +0.000 A 
ATOM      4  N   UNL     1       4.282   5.324  16.487  0.00  0.00    +0.000 N 
ATOM      5  C   UNL     1       4.474   3.879  16.546  0.00  0.00    +0.000 C 
ATOM      6  N   UNL     1       3.166   7.148  17.422  0.00  0.00    +0.000 NA
ATOM      7  C   UNL     1       2.477   7.700  18.438  0.00  0.00    +0.000 A 
ATOM      8  C   UNL     1       2.270   7.075  19.639  0.00  0.00    +0.000 A 
ATOM      9 BR   UNL     1       1.317   7.929  21.019  0.00  0.00    +0.000 Br
ENDROOT
BRANCH   1  10
ATOM     10  O   UNL     1       2.674   5.131  20.926  0.00  0.00    +0.000 OA
BRANCH  10  12
ATOM     11  C   UNL     1       2.052   2.917  21.590  0.00  0.00    +0.000 C 
ATOM     12  C   UNL     1       1.618   4.174  20.858  0.00  0.00    +0.000 C 
ENDBRANCH  10  12
ENDBRANCH   1  10
BRANCH   4  13
ATOM     13  C   UNL     1       5.398   6.145  15.991  0.00  0.00    +0.000 C 
BRANCH  13  14
ATOM     14  C   UNL     1       6.731   5.406  16.128  0.00  0.00    +0.000 C 
BRANCH  14  15
ATOM     15  N   UNL     1       7.361   5.621  17.407  0.00  0.00    +0.000 N 
ATOM     16  C   UNL     1       7.692   4.673  18.320  0.00  0.00    +0.000 A 
ATOM     17  N   UNL     1       8.205   5.256  19.383  0.00  0.00    +0.000 NA
ATOM     18  N   UNL     1       8.201   6.614  19.155  0.00  0.00    +0.000 NA
ATOM     19  C   UNL     1       7.684   6.817  17.965  0.00  0.00    +0.000 A 
ENDBRANCH  14  15
ENDBRANCH  13  14
ENDBRANCH   4  13
TORSDOF 5
ENDMDL
