MODEL 1
REMARK VINA RESULT:      -5.8      0.000      0.000
REMARK  Name = 
REMARK  8 active torsions:
REMARK  status: ('A' for Active; 'I' for Inactive)
REMARK    1  A    between atoms: C_2  and  C_3
REMARK    2  A    between atoms: C_2  and  C_9
REMARK    3  A    between atoms: C_3  and  O_5
REMARK    4  A    between atoms: O_5  and  C_6
REMARK    5  A    between atoms: C_6  and  C_7
REMARK    6  A    between atoms: C_7  and  O_8
REMARK    7  A    between atoms: C_9  and  O_10
REMARK    8  A    between atoms: C_9  and  C_11
REMARK                            x       y       z     vdW  Elec       q    Type
REMARK                         _______ _______ _______ _____ _____    ______ ____
ROOT
ATOM      1  C   UNL     1       3.650   6.607  17.887  0.00  0.00    +0.000 C 
ATOM      2  C   UNL     1       4.356   5.716  17.163  0.00  0.00    +0.000 C 
ENDROOT
BRANCH   2   3
ATOM      3  C   UNL     1       5.441   6.159  16.245  0.00  0.00    +0.000 C 
ATOM      4  O   UNL     1       5.249   6.781  15.212  0.00  0.00    +0.000 OA
BRANCH   3   5
ATOM      5  O   UNL     1       6.662   5.835  16.745  0.00  0.00    +0.000 OA
BRANCH   5   6
ATOM      6  C   UNL     1       7.145   6.605  17.861  0.00  0.00    +0.000 C 
BRANCH   6   7
ATOM      7  C   UNL     1       7.638   5.775  19.042  0.00  0.00    +0.000 C 
BRANCH   7   8
ATOM      8  O   UNL     1       6.553   5.121  19.694  0.00  0.00    +0.000 OA
ATOM      9  H   UNL     1       6.886   4.253  19.985  0.00  0.00    +0.000 HD
ENDBRANCH   7   8
ENDBRANCH   6   7
ENDBRANCH   5   6
ENDBRANCH   3   5
ENDBRANCH   2   3
BRANCH   2  10
ATOM     10  C   UNL     1       4.110   4.227  17.233  0.00  0.00    +0.000 C 
BRANCH  10  11
ATOM     11  C   UNL     1       3.177   3.752  18.350  0.00  0.00    +0.000 A 
ATOM     12  C   UNL     1       1.817   3.571  18.084  0.00  0.00    +0.000 A 
ATOM     13  C   UNL     1       0.973   3.131  19.101  0.00  0.00    +0.000 A 
ATOM     14  C   UNL     1       1.498   2.902  20.365  0.00  0.00    +0.000 A 
ATOM     15  C   UNL     1       2.848   3.143  20.563  0.00  0.00    +0.000 A 
ATOM     16  N   UNL     1       3.691   3.571  19.595  0.00  0.00    +0.000 NA
ENDBRANCH  10  11
BRANCH  10  17
ATOM     17  O   UNL     1       5.393   3.580  17.299  0.00  0.00    +0.000 OA
ATOM     18  H   UNL     1       5.868   4.026  18.028  0.00  0.00    +0.000 HD
ENDBRANCH  10  17
ENDBRANCH   2  10
TORSDOF 8
ENDMDL
MODEL 2
REMARK VINA RESULT:      -5.8      2.376      5.109
REMARK  Name = 
REMARK  8 active torsions:
REMARK  status: ('A' for Active; 'I' for Inactive)
REMARK    1  A    between atoms: C_2  and  C_3
REMARK    2  A    between atoms: C_2  and  C_9
REMARK    3  A    between atoms: C_3  and  O_5
REMARK    4  A    between atoms: O_5  and  C_6
REMARK    5  A    between atoms: C_6  and  C_7
REMARK    6  A    between atoms: C_7  and  O_8
REMARK    7  A    between atoms: C_9  and  O_10
REMARK    8  A    between atoms: C_9  and  C_11
REMARK                            x       y       z     vdW  Elec       q    Type
REMARK                         _______ _______ _______ _____ _____    ______ ____
ROOT
ATOM      1  C   UNL     1       2.839   5.942  19.627  0.00  0.00    +0.000 C 
ATOM      2  C   UNL     1       3.092   4.760  19.031  0.00  0.00    +0.000 C 
ENDROOT
BRANCH   2   3
ATOM      3  C   UNL     1       2.016   4.008  18.330  0.00  0.00    +0.000 C 
ATOM      4  O   UNL     1       2.022   3.764  17.133  0.00  0.00    +0.000 OA
BRANCH   3   5
ATOM      5  O   UNL     1       1.071   3.579  19.208  0.00  0.00    +0.000 OA
BRANCH   5   6
ATOM      6  C   UNL     1       1.393   2.435  20.019  0.00  0.00    +0.000 C 
BRANCH   6   7
ATOM      7  C   UNL     1       1.343   2.686  21.524  0.00  0.00    +0.000 C 
BRANCH   7   8
ATOM      8  O   UNL     1       2.654   2.826  22.061  0.00  0.00    +0.000 OA
ATOM      9  H   UNL     1       2.917   3.753  21.914  0.00  0.00    +0.000 HD
ENDBRANCH   7   8
ENDBRANCH   6   7
ENDBRANCH   5   6
ENDBRANCH   3   5
ENDBRANCH   2   3
BRANCH   2  10
ATOM     10  C   UNL     1       4.462   4.124  19.024  0.00  0.00    +0.000 C 
BRANCH  10  11
ATOM     11  C   UNL     1       5.632   5.052  18.687  0.00  0.00    +0.000 A 
ATOM     12  C   UNL     1       5.635   5.750  17.476  0.00  0.00    +0.000 A 
ATOM     13  C   UNL     1       6.698   6.599  17.177  0.00  0.00    +0.000 A 
ATOM     14  C   UNL     1       7.744   6.717  18.080  0.00  0.00    +0.000 A 
ATOM     15  C   UNL     1       7.693   5.963  19.240  0.00  0.00    +0.000 A 
ATOM     16  N   UNL     1       6.674   5.130  19.557  0.00  0.00    +0.000 NA
ENDBRANCH  10  11
BRANCH  10  17
ATOM     17  O   UNL     1       4.409   2.993  18.137  0.00  0.00    +0.000 OA
ATOM     18  H   UNL     1       4.537   3.363  17.241  0.00  0.00    +0.000 HD
ENDBRANCH  10  17
ENDBRANCH   2  10
TORSDOF 8
ENDMDL
MODEL 3
REMARK VINA RESULT:      -5.8      3.080      5.419
REMARK  Name = 
REMARK  8 active torsions:
REMARK  status: ('A' for Active; 'I' for Inactive)
REMARK    1  A    between atoms: C_2  and  C_3
REMARK    2  A    between atoms: C_2  and  C_9
REMARK    3  A    between atoms: C_3  and  O_5
REMARK    4  A    between atoms: O_5  and  C_6
REMARK    5  A    between atoms: C_6  and  C_7
REMARK    6  A    between atoms: C_7  and  O_8
REMARK    7  A    between atoms: C_9  and  O_10
REMARK    8  A    between atoms: C_9  and  C_11
REMARK                            x       y       z     vdW  Elec       q    Type
REMARK                         _______ _______ _______ _____ _____    ______ ____
ROOT
ATOM      1  C   UNL     1       5.032   6.365  16.839  0.00  0.00    +0.000 C 
ATOM      2  C   UNL     1       5.969   5.500  17.273  0.00  0.00    +0.000 C 
ENDROOT
BRANCH   2   3
ATOM      3  C   UNL     1       5.803   4.768  18.558  0.00  0.00    +0.000 C 
ATOM      4  O   UNL     1       6.311   5.116  19.613  0.00  0.00    +0.000 OA
BRANCH   3   5
ATOM      5  O   UNL     1       4.965   3.708  18.408  0.00  0.00    +0.000 OA
BRANCH   5   6
ATOM      6  C   UNL     1       3.899   3.569  19.364  0.00  0.00    +0.000 C 
BRANCH   6   7
ATOM      7  C   UNL     1       2.880   4.705  19.352  0.00  0.00    +0.000 C 
BRANCH   7   8
ATOM      8  O   UNL     1       3.156   5.648  20.383  0.00  0.00    +0.000 OA
ATOM      9  H   UNL     1       2.740   6.486  20.112  0.00  0.00    +0.000 HD
ENDBRANCH   7   8
ENDBRANCH   6   7
ENDBRANCH   5   6
ENDBRANCH   3   5
ENDBRANCH   2   3
BRANCH   2  10
ATOM     10  C   UNL     1       7.233   5.207  16.499  0.00  0.00    +0.000 C 
BRANCH  10  11
ATOM     11  C   UNL     1       7.049   4.845  15.023  0.00  0.00    +0.000 A 
ATOM     12  C   UNL     1       6.098   3.887  14.660  0.00  0.00    +0.000 A 
ATOM     13  C   UNL     1       5.929   3.566  13.316  0.00  0.00    +0.000 A 
ATOM     14  C   UNL     1       6.725   4.189  12.365  0.00  0.00    +0.000 A 
ATOM     15  C   UNL     1       7.675   5.097  12.804  0.00  0.00    +0.000 A 
ATOM     16  N   UNL     1       7.862   5.427  14.103  0.00  0.00    +0.000 NA
ENDBRANCH  10  11
BRANCH  10  17
ATOM     17  O   UNL     1       7.950   4.184  17.213  0.00  0.00    +0.000 OA
ATOM     18  H   UNL     1       7.324   3.857  17.889  0.00  0.00    +0.000 HD
ENDBRANCH  10  17
ENDBRANCH   2  10
TORSDOF 8
ENDMDL
MODEL 4
REMARK VINA RESULT:      -5.7      1.340      2.403
REMARK  Name = 
REMARK  8 active torsions:
REMARK  status: ('A' for Active; 'I' for Inactive)
REMARK    1  A    between atoms: C_2  and  C_3
REMARK    2  A    between atoms: C_2  and  C_9
REMARK    3  A    between atoms: C_3  and  O_5
REMARK    4  A    between atoms: O_5  and  C_6
REMARK    5  A    between atoms: C_6  and  C_7
REMARK    6  A    between atoms: C_7  and  O_8
REMARK    7  A    between atoms: C_9  and  O_10
REMARK    8  A    between atoms: C_9  and  C_11
REMARK                            x       y       z     vdW  Elec       q    Type
REMARK                         _______ _______ _______ _____ _____    ______ ____
ROOT
ATOM      1  C   UNL     1       4.116   6.228  18.246  0.00  0.00    +0.000 C 
ATOM      2  C   UNL     1       4.944   5.204  18.527  0.00  0.00    +0.000 C 
ENDROOT
BRANCH   2   3
ATOM      3  C   UNL     1       6.390   5.436  18.796  0.00  0.00    +0.000 C 
ATOM      4  O   UNL     1       6.903   5.337  19.899  0.00  0.00    +0.000 OA
BRANCH   3   5
ATOM      5  O   UNL     1       7.060   5.706  17.644  0.00  0.00    +0.000 OA
BRANCH   5   6
ATOM      6  C   UNL     1       7.429   4.589  16.817  0.00  0.00    +0.000 C 
BRANCH   6   7
ATOM      7  C   UNL     1       6.871   4.636  15.397  0.00  0.00    +0.000 C 
BRANCH   7   8
ATOM      8  O   UNL     1       6.213   5.874  15.149  0.00  0.00    +0.000 OA
ATOM      9  H   UNL     1       5.831   5.812  14.255  0.00  0.00    +0.000 HD
ENDBRANCH   7   8
ENDBRANCH   6   7
ENDBRANCH   5   6
ENDBRANCH   3   5
ENDBRANCH   2   3
BRANCH   2  10
ATOM     10  C   UNL     1       4.477   3.769  18.597  0.00  0.00    +0.000 C 
BRANCH  10  11
ATOM     11  C   UNL     1       3.101   3.541  19.229  0.00  0.00    +0.000 A 
ATOM     12  C   UNL     1       2.047   3.073  18.439  0.00  0.00    +0.000 A 
ATOM     13  C   UNL     1       0.799   2.859  19.020  0.00  0.00    +0.000 A 
ATOM     14  C   UNL     1       0.623   3.138  20.368  0.00  0.00    +0.000 A 
ATOM     15  C   UNL     1       1.702   3.639  21.076  0.00  0.00    +0.000 A 
ATOM     16  N   UNL     1       2.925   3.857  20.539  0.00  0.00    +0.000 NA
ENDBRANCH  10  11
BRANCH  10  17
ATOM     17  O   UNL     1       5.501   3.013  19.265  0.00  0.00    +0.000 OA
ATOM     18  H   UNL     1       5.119   2.122  19.395  0.00  0.00    +0.000 HD
ENDBRANCH  10  17
ENDBRANCH   2  10
TORSDOF 8
ENDMDL
MODEL 5
REMARK VINA RESULT:      -5.7      1.792      3.008
REMARK  Name = 
REMARK  8 active torsions:
REMARK  status: ('A' for Active; 'I' for Inactive)
REMARK    1  A    between atoms: C_2  and  C_3
REMARK    2  A    between atoms: C_2  and  C_9
REMARK    3  A    between atoms: C_3  and  O_5
REMARK    4  A    between atoms: O_5  and  C_6
REMARK    5  A    between atoms: C_6  and  C_7
REMARK    6  A    between atoms: C_7  and  O_8
REMARK    7  A    between atoms: C_9  and  O_10
REMARK    8  A    between atoms: C_9  and  C_11
REMARK                            x       y       z     vdW  Elec       q    Type
REMARK                         _______ _______ _______ _____ _____    ______ ____
ROOT
ATOM      1  C   UNL     1       6.490   5.494  19.237  0.00  0.00    +0.000 C 
ATOM      2  C   UNL     1       6.151   5.909  18.001  0.00  0.00    +0.000 C 
ENDROOT
BRANCH   2   3
ATOM      3  C   UNL     1       7.176   6.058  16.932  0.00  0.00    +0.000 C 
ATOM      4  O   UNL     1       7.773   7.097  16.699  0.00  0.00    +0.000 OA
BRANCH   3   5
ATOM      5  O   UNL     1       7.396   4.873  16.303  0.00  0.00    +0.000 OA
BRANCH   5   6
ATOM      6  C   UNL     1       7.313   4.863  14.867  0.00  0.00    +0.000 C 
BRANCH   6   7
ATOM      7  C   UNL     1       6.266   3.909  14.296  0.00  0.00    +0.000 C 
BRANCH   7   8
ATOM      8  O   UNL     1       4.951   4.418  14.497  0.00  0.00    +0.000 OA
ATOM      9  H   UNL     1       4.658   4.776  13.639  0.00  0.00    +0.000 HD
ENDBRANCH   7   8
ENDBRANCH   6   7
ENDBRANCH   5   6
ENDBRANCH   3   5
ENDBRANCH   2   3
BRANCH   2  10
ATOM     10  C   UNL     1       4.730   6.241  17.612  0.00  0.00    +0.000 C 
BRANCH  10  11
ATOM     11  C   UNL     1       3.708   5.111  17.767  0.00  0.00    +0.000 A 
ATOM     12  C   UNL     1       2.535   5.335  18.494  0.00  0.00    +0.000 A 
ATOM     13  C   UNL     1       1.605   4.307  18.626  0.00  0.00    +0.000 A 
ATOM     14  C   UNL     1       1.875   3.073  18.053  0.00  0.00    +0.000 A 
ATOM     15  C   UNL     1       3.077   2.913  17.384  0.00  0.00    +0.000 A 
ATOM     16  N   UNL     1       3.999   3.893  17.240  0.00  0.00    +0.000 NA
ENDBRANCH  10  11
BRANCH  10  17
ATOM     17  O   UNL     1       4.758   6.751  16.267  0.00  0.00    +0.000 OA
ATOM     18  H   UNL     1       4.861   7.719  16.361  0.00  0.00    +0.000 HD
ENDBRANCH  10  17
ENDBRANCH   2  10
TORSDOF 8
ENDMDL
MODEL 6
REMARK VINA RESULT:      -5.7      3.132      5.717
REMARK  Name = 
REMARK  8 active torsions:
REMARK  status: ('A' for Active; 'I' for Inactive)
REMARK    1  A    between atoms: C_2  and  C_3
REMARK    2  A    between atoms: C_2  and  C_9
REMARK    3  A    between atoms: C_3  and  O_5
REMARK    4  A    between atoms: O_5  and  C_6
REMARK    5  A    between atoms: C_6  and  C_7
REMARK    6  A    between atoms: C_7  and  O_8
REMARK    7  A    between atoms: C_9  and  O_10
REMARK    8  A    between atoms: C_9  and  C_11
REMARK                            x       y       z     vdW  Elec       q    Type
REMARK                         _______ _______ _______ _____ _____    ______ ____
ROOT
ATOM      1  C   UNL     1       4.830   6.847  16.103  0.00  0.00    +0.000 C 
ATOM      2  C   UNL     1       5.370   5.752  16.671  0.00  0.00    +0.000 C 
ENDROOT
BRANCH   2   3
ATOM      3  C   UNL     1       4.668   5.029  17.766  0.00  0.00    +0.000 C 
ATOM      4  O   UNL     1       4.809   5.283  18.952  0.00  0.00    +0.000 OA
BRANCH   3   5
ATOM      5  O   UNL     1       3.811   4.100  17.264  0.00  0.00    +0.000 OA
BRANCH   5   6
ATOM      6  C   UNL     1       2.440   4.167  17.693  0.00  0.00    +0.000 C 
BRANCH   6   7
ATOM      7  C   UNL     1       1.911   2.889  18.338  0.00  0.00    +0.000 C 
BRANCH   7   8
ATOM      8  O   UNL     1       2.455   1.736  17.703  0.00  0.00    +0.000 OA
ATOM      9  H   UNL     1       2.893   2.046  16.890  0.00  0.00    +0.000 HD
ENDBRANCH   7   8
ENDBRANCH   6   7
ENDBRANCH   5   6
ENDBRANCH   3   5
ENDBRANCH   2   3
BRANCH   2  10
ATOM     10  C   UNL     1       6.700   5.179  16.242  0.00  0.00    +0.000 C 
BRANCH  10  11
ATOM     11  C   UNL     1       6.841   4.846  14.754  0.00  0.00    +0.000 A 
ATOM     12  C   UNL     1       6.045   3.843  14.192  0.00  0.00    +0.000 A 
ATOM     13  C   UNL     1       6.171   3.549  12.837  0.00  0.00    +0.000 A 
ATOM     14  C   UNL     1       7.101   4.243  12.076  0.00  0.00    +0.000 A 
ATOM     15  C   UNL     1       7.883   5.194  12.711  0.00  0.00    +0.000 A 
ATOM     16  N   UNL     1       7.784   5.500  14.026  0.00  0.00    +0.000 NA
ENDBRANCH  10  11
BRANCH  10  17
ATOM     17  O   UNL     1       6.966   4.034  17.070  0.00  0.00    +0.000 OA
ATOM     18  H   UNL     1       7.079   3.288  16.449  0.00  0.00    +0.000 HD
ENDBRANCH  10  17
ENDBRANCH   2  10
TORSDOF 8
ENDMDL
MODEL 7
REMARK VINA RESULT:      -5.7      2.441      5.136
REMARK  Name = 
REMARK  8 active torsions:
REMARK  status: ('A' for Active; 'I' for Inactive)
REMARK    1  A    between atoms: C_2  and  C_3
REMARK    2  A    between atoms: C_2  and  C_9
REMARK    3  A    between atoms: C_3  and  O_5
REMARK    4  A    between atoms: O_5  and  C_6
REMARK    5  A    between atoms: C_6  and  C_7
REMARK    6  A    between atoms: C_7  and  O_8
REMARK    7  A    between atoms: C_9  and  O_10
REMARK    8  A    between atoms: C_9  and  C_11
REMARK                            x       y       z     vdW  Elec       q    Type
REMARK                         _______ _______ _______ _____ _____    ______ ____
ROOT
ATOM      1  C   UNL     1       3.614   2.396  17.465  0.00  0.00    +0.000 C 
ATOM      2  C   UNL     1       3.390   3.375  18.362  0.00  0.00    +0.000 C 
ENDROOT
BRANCH   2   3
ATOM      3  C   UNL     1       2.050   4.009  18.490  0.00  0.00    +0.000 C 
ATOM      4  O   UNL     1       1.328   4.277  17.543  0.00  0.00    +0.000 OA
BRANCH   3   5
ATOM      5  O   UNL     1       1.719   4.185  19.797  0.00  0.00    +0.000 OA
BRANCH   5   6
ATOM      6  C   UNL     1       0.904   3.174  20.414  0.00  0.00    +0.000 C 
BRANCH   6   7
ATOM      7  C   UNL     1       1.396   2.703  21.780  0.00  0.00    +0.000 C 
BRANCH   7   8
ATOM      8  O   UNL     1       2.818   2.614  21.805  0.00  0.00    +0.000 OA
ATOM      9  H   UNL     1       3.115   2.645  20.878  0.00  0.00    +0.000 HD
ENDBRANCH   7   8
ENDBRANCH   6   7
ENDBRANCH   5   6
ENDBRANCH   3   5
ENDBRANCH   2   3
BRANCH   2  10
ATOM     10  C   UNL     1       4.461   3.890  19.295  0.00  0.00    +0.000 C 
BRANCH  10  11
ATOM     11  C   UNL     1       5.445   4.899  18.697  0.00  0.00    +0.000 A 
ATOM     12  C   UNL     1       5.014   5.777  17.699  0.00  0.00    +0.000 A 
ATOM     13  C   UNL     1       5.910   6.699  17.163  0.00  0.00    +0.000 A 
ATOM     14  C   UNL     1       7.221   6.710  17.617  0.00  0.00    +0.000 A 
ATOM     15  C   UNL     1       7.587   5.782  18.578  0.00  0.00    +0.000 A 
ATOM     16  N   UNL     1       6.738   4.875  19.115  0.00  0.00    +0.000 NA
ENDBRANCH  10  11
BRANCH  10  17
ATOM     17  O   UNL     1       5.140   2.748  19.846  0.00  0.00    +0.000 OA
ATOM     18  H   UNL     1       5.943   2.638  19.300  0.00  0.00    +0.000 HD
ENDBRANCH  10  17
ENDBRANCH   2  10
TORSDOF 8
ENDMDL
MODEL 8
REMARK VINA RESULT:      -5.7      0.974      1.250
REMARK  Name = 
REMARK  8 active torsions:
REMARK  status: ('A' for Active; 'I' for Inactive)
REMARK    1  A    between atoms: C_2  and  C_3
REMARK    2  A    between atoms: C_2  and  C_9
REMARK    3  A    between atoms: C_3  and  O_5
REMARK    4  A    between atoms: O_5  and  C_6
REMARK    5  A    between atoms: C_6  and  C_7
REMARK    6  A    between atoms: C_7  and  O_8
REMARK    7  A    between atoms: C_9  and  O_10
REMARK    8  A    between atoms: C_9  and  C_11
REMARK                            x       y       z     vdW  Elec       q    Type
REMARK                         _______ _______ _______ _____ _____    ______ ____
ROOT
ATOM      1  C   UNL     1       2.975   6.908  18.078  0.00  0.00    +0.000 C 
ATOM      2  C   UNL     1       3.817   5.986  17.571  0.00  0.00    +0.000 C 
ENDROOT
BRANCH   2   3
ATOM      3  C   UNL     1       5.198   6.352  17.155  0.00  0.00    +0.000 C 
ATOM      4  O   UNL     1       5.515   6.626  16.008  0.00  0.00    +0.000 OA
BRANCH   3   5
ATOM      5  O   UNL     1       6.031   6.402  18.228  0.00  0.00    +0.000 OA
BRANCH   5   6
ATOM      6  C   UNL     1       7.420   6.103  18.000  0.00  0.00    +0.000 C 
BRANCH   6   7
ATOM      7  C   UNL     1       7.720   4.632  17.730  0.00  0.00    +0.000 C 
BRANCH   7   8
ATOM      8  O   UNL     1       7.755   4.367  16.331  0.00  0.00    +0.000 OA
ATOM      9  H   UNL     1       6.836   4.422  16.014  0.00  0.00    +0.000 HD
ENDBRANCH   7   8
ENDBRANCH   6   7
ENDBRANCH   5   6
ENDBRANCH   3   5
ENDBRANCH   2   3
BRANCH   2  10
ATOM     10  C   UNL     1       3.432   4.535  17.397  0.00  0.00    +0.000 C 
BRANCH  10  11
ATOM     11  C   UNL     1       2.738   3.876  18.592  0.00  0.00    +0.000 A 
ATOM     12  C   UNL     1       1.373   3.582  18.522  0.00  0.00    +0.000 A 
ATOM     13  C   UNL     1       0.748   2.975  19.608  0.00  0.00    +0.000 A 
ATOM     14  C   UNL     1       1.489   2.696  20.748  0.00  0.00    +0.000 A 
ATOM     15  C   UNL     1       2.826   3.055  20.759  0.00  0.00    +0.000 A 
ATOM     16  N   UNL     1       3.461   3.645  19.720  0.00  0.00    +0.000 NA
ENDBRANCH  10  11
BRANCH  10  17
ATOM     17  O   UNL     1       4.617   3.818  17.008  0.00  0.00    +0.000 OA
ATOM     18  H   UNL     1       4.315   3.165  16.346  0.00  0.00    +0.000 HD
ENDBRANCH  10  17
ENDBRANCH   2  10
TORSDOF 8
ENDMDL
MODEL 9
REMARK VINA RESULT:      -5.6      1.763      2.036
REMARK  Name = 
REMARK  8 active torsions:
REMARK  status: ('A' for Active; 'I' for Inactive)
REMARK    1  A    between atoms: C_2  and  C_3
REMARK    2  A    between atoms: C_2  and  C_9
REMARK    3  A    between atoms: C_3  and  O_5
REMARK    4  A    between atoms: O_5  and  C_6
REMARK    5  A    between atoms: C_6  and  C_7
REMARK    6  A    between atoms: C_7  and  O_8
REMARK    7  A    between atoms: C_9  and  O_10
REMARK    8  A    between atoms: C_9  and  C_11
REMARK                            x       y       z     vdW  Elec       q    Type
REMARK                         _______ _______ _______ _____ _____    ______ ____
ROOT
ATOM      1  C   UNL     1       4.522   6.485  16.863  0.00  0.00    +0.000 C 
ATOM      2  C   UNL     1       5.435   5.531  17.124  0.00  0.00    +0.000 C 
ENDROOT
BRANCH   2   3
ATOM      3  C   UNL     1       6.865   5.712  16.751  0.00  0.00    +0.000 C 
ATOM      4  O   UNL     1       7.595   4.805  16.384  0.00  0.00    +0.000 OA
BRANCH   3   5
ATOM      5  O   UNL     1       7.220   7.023  16.814  0.00  0.00    +0.000 OA
BRANCH   5   6
ATOM      6  C   UNL     1       7.886   7.470  18.008  0.00  0.00    +0.000 C 
BRANCH   6   7
ATOM      7  C   UNL     1       8.237   8.956  18.023  0.00  0.00    +0.000 C 
BRANCH   7   8
ATOM      8  O   UNL     1       9.046   9.276  19.151  0.00  0.00    +0.000 OA
ATOM      9  H   UNL     1       8.647   8.825  19.916  0.00  0.00    +0.000 HD
ENDBRANCH   7   8
ENDBRANCH   6   7
ENDBRANCH   5   6
ENDBRANCH   3   5
ENDBRANCH   2   3
BRANCH   2  10
ATOM     10  C   UNL     1       5.087   4.231  17.810  0.00  0.00    +0.000 C 
BRANCH  10  11
ATOM     11  C   UNL     1       3.725   4.183  18.508  0.00  0.00    +0.000 A 
ATOM     12  C   UNL     1       2.618   3.666  17.829  0.00  0.00    +0.000 A 
ATOM     13  C   UNL     1       1.383   3.617  18.470  0.00  0.00    +0.000 A 
ATOM     14  C   UNL     1       1.272   4.105  19.764  0.00  0.00    +0.000 A 
ATOM     15  C   UNL     1       2.403   4.641  20.358  0.00  0.00    +0.000 A 
ATOM     16  N   UNL     1       3.615   4.702  19.759  0.00  0.00    +0.000 NA
ENDBRANCH  10  11
BRANCH  10  17
ATOM     17  O   UNL     1       6.160   3.919  18.716  0.00  0.00    +0.000 OA
ATOM     18  H   UNL     1       5.879   4.280  19.580  0.00  0.00    +0.000 HD
ENDBRANCH  10  17
ENDBRANCH   2  10
TORSDOF 8
ENDMDL
