MODEL 1
REMARK VINA RESULT:      -8.5      0.000      0.000
REMARK  Name = 
REMARK  5 active torsions:
REMARK  status: ('A' for Active; 'I' for Inactive)
REMARK    1  A    between atoms: C_1  and  S_2
REMARK    2  A    between atoms: S_2  and  C_5
REMARK    3  A    between atoms: C_8  and  C_9
REMARK    4  A    between atoms: C_13  and  C_14
REMARK    5  A    between atoms: C_17  and  C_18
REMARK                            x       y       z     vdW  Elec       q    Type
REMARK                         _______ _______ _______ _____ _____    ______ ____
ROOT
ATOM      1  C   UNL     1       2.292   7.586  19.055  0.00  0.00    +0.000 A 
ATOM      2  C   UNL     1       2.445   8.321  17.871  0.00  0.00    +0.000 A 
ATOM      3  C   UNL     1       1.882   9.590  17.740  0.00  0.00    +0.000 A 
ATOM      4  C   UNL     1       1.163  10.146  18.797  0.00  0.00    +0.000 A 
ATOM      5  C   UNL     1       0.984   9.434  19.991  0.00  0.00    +0.000 A 
ATOM      6  C   UNL     1       1.542   8.148  20.099  0.00  0.00    +0.000 A 
ENDROOT
BRANCH   1  10
ATOM      7  C   UNL     1       3.441   4.249  19.825  0.00  0.00    +0.000 A 
ATOM      8  N   UNL     1       4.505   4.731  19.223  0.00  0.00    +0.000 NA
ATOM      9  N   UNL     1       4.207   6.012  18.822  0.00  0.00    +0.000 NA
ATOM     10  C   UNL     1       2.971   6.299  19.195  0.00  0.00    +0.000 A 
ATOM     11  N   UNL     1       2.446   5.181  19.797  0.00  0.00    +0.000 N 
ATOM     12  H   UNL     1       1.525   5.067  20.191  0.00  0.00    +0.000 HD
BRANCH   7  14
ATOM     13  C   UNL     1       2.091   1.842  19.572  0.00  0.00    +0.000 C 
ATOM     14  S   UNL     1       3.282   2.684  20.579  0.00  0.00    +0.000 S 
ATOM     15  O   UNL     1       2.725   2.960  21.888  0.00  0.00    +0.000 OA
ATOM     16  O   UNL     1       4.586   2.068  20.431  0.00  0.00    +0.000 OA
ENDBRANCH   7  14
ENDBRANCH   1  10
BRANCH   5  17
ATOM     17  C   UNL     1       0.300  10.060  21.124  0.00  0.00    +0.000 A 
ATOM     18  C   UNL     1       0.391   9.768  22.471  0.00  0.00    +0.000 A 
ATOM     19  N   UNL     1      -0.423  10.502  23.306  0.00  0.00    +0.000 NA
ATOM     20  C   UNL     1      -1.085  11.412  22.622  0.00  0.00    +0.000 A 
ATOM     21  S   UNL     1      -0.801  11.361  20.919  0.00  0.00    +0.000 S 
BRANCH  20  22
ATOM     22  C   UNL     1      -1.968  12.439  23.207  0.00  0.00    +0.000 A 
ATOM     23  C   UNL     1      -3.235  12.084  23.723  0.00  0.00    +0.000 A 
ATOM     24  C   UNL     1      -4.104  13.048  24.244  0.00  0.00    +0.000 A 
ATOM     25  C   UNL     1      -3.721  14.385  24.277  0.00  0.00    +0.000 A 
ATOM     26  C   UNL     1      -2.468  14.754  23.798  0.00  0.00    +0.000 A 
ATOM     27  C   UNL     1      -1.597  13.796  23.264  0.00  0.00    +0.000 A 
ATOM     28 CL   UNL     1      -0.094  14.403  22.647  0.00  0.00    +0.000 Cl
ENDBRANCH  20  22
ENDBRANCH   5  17
TORSDOF 4
ENDMDL
MODEL 2
REMARK VINA RESULT:      -8.0      1.509      1.941
REMARK  Name = 
REMARK  5 active torsions:
REMARK  status: ('A' for Active; 'I' for Inactive)
REMARK    1  A    between atoms: C_1  and  S_2
REMARK    2  A    between atoms: S_2  and  C_5
REMARK    3  A    between atoms: C_8  and  C_9
REMARK    4  A    between atoms: C_13  and  C_14
REMARK    5  A    between atoms: C_17  and  C_18
REMARK                            x       y       z     vdW  Elec       q    Type
REMARK                         _______ _______ _______ _____ _____    ______ ____
ROOT
ATOM      1  C   UNL     1       1.841   7.720  19.590  0.00  0.00    +0.000 A 
ATOM      2  C   UNL     1       2.153   8.348  18.376  0.00  0.00    +0.000 A 
ATOM      3  C   UNL     1       1.731   9.651  18.116  0.00  0.00    +0.000 A 
ATOM      4  C   UNL     1       0.994  10.349  19.072  0.00  0.00    +0.000 A 
ATOM      5  C   UNL     1       0.658   9.747  20.292  0.00  0.00    +0.000 A 
ATOM      6  C   UNL     1       1.075   8.425  20.530  0.00  0.00    +0.000 A 
ENDROOT
BRANCH   1  10
ATOM      7  C   UNL     1       3.545   4.537  19.709  0.00  0.00    +0.000 A 
ATOM      8  N   UNL     1       2.609   4.336  20.609  0.00  0.00    +0.000 NA
ATOM      9  N   UNL     1       1.883   5.498  20.715  0.00  0.00    +0.000 NA
ATOM     10  C   UNL     1       2.376   6.388  19.870  0.00  0.00    +0.000 A 
ATOM     11  N   UNL     1       3.461   5.818  19.249  0.00  0.00    +0.000 N 
ATOM     12  H   UNL     1       4.060   6.229  18.550  0.00  0.00    +0.000 HD
BRANCH   7  14
ATOM     13  C   UNL     1       3.968   2.690  17.687  0.00  0.00    +0.000 C 
ATOM     14  S   UNL     1       4.717   3.377  19.139  0.00  0.00    +0.000 S 
ATOM     15  O   UNL     1       4.788   2.379  20.186  0.00  0.00    +0.000 OA
ATOM     16  O   UNL     1       5.876   4.170  18.775  0.00  0.00    +0.000 OA
ENDBRANCH   7  14
ENDBRANCH   1  10
BRANCH   5  17
ATOM     17  C   UNL     1      -0.042  10.516  21.323  0.00  0.00    +0.000 A 
ATOM     18  C   UNL     1      -0.347  10.164  22.623  0.00  0.00    +0.000 A 
ATOM     19  N   UNL     1      -1.068  11.087  23.347  0.00  0.00    +0.000 NA
ATOM     20  C   UNL     1      -1.257  12.183  22.641  0.00  0.00    +0.000 A 
ATOM     21  S   UNL     1      -0.628  12.104  21.034  0.00  0.00    +0.000 S 
BRANCH  20  22
ATOM     22  C   UNL     1      -1.899  13.414  23.138  0.00  0.00    +0.000 A 
ATOM     23  C   UNL     1      -1.162  14.350  23.897  0.00  0.00    +0.000 A 
ATOM     24  C   UNL     1      -1.762  15.502  24.414  0.00  0.00    +0.000 A 
ATOM     25  C   UNL     1      -3.108  15.756  24.167  0.00  0.00    +0.000 A 
ATOM     26  C   UNL     1      -3.847  14.861  23.400  0.00  0.00    +0.000 A 
ATOM     27  C   UNL     1      -3.256  13.699  22.890  0.00  0.00    +0.000 A 
ATOM     28 CL   UNL     1      -4.308  12.643  22.004  0.00  0.00    +0.000 Cl
ENDBRANCH  20  22
ENDBRANCH   5  17
TORSDOF 4
ENDMDL
MODEL 3
REMARK VINA RESULT:      -8.0      5.871     10.050
REMARK  Name = 
REMARK  5 active torsions:
REMARK  status: ('A' for Active; 'I' for Inactive)
REMARK    1  A    between atoms: C_1  and  S_2
REMARK    2  A    between atoms: S_2  and  C_5
REMARK    3  A    between atoms: C_8  and  C_9
REMARK    4  A    between atoms: C_13  and  C_14
REMARK    5  A    between atoms: C_17  and  C_18
REMARK                            x       y       z     vdW  Elec       q    Type
REMARK                         _______ _______ _______ _____ _____    ______ ____
ROOT
ATOM      1  C   UNL     1      -1.626  11.570  18.833  0.00  0.00    +0.000 A 
ATOM      2  C   UNL     1      -0.959  12.786  19.029  0.00  0.00    +0.000 A 
ATOM      3  C   UNL     1       0.411  12.817  19.288  0.00  0.00    +0.000 A 
ATOM      4  C   UNL     1       1.135  11.628  19.347  0.00  0.00    +0.000 A 
ATOM      5  C   UNL     1       0.497  10.394  19.164  0.00  0.00    +0.000 A 
ATOM      6  C   UNL     1      -0.889  10.380  18.923  0.00  0.00    +0.000 A 
ENDROOT
BRANCH   1  10
ATOM      7  C   UNL     1      -5.197  12.001  18.496  0.00  0.00    +0.000 A 
ATOM      8  N   UNL     1      -4.996  11.024  17.639  0.00  0.00    +0.000 NA
ATOM      9  N   UNL     1      -3.647  10.765  17.619  0.00  0.00    +0.000 NA
ATOM     10  C   UNL     1      -3.043  11.576  18.472  0.00  0.00    +0.000 A 
ATOM     11  N   UNL     1      -4.000  12.401  19.011  0.00  0.00    +0.000 N 
ATOM     12  H   UNL     1      -3.872  13.133  19.693  0.00  0.00    +0.000 HD
BRANCH   7  14
ATOM     13  C   UNL     1      -7.391  11.531  20.122  0.00  0.00    +0.000 C 
ATOM     14  S   UNL     1      -6.731  12.692  18.956  0.00  0.00    +0.000 S 
ATOM     15  O   UNL     1      -7.520  12.683  17.740  0.00  0.00    +0.000 OA
ATOM     16  O   UNL     1      -6.392  13.933  19.624  0.00  0.00    +0.000 OA
ENDBRANCH   7  14
ENDBRANCH   1  10
BRANCH   5  17
ATOM     17  C   UNL     1       1.280   9.157  19.145  0.00  0.00    +0.000 A 
ATOM     18  C   UNL     1       1.510   8.250  20.161  0.00  0.00    +0.000 A 
ATOM     19  N   UNL     1       2.341   7.195  19.854  0.00  0.00    +0.000 NA
ATOM     20  C   UNL     1       2.694   7.239  18.585  0.00  0.00    +0.000 A 
ATOM     21  S   UNL     1       2.088   8.612  17.732  0.00  0.00    +0.000 S 
BRANCH  20  22
ATOM     22  C   UNL     1       3.494   6.213  17.890  0.00  0.00    +0.000 A 
ATOM     23  C   UNL     1       4.754   6.538  17.341  0.00  0.00    +0.000 A 
ATOM     24  C   UNL     1       5.510   5.592  16.641  0.00  0.00    +0.000 A 
ATOM     25  C   UNL     1       5.032   4.293  16.492  0.00  0.00    +0.000 A 
ATOM     26  C   UNL     1       3.805   3.944  17.047  0.00  0.00    +0.000 A 
ATOM     27  C   UNL     1       3.038   4.889  17.738  0.00  0.00    +0.000 A 
ATOM     28 CL   UNL     1       1.504   4.333  18.325  0.00  0.00    +0.000 Cl
ENDBRANCH  20  22
ENDBRANCH   5  17
TORSDOF 4
ENDMDL
MODEL 4
REMARK VINA RESULT:      -7.9      5.437      9.950
REMARK  Name = 
REMARK  5 active torsions:
REMARK  status: ('A' for Active; 'I' for Inactive)
REMARK    1  A    between atoms: C_1  and  S_2
REMARK    2  A    between atoms: S_2  and  C_5
REMARK    3  A    between atoms: C_8  and  C_9
REMARK    4  A    between atoms: C_13  and  C_14
REMARK    5  A    between atoms: C_17  and  C_18
REMARK                            x       y       z     vdW  Elec       q    Type
REMARK                         _______ _______ _______ _____ _____    ______ ____
ROOT
ATOM      1  C   UNL     1      -1.339  12.049  19.386  0.00  0.00    +0.000 A 
ATOM      2  C   UNL     1      -0.570  13.179  19.075  0.00  0.00    +0.000 A 
ATOM      3  C   UNL     1       0.800  13.070  18.842  0.00  0.00    +0.000 A 
ATOM      4  C   UNL     1       1.421  11.823  18.909  0.00  0.00    +0.000 A 
ATOM      5  C   UNL     1       0.683  10.675  19.226  0.00  0.00    +0.000 A 
ATOM      6  C   UNL     1      -0.694  10.807  19.478  0.00  0.00    +0.000 A 
ENDROOT
BRANCH   1  10
ATOM      7  C   UNL     1      -4.930  12.268  19.064  0.00  0.00    +0.000 A 
ATOM      8  N   UNL     1      -4.776  12.716  20.290  0.00  0.00    +0.000 NA
ATOM      9  N   UNL     1      -3.435  12.655  20.586  0.00  0.00    +0.000 NA
ATOM     10  C   UNL     1      -2.787  12.183  19.534  0.00  0.00    +0.000 A 
ATOM     11  N   UNL     1      -3.719  11.888  18.568  0.00  0.00    +0.000 N 
ATOM     12  H   UNL     1      -3.556  11.510  17.647  0.00  0.00    +0.000 HD
BRANCH   7  14
ATOM     13  C   UNL     1      -7.574  13.095  19.146  0.00  0.00    +0.000 C 
ATOM     14  S   UNL     1      -6.420  12.176  18.162  0.00  0.00    +0.000 S 
ATOM     15  O   UNL     1      -6.768  10.770  18.165  0.00  0.00    +0.000 OA
ATOM     16  O   UNL     1      -6.147  12.881  16.924  0.00  0.00    +0.000 OA
ENDBRANCH   7  14
ENDBRANCH   1  10
BRANCH   5  17
ATOM     17  C   UNL     1       1.328   9.360  19.212  0.00  0.00    +0.000 A 
ATOM     18  C   UNL     1       1.430   8.424  20.222  0.00  0.00    +0.000 A 
ATOM     19  N   UNL     1       2.150   7.288  19.924  0.00  0.00    +0.000 NA
ATOM     20  C   UNL     1       2.539   7.305  18.666  0.00  0.00    +0.000 A 
ATOM     21  S   UNL     1       2.108   8.743  17.813  0.00  0.00    +0.000 S 
BRANCH  20  22
ATOM     22  C   UNL     1       3.240   6.204  17.979  0.00  0.00    +0.000 A 
ATOM     23  C   UNL     1       4.407   6.459  17.224  0.00  0.00    +0.000 A 
ATOM     24  C   UNL     1       5.063   5.437  16.531  0.00  0.00    +0.000 A 
ATOM     25  C   UNL     1       4.579   4.133  16.592  0.00  0.00    +0.000 A 
ATOM     26  C   UNL     1       3.447   3.855  17.350  0.00  0.00    +0.000 A 
ATOM     27  C   UNL     1       2.778   4.874  18.037  0.00  0.00    +0.000 A 
ATOM     28 CL   UNL     1       1.347   4.397  18.892  0.00  0.00    +0.000 Cl
ENDBRANCH  20  22
ENDBRANCH   5  17
TORSDOF 4
ENDMDL
MODEL 5
REMARK VINA RESULT:      -7.9      1.158      1.399
REMARK  Name = 
REMARK  5 active torsions:
REMARK  status: ('A' for Active; 'I' for Inactive)
REMARK    1  A    between atoms: C_1  and  S_2
REMARK    2  A    between atoms: S_2  and  C_5
REMARK    3  A    between atoms: C_8  and  C_9
REMARK    4  A    between atoms: C_13  and  C_14
REMARK    5  A    between atoms: C_17  and  C_18
REMARK                            x       y       z     vdW  Elec       q    Type
REMARK                         _______ _______ _______ _____ _____    ______ ____
ROOT
ATOM      1  C   UNL     1       2.076   7.871  19.183  0.00  0.00    +0.000 A 
ATOM      2  C   UNL     1       2.305   8.548  17.977  0.00  0.00    +0.000 A 
ATOM      3  C   UNL     1       1.818   9.840  17.780  0.00  0.00    +0.000 A 
ATOM      4  C   UNL     1       1.100  10.476  18.791  0.00  0.00    +0.000 A 
ATOM      5  C   UNL     1       0.847   9.824  20.005  0.00  0.00    +0.000 A 
ATOM      6  C   UNL     1       1.328   8.514  20.180  0.00  0.00    +0.000 A 
ENDROOT
BRANCH   1  10
ATOM      7  C   UNL     1       2.996   4.497  20.088  0.00  0.00    +0.000 A 
ATOM      8  N   UNL     1       4.126   4.916  19.564  0.00  0.00    +0.000 NA
ATOM      9  N   UNL     1       3.924   6.202  19.123  0.00  0.00    +0.000 NA
ATOM     10  C   UNL     1       2.678   6.555  19.394  0.00  0.00    +0.000 A 
ATOM     11  N   UNL     1       2.054   5.475  19.969  0.00  0.00    +0.000 N 
ATOM     12  H   UNL     1       1.101   5.412  20.292  0.00  0.00    +0.000 HD
BRANCH   7  14
ATOM     13  C   UNL     1       1.481   2.193  19.817  0.00  0.00    +0.000 C 
ATOM     14  S   UNL     1       2.703   2.955  20.850  0.00  0.00    +0.000 S 
ATOM     15  O   UNL     1       2.132   3.284  22.141  0.00  0.00    +0.000 OA
ATOM     16  O   UNL     1       3.962   2.244  20.743  0.00  0.00    +0.000 OA
ENDBRANCH   7  14
ENDBRANCH   1  10
BRANCH   5  17
ATOM     17  C   UNL     1       0.165  10.531  21.091  0.00  0.00    +0.000 A 
ATOM     18  C   UNL     1       0.012  10.164  22.414  0.00  0.00    +0.000 A 
ATOM     19  N   UNL     1      -0.732  11.019  23.197  0.00  0.00    +0.000 NA
ATOM     20  C   UNL     1      -1.090  12.083  22.507  0.00  0.00    +0.000 A 
ATOM     21  S   UNL     1      -0.599  12.049  20.852  0.00  0.00    +0.000 S 
BRANCH  20  22
ATOM     22  C   UNL     1      -1.806  13.250  23.056  0.00  0.00    +0.000 A 
ATOM     23  C   UNL     1      -1.142  14.164  23.904  0.00  0.00    +0.000 A 
ATOM     24  C   UNL     1      -1.813  15.253  24.469  0.00  0.00    +0.000 A 
ATOM     25  C   UNL     1      -3.159  15.464  24.184  0.00  0.00    +0.000 A 
ATOM     26  C   UNL     1      -3.827  14.591  23.331  0.00  0.00    +0.000 A 
ATOM     27  C   UNL     1      -3.164  13.492  22.772  0.00  0.00    +0.000 A 
ATOM     28 CL   UNL     1      -4.132  12.453  21.776  0.00  0.00    +0.000 Cl
ENDBRANCH  20  22
ENDBRANCH   5  17
TORSDOF 4
ENDMDL
MODEL 6
REMARK VINA RESULT:      -7.8      1.313      1.746
REMARK  Name = 
REMARK  5 active torsions:
REMARK  status: ('A' for Active; 'I' for Inactive)
REMARK    1  A    between atoms: C_1  and  S_2
REMARK    2  A    between atoms: S_2  and  C_5
REMARK    3  A    between atoms: C_8  and  C_9
REMARK    4  A    between atoms: C_13  and  C_14
REMARK    5  A    between atoms: C_17  and  C_18
REMARK                            x       y       z     vdW  Elec       q    Type
REMARK                         _______ _______ _______ _____ _____    ______ ____
ROOT
ATOM      1  C   UNL     1       2.044   7.793  19.169  0.00  0.00    +0.000 A 
ATOM      2  C   UNL     1       2.187   8.420  17.924  0.00  0.00    +0.000 A 
ATOM      3  C   UNL     1       1.683   9.702  17.707  0.00  0.00    +0.000 A 
ATOM      4  C   UNL     1       1.035  10.380  18.739  0.00  0.00    +0.000 A 
ATOM      5  C   UNL     1       0.868   9.778  19.993  0.00  0.00    +0.000 A 
ATOM      6  C   UNL     1       1.364   8.477  20.188  0.00  0.00    +0.000 A 
ENDROOT
BRANCH   1  10
ATOM      7  C   UNL     1       2.986   4.423  20.066  0.00  0.00    +0.000 A 
ATOM      8  N   UNL     1       4.136   4.877  19.619  0.00  0.00    +0.000 NA
ATOM      9  N   UNL     1       3.930   6.167  19.189  0.00  0.00    +0.000 NA
ATOM     10  C   UNL     1       2.662   6.487  19.392  0.00  0.00    +0.000 A 
ATOM     11  N   UNL     1       2.030   5.382  19.909  0.00  0.00    +0.000 N 
ATOM     12  H   UNL     1       1.061   5.292  20.173  0.00  0.00    +0.000 HD
BRANCH   7  14
ATOM     13  C   UNL     1       4.212   1.988  20.565  0.00  0.00    +0.000 C 
ATOM     14  S   UNL     1       2.684   2.861  20.782  0.00  0.00    +0.000 S 
ATOM     15  O   UNL     1       1.650   2.271  19.956  0.00  0.00    +0.000 OA
ATOM     16  O   UNL     1       2.460   3.135  22.188  0.00  0.00    +0.000 OA
ENDBRANCH   7  14
ENDBRANCH   1  10
BRANCH   5  17
ATOM     17  C   UNL     1       0.261  10.529  21.094  0.00  0.00    +0.000 A 
ATOM     18  C   UNL     1      -0.008  10.124  22.386  0.00  0.00    +0.000 A 
ATOM     19  N   UNL     1      -0.640  11.047  23.190  0.00  0.00    +0.000 NA
ATOM     20  C   UNL     1      -0.792  12.189  22.552  0.00  0.00    +0.000 A 
ATOM     21  S   UNL     1      -0.239  12.162  20.916  0.00  0.00    +0.000 S 
BRANCH  20  22
ATOM     22  C   UNL     1      -1.336  13.427  23.142  0.00  0.00    +0.000 A 
ATOM     23  C   UNL     1      -0.591  14.626  23.102  0.00  0.00    +0.000 A 
ATOM     24  C   UNL     1      -1.070  15.800  23.692  0.00  0.00    +0.000 A 
ATOM     25  C   UNL     1      -2.312  15.807  24.320  0.00  0.00    +0.000 A 
ATOM     26  C   UNL     1      -3.074  14.643  24.349  0.00  0.00    +0.000 A 
ATOM     27  C   UNL     1      -2.596  13.461  23.771  0.00  0.00    +0.000 A 
ATOM     28 CL   UNL     1      -3.621  12.072  23.934  0.00  0.00    +0.000 Cl
ENDBRANCH  20  22
ENDBRANCH   5  17
TORSDOF 4
ENDMDL
MODEL 7
REMARK VINA RESULT:      -7.8      3.237      4.044
REMARK  Name = 
REMARK  5 active torsions:
REMARK  status: ('A' for Active; 'I' for Inactive)
REMARK    1  A    between atoms: C_1  and  S_2
REMARK    2  A    between atoms: S_2  and  C_5
REMARK    3  A    between atoms: C_8  and  C_9
REMARK    4  A    between atoms: C_13  and  C_14
REMARK    5  A    between atoms: C_17  and  C_18
REMARK                            x       y       z     vdW  Elec       q    Type
REMARK                         _______ _______ _______ _____ _____    ______ ____
ROOT
ATOM      1  C   UNL     1       3.260   6.137  18.686  0.00  0.00    +0.000 A 
ATOM      2  C   UNL     1       2.795   4.910  19.180  0.00  0.00    +0.000 A 
ATOM      3  C   UNL     1       1.874   4.864  20.226  0.00  0.00    +0.000 A 
ATOM      4  C   UNL     1       1.398   6.048  20.788  0.00  0.00    +0.000 A 
ATOM      5  C   UNL     1       1.849   7.290  20.323  0.00  0.00    +0.000 A 
ATOM      6  C   UNL     1       2.793   7.318  19.281  0.00  0.00    +0.000 A 
ENDROOT
BRANCH   1  10
ATOM      7  C   UNL     1       5.748   5.610  16.120  0.00  0.00    +0.000 A 
ATOM      8  N   UNL     1       5.326   6.812  15.795  0.00  0.00    +0.000 NA
ATOM      9  N   UNL     1       4.323   7.147  16.674  0.00  0.00    +0.000 NA
ATOM     10  C   UNL     1       4.155   6.153  17.529  0.00  0.00    +0.000 A 
ATOM     11  N   UNL     1       5.017   5.145  17.173  0.00  0.00    +0.000 N 
ATOM     12  H   UNL     1       5.139   4.249  17.620  0.00  0.00    +0.000 HD
BRANCH   7  14
ATOM     13  C   UNL     1       6.217   3.524  14.356  0.00  0.00    +0.000 C 
ATOM     14  S   UNL     1       7.046   4.718  15.371  0.00  0.00    +0.000 S 
ATOM     15  O   UNL     1       7.721   4.057  16.470  0.00  0.00    +0.000 OA
ATOM     16  O   UNL     1       7.732   5.689  14.541  0.00  0.00    +0.000 OA
ENDBRANCH   7  14
ENDBRANCH   1  10
BRANCH   5  17
ATOM     17  C   UNL     1       1.281   8.527  20.862  0.00  0.00    +0.000 A 
ATOM     18  C   UNL     1       1.171   8.941  22.175  0.00  0.00    +0.000 A 
ATOM     19  N   UNL     1       0.534  10.145  22.379  0.00  0.00    +0.000 NA
ATOM     20  C   UNL     1       0.220  10.703  21.228  0.00  0.00    +0.000 A 
ATOM     21  S   UNL     1       0.619   9.744  19.848  0.00  0.00    +0.000 S 
BRANCH  20  22
ATOM     22  C   UNL     1      -0.377  12.042  21.067  0.00  0.00    +0.000 A 
ATOM     23  C   UNL     1      -1.777  12.214  21.141  0.00  0.00    +0.000 A 
ATOM     24  C   UNL     1      -2.367  13.468  20.950  0.00  0.00    +0.000 A 
ATOM     25  C   UNL     1      -1.570  14.581  20.699  0.00  0.00    +0.000 A 
ATOM     26  C   UNL     1      -0.187  14.438  20.647  0.00  0.00    +0.000 A 
ATOM     27  C   UNL     1       0.410  13.185  20.826  0.00  0.00    +0.000 A 
ATOM     28 CL   UNL     1       2.136  13.142  20.675  0.00  0.00    +0.000 Cl
ENDBRANCH  20  22
ENDBRANCH   5  17
TORSDOF 4
ENDMDL
MODEL 8
REMARK VINA RESULT:      -7.8      3.753      4.723
REMARK  Name = 
REMARK  5 active torsions:
REMARK  status: ('A' for Active; 'I' for Inactive)
REMARK    1  A    between atoms: C_1  and  S_2
REMARK    2  A    between atoms: S_2  and  C_5
REMARK    3  A    between atoms: C_8  and  C_9
REMARK    4  A    between atoms: C_13  and  C_14
REMARK    5  A    between atoms: C_17  and  C_18
REMARK                            x       y       z     vdW  Elec       q    Type
REMARK                         _______ _______ _______ _____ _____    ______ ____
ROOT
ATOM      1  C   UNL     1       2.964   5.259  19.059  0.00  0.00    +0.000 A 
ATOM      2  C   UNL     1       2.213   4.286  19.734  0.00  0.00    +0.000 A 
ATOM      3  C   UNL     1       1.252   4.652  20.676  0.00  0.00    +0.000 A 
ATOM      4  C   UNL     1       1.023   5.999  20.952  0.00  0.00    +0.000 A 
ATOM      5  C   UNL     1       1.762   6.995  20.301  0.00  0.00    +0.000 A 
ATOM      6  C   UNL     1       2.741   6.609  19.368  0.00  0.00    +0.000 A 
ENDROOT
BRANCH   1  10
ATOM      7  C   UNL     1       5.664   4.766  16.710  0.00  0.00    +0.000 A 
ATOM      8  N   UNL     1       4.747   3.984  16.183  0.00  0.00    +0.000 NA
ATOM      9  N   UNL     1       3.645   4.031  17.003  0.00  0.00    +0.000 NA
ATOM     10  C   UNL     1       3.898   4.848  18.012  0.00  0.00    +0.000 A 
ATOM     11  N   UNL     1       5.189   5.295  17.873  0.00  0.00    +0.000 N 
ATOM     12  H   UNL     1       5.691   5.931  18.475  0.00  0.00    +0.000 HD
BRANCH   7  14
ATOM     13  C   UNL     1       7.087   4.726  14.333  0.00  0.00    +0.000 C 
ATOM     14  S   UNL     1       7.240   5.123  16.054  0.00  0.00    +0.000 S 
ATOM     15  O   UNL     1       8.132   4.186  16.706  0.00  0.00    +0.000 OA
ATOM     16  O   UNL     1       7.396   6.555  16.224  0.00  0.00    +0.000 OA
ENDBRANCH   7  14
ENDBRANCH   1  10
BRANCH   5  17
ATOM     17  C   UNL     1       1.456   8.408  20.535  0.00  0.00    +0.000 A 
ATOM     18  C   UNL     1       1.260   9.076  21.728  0.00  0.00    +0.000 A 
ATOM     19  N   UNL     1       0.931  10.410  21.628  0.00  0.00    +0.000 NA
ATOM     20  C   UNL     1       0.946  10.796  20.369  0.00  0.00    +0.000 A 
ATOM     21  S   UNL     1       1.288   9.530  19.246  0.00  0.00    +0.000 S 
BRANCH  20  22
ATOM     22  C   UNL     1       0.743  12.181  19.903  0.00  0.00    +0.000 A 
ATOM     23  C   UNL     1       1.820  13.095  19.882  0.00  0.00    +0.000 A 
ATOM     24  C   UNL     1       1.640  14.423  19.484  0.00  0.00    +0.000 A 
ATOM     25  C   UNL     1       0.383  14.864  19.080  0.00  0.00    +0.000 A 
ATOM     26  C   UNL     1      -0.686  13.975  19.068  0.00  0.00    +0.000 A 
ATOM     27  C   UNL     1      -0.516  12.646  19.477  0.00  0.00    +0.000 A 
ATOM     28 CL   UNL     1      -1.946  11.665  19.471  0.00  0.00    +0.000 Cl
ENDBRANCH  20  22
ENDBRANCH   5  17
TORSDOF 4
ENDMDL
MODEL 9
REMARK VINA RESULT:      -7.8      1.436      1.608
REMARK  Name = 
REMARK  5 active torsions:
REMARK  status: ('A' for Active; 'I' for Inactive)
REMARK    1  A    between atoms: C_1  and  S_2
REMARK    2  A    between atoms: S_2  and  C_5
REMARK    3  A    between atoms: C_8  and  C_9
REMARK    4  A    between atoms: C_13  and  C_14
REMARK    5  A    between atoms: C_17  and  C_18
REMARK                            x       y       z     vdW  Elec       q    Type
REMARK                         _______ _______ _______ _____ _____    ______ ____
ROOT
ATOM      1  C   UNL     1       1.789   7.846  19.583  0.00  0.00    +0.000 A 
ATOM      2  C   UNL     1       2.126   8.532  18.409  0.00  0.00    +0.000 A 
ATOM      3  C   UNL     1       1.675   9.833  18.187  0.00  0.00    +0.000 A 
ATOM      4  C   UNL     1       0.885  10.469  19.143  0.00  0.00    +0.000 A 
ATOM      5  C   UNL     1       0.523   9.807  20.323  0.00  0.00    +0.000 A 
ATOM      6  C   UNL     1       0.970   8.489  20.522  0.00  0.00    +0.000 A 
ENDROOT
BRANCH   1  10
ATOM      7  C   UNL     1       3.535   4.683  19.598  0.00  0.00    +0.000 A 
ATOM      8  N   UNL     1       2.646   4.465  20.541  0.00  0.00    +0.000 NA
ATOM      9  N   UNL     1       1.912   5.618  20.689  0.00  0.00    +0.000 NA
ATOM     10  C   UNL     1       2.353   6.519  19.827  0.00  0.00    +0.000 A 
ATOM     11  N   UNL     1       3.413   5.965  19.151  0.00  0.00    +0.000 N 
ATOM     12  H   UNL     1       3.974   6.389  18.428  0.00  0.00    +0.000 HD
BRANCH   7  14
ATOM     13  C   UNL     1       4.522   2.128  20.021  0.00  0.00    +0.000 C 
ATOM     14  S   UNL     1       4.692   3.541  18.964  0.00  0.00    +0.000 S 
ATOM     15  O   UNL     1       5.981   4.169  19.171  0.00  0.00    +0.000 OA
ATOM     16  O   UNL     1       4.212   3.229  17.632  0.00  0.00    +0.000 OA
ENDBRANCH   7  14
ENDBRANCH   1  10
BRANCH   5  17
ATOM     17  C   UNL     1      -0.236  10.513  21.358  0.00  0.00    +0.000 A 
ATOM     18  C   UNL     1      -0.288  10.280  22.718  0.00  0.00    +0.000 A 
ATOM     19  N   UNL     1      -1.143  11.085  23.438  0.00  0.00    +0.000 NA
ATOM     20  C   UNL     1      -1.694  11.989  22.656  0.00  0.00    +0.000 A 
ATOM     21  S   UNL     1      -1.252  11.848  20.993  0.00  0.00    +0.000 S 
BRANCH  20  22
ATOM     22  C   UNL     1      -2.581  13.078  23.109  0.00  0.00    +0.000 A 
ATOM     23  C   UNL     1      -3.943  12.825  23.384  0.00  0.00    +0.000 A 
ATOM     24  C   UNL     1      -4.810  13.850  23.774  0.00  0.00    +0.000 A 
ATOM     25  C   UNL     1      -4.331  15.149  23.916  0.00  0.00    +0.000 A 
ATOM     26  C   UNL     1      -2.987  15.417  23.676  0.00  0.00    +0.000 A 
ATOM     27  C   UNL     1      -2.116  14.398  23.273  0.00  0.00    +0.000 A 
ATOM     28 CL   UNL     1      -0.483  14.883  22.949  0.00  0.00    +0.000 Cl
ENDBRANCH  20  22
ENDBRANCH   5  17
TORSDOF 4
ENDMDL
