MODEL 1
REMARK VINA RESULT:      -7.5      0.000      0.000
REMARK  Name = 
REMARK  9 active torsions:
REMARK  status: ('A' for Active; 'I' for Inactive)
REMARK    1  A    between atoms: C_1  and  C_2
REMARK    2  A    between atoms: C_2  and  C_3
REMARK    3  A    between atoms: C_3  and  C_4
REMARK    4  A    between atoms: C_4  and  N_5
REMARK    5  A    between atoms: N_5  and  C_6
REMARK    6  A    between atoms: C_9  and  C_10
REMARK    7  A    between atoms: C_11  and  N_12
REMARK    8  A    between atoms: C_15  and  N_16
REMARK    9  A    between atoms: C_20  and  C_21
REMARK                            x       y       z     vdW  Elec       q    Type
REMARK                         _______ _______ _______ _____ _____    ______ ____
ROOT
ATOM      1  N   UNL     1       2.184   7.562  19.754  0.00  0.00    +0.000 N 
ATOM      2  C   UNL     1       1.271   7.875  20.838  0.00  0.00    +0.000 C 
ATOM      3  C   UNL     1       2.664   6.272  19.689  0.00  0.00    +0.000 A 
ATOM      4  N   UNL     1       2.171   5.344  20.521  0.00  0.00    +0.000 NA
ATOM      5  C   UNL     1       2.614   4.070  20.426  0.00  0.00    +0.000 A 
ATOM      6  C   UNL     1       2.001   3.112  21.408  0.00  0.00    +0.000 C 
ATOM      7  C   UNL     1       3.571   3.709  19.496  0.00  0.00    +0.000 A 
ATOM      8  C   UNL     1       4.059   4.703  18.673  0.00  0.00    +0.000 A 
ATOM      9  N   UNL     1       3.605   5.978  18.780  0.00  0.00    +0.000 NA
ENDROOT
BRANCH   8  10
ATOM     10  N   UNL     1       5.021   4.480  17.638  0.00  0.00    +0.000 N 
ATOM     11  C   UNL     1       4.803   3.976  16.372  0.00  0.00    +0.000 A 
ATOM     12  C   UNL     1       6.025   3.960  15.747  0.00  0.00    +0.000 A 
ATOM     13  N   UNL     1       6.987   4.476  16.559  0.00  0.00    +0.000 NA
ATOM     14  C   UNL     1       6.377   4.802  17.684  0.00  0.00    +0.000 A 
ATOM     15  C   UNL     1       7.078   5.357  18.874  0.00  0.00    +0.000 C 
ENDBRANCH   8  10
BRANCH   7  16
ATOM     16  N   UNL     1       4.137   2.394  19.551  0.00  0.00    +0.000 N 
ATOM     17  O   UNL     1       5.079   2.217  20.330  0.00  0.00    +0.000 OA
ATOM     18  O   UNL     1       3.643   1.538  18.806  0.00  0.00    +0.000 OA
ENDBRANCH   7  16
BRANCH   1  19
ATOM     19  C   UNL     1       2.142   8.351  18.526  0.00  0.00    +0.000 C 
BRANCH  19  20
ATOM     20  C   UNL     1       1.424   9.701  18.674  0.00  0.00    +0.000 C 
BRANCH  20  22
ATOM     21  C   UNL     1      -0.980  10.442  18.831  0.00  0.00    +0.000 C 
ATOM     22  C   UNL     1       0.070   9.763  17.965  0.00  0.00    +0.000 C 
ENDBRANCH  20  22
ENDBRANCH  19  20
ENDBRANCH   1  19
TORSDOF 5
ENDMDL
MODEL 2
REMARK VINA RESULT:      -7.2      3.222      6.514
REMARK  Name = 
REMARK  9 active torsions:
REMARK  status: ('A' for Active; 'I' for Inactive)
REMARK    1  A    between atoms: C_1  and  C_2
REMARK    2  A    between atoms: C_2  and  C_3
REMARK    3  A    between atoms: C_3  and  C_4
REMARK    4  A    between atoms: C_4  and  N_5
REMARK    5  A    between atoms: N_5  and  C_6
REMARK    6  A    between atoms: C_9  and  C_10
REMARK    7  A    between atoms: C_11  and  N_12
REMARK    8  A    between atoms: C_15  and  N_16
REMARK    9  A    between atoms: C_20  and  C_21
REMARK                            x       y       z     vdW  Elec       q    Type
REMARK                         _______ _______ _______ _____ _____    ______ ____
ROOT
ATOM      1  N   UNL     1       6.072   4.013  13.825  0.00  0.00    +0.000 N 
ATOM      2  C   UNL     1       7.108   4.688  13.065  0.00  0.00    +0.000 C 
ATOM      3  C   UNL     1       5.938   4.359  15.152  0.00  0.00    +0.000 A 
ATOM      4  N   UNL     1       6.655   5.382  15.640  0.00  0.00    +0.000 NA
ATOM      5  C   UNL     1       6.491   5.746  16.932  0.00  0.00    +0.000 A 
ATOM      6  C   UNL     1       7.346   6.898  17.378  0.00  0.00    +0.000 C 
ATOM      7  C   UNL     1       5.607   5.079  17.760  0.00  0.00    +0.000 A 
ATOM      8  C   UNL     1       4.904   4.025  17.215  0.00  0.00    +0.000 A 
ATOM      9  N   UNL     1       5.079   3.670  15.917  0.00  0.00    +0.000 NA
ENDROOT
BRANCH   8  10
ATOM     10  N   UNL     1       3.928   3.263  17.932  0.00  0.00    +0.000 N 
ATOM     11  C   UNL     1       4.104   2.061  18.586  0.00  0.00    +0.000 A 
ATOM     12  C   UNL     1       2.887   1.735  19.131  0.00  0.00    +0.000 A 
ATOM     13  N   UNL     1       1.971   2.710  18.879  0.00  0.00    +0.000 NA
ATOM     14  C   UNL     1       2.605   3.631  18.175  0.00  0.00    +0.000 A 
ATOM     15  C   UNL     1       1.952   4.856  17.638  0.00  0.00    +0.000 C 
ENDBRANCH   8  10
BRANCH   7  16
ATOM     16  N   UNL     1       5.598   5.384  19.159  0.00  0.00    +0.000 N 
ATOM     17  O   UNL     1       4.607   5.975  19.602  0.00  0.00    +0.000 OA
ATOM     18  O   UNL     1       6.588   5.040  19.817  0.00  0.00    +0.000 OA
ENDBRANCH   7  16
BRANCH   1  19
ATOM     19  C   UNL     1       4.911   3.463  13.130  0.00  0.00    +0.000 C 
BRANCH  19  20
ATOM     20  C   UNL     1       4.979   3.591  11.601  0.00  0.00    +0.000 C 
BRANCH  20  22
ATOM     21  C   UNL     1       3.184   4.099   9.907  0.00  0.00    +0.000 C 
ATOM     22  C   UNL     1       3.736   3.069  10.880  0.00  0.00    +0.000 C 
ENDBRANCH  20  22
ENDBRANCH  19  20
ENDBRANCH   1  19
TORSDOF 5
ENDMDL
MODEL 3
REMARK VINA RESULT:      -7.0      3.206      6.823
REMARK  Name = 
REMARK  9 active torsions:
REMARK  status: ('A' for Active; 'I' for Inactive)
REMARK    1  A    between atoms: C_1  and  C_2
REMARK    2  A    between atoms: C_2  and  C_3
REMARK    3  A    between atoms: C_3  and  C_4
REMARK    4  A    between atoms: C_4  and  N_5
REMARK    5  A    between atoms: N_5  and  C_6
REMARK    6  A    between atoms: C_9  and  C_10
REMARK    7  A    between atoms: C_11  and  N_12
REMARK    8  A    between atoms: C_15  and  N_16
REMARK    9  A    between atoms: C_20  and  C_21
REMARK                            x       y       z     vdW  Elec       q    Type
REMARK                         _______ _______ _______ _____ _____    ______ ____
ROOT
ATOM      1  N   UNL     1       6.276   4.194  13.895  0.00  0.00    +0.000 N 
ATOM      2  C   UNL     1       7.349   4.894  13.213  0.00  0.00    +0.000 C 
ATOM      3  C   UNL     1       6.080   4.487  15.227  0.00  0.00    +0.000 A 
ATOM      4  N   UNL     1       6.775   5.485  15.790  0.00  0.00    +0.000 NA
ATOM      5  C   UNL     1       6.550   5.798  17.086  0.00  0.00    +0.000 A 
ATOM      6  C   UNL     1       7.385   6.928  17.618  0.00  0.00    +0.000 C 
ATOM      7  C   UNL     1       5.627   5.102  17.843  0.00  0.00    +0.000 A 
ATOM      8  C   UNL     1       4.947   4.073  17.223  0.00  0.00    +0.000 A 
ATOM      9  N   UNL     1       5.184   3.771  15.922  0.00  0.00    +0.000 NA
ENDROOT
BRANCH   8  10
ATOM     10  N   UNL     1       3.936   3.288  17.862  0.00  0.00    +0.000 N 
ATOM     11  C   UNL     1       4.072   2.044  18.444  0.00  0.00    +0.000 A 
ATOM     12  C   UNL     1       2.833   1.708  18.931  0.00  0.00    +0.000 A 
ATOM     13  N   UNL     1       1.943   2.714  18.713  0.00  0.00    +0.000 NA
ATOM     14  C   UNL     1       2.613   3.665  18.088  0.00  0.00    +0.000 A 
ATOM     15  C   UNL     1       1.999   4.934  17.610  0.00  0.00    +0.000 C 
ENDBRANCH   8  10
BRANCH   7  16
ATOM     16  N   UNL     1       5.551   5.350  19.252  0.00  0.00    +0.000 N 
ATOM     17  O   UNL     1       6.498   4.962  19.945  0.00  0.00    +0.000 OA
ATOM     18  O   UNL     1       4.537   5.925  19.669  0.00  0.00    +0.000 OA
ENDBRANCH   7  16
BRANCH   1  19
ATOM     19  C   UNL     1       5.148   3.677  13.124  0.00  0.00    +0.000 C 
BRANCH  19  20
ATOM     20  C   UNL     1       5.495   3.319  11.671  0.00  0.00    +0.000 C 
BRANCH  20  22
ATOM     21  C   UNL     1       7.123   1.501  11.041  0.00  0.00    +0.000 C 
ATOM     22  C   UNL     1       5.689   1.821  11.431  0.00  0.00    +0.000 C 
ENDBRANCH  20  22
ENDBRANCH  19  20
ENDBRANCH   1  19
TORSDOF 5
ENDMDL
MODEL 4
REMARK VINA RESULT:      -6.8      0.637      1.500
REMARK  Name = 
REMARK  9 active torsions:
REMARK  status: ('A' for Active; 'I' for Inactive)
REMARK    1  A    between atoms: C_1  and  C_2
REMARK    2  A    between atoms: C_2  and  C_3
REMARK    3  A    between atoms: C_3  and  C_4
REMARK    4  A    between atoms: C_4  and  N_5
REMARK    5  A    between atoms: N_5  and  C_6
REMARK    6  A    between atoms: C_9  and  C_10
REMARK    7  A    between atoms: C_11  and  N_12
REMARK    8  A    between atoms: C_15  and  N_16
REMARK    9  A    between atoms: C_20  and  C_21
REMARK                            x       y       z     vdW  Elec       q    Type
REMARK                         _______ _______ _______ _____ _____    ______ ____
ROOT
ATOM      1  N   UNL     1       1.893   7.392  20.233  0.00  0.00    +0.000 N 
ATOM      2  C   UNL     1       0.746   7.523  21.112  0.00  0.00    +0.000 C 
ATOM      3  C   UNL     1       2.450   6.137  20.108  0.00  0.00    +0.000 A 
ATOM      4  N   UNL     1       1.840   5.088  20.676  0.00  0.00    +0.000 NA
ATOM      5  C   UNL     1       2.366   3.852  20.517  0.00  0.00    +0.000 A 
ATOM      6  C   UNL     1       1.607   2.749  21.198  0.00  0.00    +0.000 C 
ATOM      7  C   UNL     1       3.524   3.653  19.790  0.00  0.00    +0.000 A 
ATOM      8  C   UNL     1       4.124   4.767  19.238  0.00  0.00    +0.000 A 
ATOM      9  N   UNL     1       3.584   6.000  19.406  0.00  0.00    +0.000 NA
ENDROOT
BRANCH   8  10
ATOM     10  N   UNL     1       5.303   4.718  18.429  0.00  0.00    +0.000 N 
ATOM     11  C   UNL     1       6.602   4.989  18.808  0.00  0.00    +0.000 A 
ATOM     12  C   UNL     1       7.379   4.795  17.693  0.00  0.00    +0.000 A 
ATOM     13  N   UNL     1       6.619   4.370  16.647  0.00  0.00    +0.000 NA
ATOM     14  C   UNL     1       5.379   4.309  17.098  0.00  0.00    +0.000 A 
ATOM     15  C   UNL     1       4.209   3.937  16.256  0.00  0.00    +0.000 C 
ENDBRANCH   8  10
BRANCH   7  16
ATOM     16  N   UNL     1       4.139   2.359  19.798  0.00  0.00    +0.000 N 
ATOM     17  O   UNL     1       3.810   1.573  18.903  0.00  0.00    +0.000 OA
ATOM     18  O   UNL     1       4.945   2.124  20.707  0.00  0.00    +0.000 OA
ENDBRANCH   7  16
BRANCH   1  19
ATOM     19  C   UNL     1       2.079   8.345  19.143  0.00  0.00    +0.000 C 
BRANCH  19  20
ATOM     20  C   UNL     1       1.173   9.583  19.233  0.00  0.00    +0.000 C 
BRANCH  20  22
ATOM     21  C   UNL     1      -1.075  10.291  18.342  0.00  0.00    +0.000 C 
ATOM     22  C   UNL     1       0.326   9.824  17.983  0.00  0.00    +0.000 C 
ENDBRANCH  20  22
ENDBRANCH  19  20
ENDBRANCH   1  19
TORSDOF 5
ENDMDL
MODEL 5
REMARK VINA RESULT:      -6.7      3.379      6.428
REMARK  Name = 
REMARK  9 active torsions:
REMARK  status: ('A' for Active; 'I' for Inactive)
REMARK    1  A    between atoms: C_1  and  C_2
REMARK    2  A    between atoms: C_2  and  C_3
REMARK    3  A    between atoms: C_3  and  C_4
REMARK    4  A    between atoms: C_4  and  N_5
REMARK    5  A    between atoms: N_5  and  C_6
REMARK    6  A    between atoms: C_9  and  C_10
REMARK    7  A    between atoms: C_11  and  N_12
REMARK    8  A    between atoms: C_15  and  N_16
REMARK    9  A    between atoms: C_20  and  C_21
REMARK                            x       y       z     vdW  Elec       q    Type
REMARK                         _______ _______ _______ _____ _____    ______ ____
ROOT
ATOM      1  N   UNL     1       6.068   4.142  13.901  0.00  0.00    +0.000 N 
ATOM      2  C   UNL     1       7.353   4.552  13.366  0.00  0.00    +0.000 C 
ATOM      3  C   UNL     1       5.841   4.376  15.240  0.00  0.00    +0.000 A 
ATOM      4  N   UNL     1       6.734   5.085  15.944  0.00  0.00    +0.000 NA
ATOM      5  C   UNL     1       6.488   5.350  17.248  0.00  0.00    +0.000 A 
ATOM      6  C   UNL     1       7.555   6.145  17.944  0.00  0.00    +0.000 C 
ATOM      7  C   UNL     1       5.340   4.895  17.869  0.00  0.00    +0.000 A 
ATOM      8  C   UNL     1       4.458   4.157  17.105  0.00  0.00    +0.000 A 
ATOM      9  N   UNL     1       4.719   3.899  15.799  0.00  0.00    +0.000 NA
ENDROOT
BRANCH   8  10
ATOM     10  N   UNL     1       3.212   3.651  17.594  0.00  0.00    +0.000 N 
ATOM     11  C   UNL     1       1.993   4.297  17.634  0.00  0.00    +0.000 A 
ATOM     12  C   UNL     1       1.101   3.404  18.174  0.00  0.00    +0.000 A 
ATOM     13  N   UNL     1       1.708   2.213  18.429  0.00  0.00    +0.000 NA
ATOM     14  C   UNL     1       2.968   2.362  18.064  0.00  0.00    +0.000 A 
ATOM     15  C   UNL     1       4.006   1.307  18.225  0.00  0.00    +0.000 C 
ENDBRANCH   8  10
BRANCH   7  16
ATOM     16  N   UNL     1       5.208   5.046  19.287  0.00  0.00    +0.000 N 
ATOM     17  O   UNL     1       5.934   4.345  19.999  0.00  0.00    +0.000 OA
ATOM     18  O   UNL     1       4.368   5.860  19.691  0.00  0.00    +0.000 OA
ENDBRANCH   7  16
BRANCH   1  19
ATOM     19  C   UNL     1       4.917   4.034  13.010  0.00  0.00    +0.000 C 
BRANCH  19  20
ATOM     20  C   UNL     1       5.157   3.142  11.782  0.00  0.00    +0.000 C 
BRANCH  20  22
ATOM     21  C   UNL     1       3.357   3.976  10.229  0.00  0.00    +0.000 C 
ATOM     22  C   UNL     1       3.883   2.786  11.016  0.00  0.00    +0.000 C 
ENDBRANCH  20  22
ENDBRANCH  19  20
ENDBRANCH   1  19
TORSDOF 5
ENDMDL
MODEL 6
REMARK VINA RESULT:      -6.7      1.854      4.144
REMARK  Name = 
REMARK  9 active torsions:
REMARK  status: ('A' for Active; 'I' for Inactive)
REMARK    1  A    between atoms: C_1  and  C_2
REMARK    2  A    between atoms: C_2  and  C_3
REMARK    3  A    between atoms: C_3  and  C_4
REMARK    4  A    between atoms: C_4  and  N_5
REMARK    5  A    between atoms: N_5  and  C_6
REMARK    6  A    between atoms: C_9  and  C_10
REMARK    7  A    between atoms: C_11  and  N_12
REMARK    8  A    between atoms: C_15  and  N_16
REMARK    9  A    between atoms: C_20  and  C_21
REMARK                            x       y       z     vdW  Elec       q    Type
REMARK                         _______ _______ _______ _____ _____    ______ ____
ROOT
ATOM      1  N   UNL     1       1.680   8.760  18.776  0.00  0.00    +0.000 N 
ATOM      2  C   UNL     1       2.002   9.856  17.882  0.00  0.00    +0.000 C 
ATOM      3  C   UNL     1       2.422   7.605  18.649  0.00  0.00    +0.000 A 
ATOM      4  N   UNL     1       3.479   7.591  17.824  0.00  0.00    +0.000 NA
ATOM      5  C   UNL     1       4.230   6.470  17.733  0.00  0.00    +0.000 A 
ATOM      6  C   UNL     1       5.385   6.558  16.777  0.00  0.00    +0.000 C 
ATOM      7  C   UNL     1       3.922   5.338  18.464  0.00  0.00    +0.000 A 
ATOM      8  C   UNL     1       2.817   5.398  19.288  0.00  0.00    +0.000 A 
ATOM      9  N   UNL     1       2.072   6.529  19.368  0.00  0.00    +0.000 NA
ENDROOT
BRANCH   8  10
ATOM     10  N   UNL     1       2.394   4.324  20.133  0.00  0.00    +0.000 N 
ATOM     11  C   UNL     1       2.650   4.154  21.479  0.00  0.00    +0.000 A 
ATOM     12  C   UNL     1       2.029   2.986  21.846  0.00  0.00    +0.000 A 
ATOM     13  N   UNL     1       1.359   2.447  20.792  0.00  0.00    +0.000 NA
ATOM     14  C   UNL     1       1.567   3.261  19.773  0.00  0.00    +0.000 A 
ATOM     15  C   UNL     1       1.053   3.014  18.398  0.00  0.00    +0.000 C 
ENDBRANCH   8  10
BRANCH   7  16
ATOM     16  N   UNL     1       4.636   4.123  18.203  0.00  0.00    +0.000 N 
ATOM     17  O   UNL     1       5.567   3.841  18.964  0.00  0.00    +0.000 OA
ATOM     18  O   UNL     1       4.271   3.455  17.227  0.00  0.00    +0.000 OA
ENDBRANCH   7  16
BRANCH   1  19
ATOM     19  C   UNL     1       1.047   9.040  20.062  0.00  0.00    +0.000 C 
BRANCH  19  20
ATOM     20  C   UNL     1      -0.010  10.153  20.009  0.00  0.00    +0.000 C 
BRANCH  20  22
ATOM     21  C   UNL     1      -0.182   9.620  22.466  0.00  0.00    +0.000 C 
ATOM     22  C   UNL     1      -0.452  10.654  21.384  0.00  0.00    +0.000 C 
ENDBRANCH  20  22
ENDBRANCH  19  20
ENDBRANCH   1  19
TORSDOF 5
ENDMDL
MODEL 7
REMARK VINA RESULT:      -6.5      1.829      4.026
REMARK  Name = 
REMARK  9 active torsions:
REMARK  status: ('A' for Active; 'I' for Inactive)
REMARK    1  A    between atoms: C_1  and  C_2
REMARK    2  A    between atoms: C_2  and  C_3
REMARK    3  A    between atoms: C_3  and  C_4
REMARK    4  A    between atoms: C_4  and  N_5
REMARK    5  A    between atoms: N_5  and  C_6
REMARK    6  A    between atoms: C_9  and  C_10
REMARK    7  A    between atoms: C_11  and  N_12
REMARK    8  A    between atoms: C_15  and  N_16
REMARK    9  A    between atoms: C_20  and  C_21
REMARK                            x       y       z     vdW  Elec       q    Type
REMARK                         _______ _______ _______ _____ _____    ______ ____
ROOT
ATOM      1  N   UNL     1       1.732   8.780  18.660  0.00  0.00    +0.000 N 
ATOM      2  C   UNL     1       2.085   9.866  17.765  0.00  0.00    +0.000 C 
ATOM      3  C   UNL     1       2.473   7.622  18.568  0.00  0.00    +0.000 A 
ATOM      4  N   UNL     1       3.555   7.596  17.777  0.00  0.00    +0.000 NA
ATOM      5  C   UNL     1       4.305   6.472  17.720  0.00  0.00    +0.000 A 
ATOM      6  C   UNL     1       5.490   6.547  16.800  0.00  0.00    +0.000 C 
ATOM      7  C   UNL     1       3.972   5.348  18.454  0.00  0.00    +0.000 A 
ATOM      8  C   UNL     1       2.841   5.420  19.242  0.00  0.00    +0.000 A 
ATOM      9  N   UNL     1       2.098   6.555  19.287  0.00  0.00    +0.000 NA
ENDROOT
BRANCH   8  10
ATOM     10  N   UNL     1       2.389   4.357  20.085  0.00  0.00    +0.000 N 
ATOM     11  C   UNL     1       2.598   4.204  21.441  0.00  0.00    +0.000 A 
ATOM     12  C   UNL     1       1.964   3.040  21.800  0.00  0.00    +0.000 A 
ATOM     13  N   UNL     1       1.331   2.487  20.730  0.00  0.00    +0.000 NA
ATOM     14  C   UNL     1       1.575   3.289  19.709  0.00  0.00    +0.000 A 
ATOM     15  C   UNL     1       1.109   3.026  18.320  0.00  0.00    +0.000 C 
ENDBRANCH   8  10
BRANCH   7  16
ATOM     16  N   UNL     1       4.689   4.129  18.227  0.00  0.00    +0.000 N 
ATOM     17  O   UNL     1       5.602   3.857  19.014  0.00  0.00    +0.000 OA
ATOM     18  O   UNL     1       4.345   3.446  17.254  0.00  0.00    +0.000 OA
ENDBRANCH   7  16
BRANCH   1  19
ATOM     19  C   UNL     1       1.060   9.076  19.922  0.00  0.00    +0.000 C 
BRANCH  19  20
ATOM     20  C   UNL     1       0.536  10.516  20.030  0.00  0.00    +0.000 C 
BRANCH  20  22
ATOM     21  C   UNL     1      -1.221  11.735  18.696  0.00  0.00    +0.000 C 
ATOM     22  C   UNL     1      -0.957  10.656  19.734  0.00  0.00    +0.000 C 
ENDBRANCH  20  22
ENDBRANCH  19  20
ENDBRANCH   1  19
TORSDOF 5
ENDMDL
MODEL 8
REMARK VINA RESULT:      -6.5      3.594      6.761
REMARK  Name = 
REMARK  9 active torsions:
REMARK  status: ('A' for Active; 'I' for Inactive)
REMARK    1  A    between atoms: C_1  and  C_2
REMARK    2  A    between atoms: C_2  and  C_3
REMARK    3  A    between atoms: C_3  and  C_4
REMARK    4  A    between atoms: C_4  and  N_5
REMARK    5  A    between atoms: N_5  and  C_6
REMARK    6  A    between atoms: C_9  and  C_10
REMARK    7  A    between atoms: C_11  and  N_12
REMARK    8  A    between atoms: C_15  and  N_16
REMARK    9  A    between atoms: C_20  and  C_21
REMARK                            x       y       z     vdW  Elec       q    Type
REMARK                         _______ _______ _______ _____ _____    ______ ____
ROOT
ATOM      1  N   UNL     1       6.170   4.039  14.017  0.00  0.00    +0.000 N 
ATOM      2  C   UNL     1       7.372   4.585  13.415  0.00  0.00    +0.000 C 
ATOM      3  C   UNL     1       5.911   4.381  15.328  0.00  0.00    +0.000 A 
ATOM      4  N   UNL     1       6.682   5.295  15.933  0.00  0.00    +0.000 NA
ATOM      5  C   UNL     1       6.401   5.659  17.204  0.00  0.00    +0.000 A 
ATOM      6  C   UNL     1       7.329   6.684  17.789  0.00  0.00    +0.000 C 
ATOM      7  C   UNL     1       5.341   5.100  17.894  0.00  0.00    +0.000 A 
ATOM      8  C   UNL     1       4.586   4.153  17.233  0.00  0.00    +0.000 A 
ATOM      9  N   UNL     1       4.881   3.797  15.957  0.00  0.00    +0.000 NA
ENDROOT
BRANCH   8  10
ATOM     10  N   UNL     1       3.438   3.513  17.798  0.00  0.00    +0.000 N 
ATOM     11  C   UNL     1       2.108   3.777  17.539  0.00  0.00    +0.000 A 
ATOM     12  C   UNL     1       1.383   2.901  18.308  0.00  0.00    +0.000 A 
ATOM     13  N   UNL     1       2.211   2.073  19.001  0.00  0.00    +0.000 NA
ATOM     14  C   UNL     1       3.440   2.433  18.678  0.00  0.00    +0.000 A 
ATOM     15  C   UNL     1       4.663   1.814  19.259  0.00  0.00    +0.000 C 
ENDBRANCH   8  10
BRANCH   7  16
ATOM     16  N   UNL     1       5.190   5.383  19.290  0.00  0.00    +0.000 N 
ATOM     17  O   UNL     1       4.181   6.008  19.633  0.00  0.00    +0.000 OA
ATOM     18  O   UNL     1       6.088   4.988  20.045  0.00  0.00    +0.000 OA
ENDBRANCH   7  16
BRANCH   1  19
ATOM     19  C   UNL     1       5.048   3.653  13.166  0.00  0.00    +0.000 C 
BRANCH  19  20
ATOM     20  C   UNL     1       5.445   3.321  11.720  0.00  0.00    +0.000 C 
BRANCH  20  22
ATOM     21  C   UNL     1       7.049   1.503  11.033  0.00  0.00    +0.000 C 
ATOM     22  C   UNL     1       5.625   1.826  11.454  0.00  0.00    +0.000 C 
ENDBRANCH  20  22
ENDBRANCH  19  20
ENDBRANCH   1  19
TORSDOF 5
ENDMDL
MODEL 9
REMARK VINA RESULT:      -6.5      2.179      5.533
REMARK  Name = 
REMARK  9 active torsions:
REMARK  status: ('A' for Active; 'I' for Inactive)
REMARK    1  A    between atoms: C_1  and  C_2
REMARK    2  A    between atoms: C_2  and  C_3
REMARK    3  A    between atoms: C_3  and  C_4
REMARK    4  A    between atoms: C_4  and  N_5
REMARK    5  A    between atoms: N_5  and  C_6
REMARK    6  A    between atoms: C_9  and  C_10
REMARK    7  A    between atoms: C_11  and  N_12
REMARK    8  A    between atoms: C_15  and  N_16
REMARK    9  A    between atoms: C_20  and  C_21
REMARK                            x       y       z     vdW  Elec       q    Type
REMARK                         _______ _______ _______ _____ _____    ______ ____
ROOT
ATOM      1  N   UNL     1       6.676   5.431  17.577  0.00  0.00    +0.000 N 
ATOM      2  C   UNL     1       7.486   4.479  16.839  0.00  0.00    +0.000 C 
ATOM      3  C   UNL     1       5.383   5.058  17.876  0.00  0.00    +0.000 A 
ATOM      4  N   UNL     1       4.980   3.809  17.607  0.00  0.00    +0.000 NA
ATOM      5  C   UNL     1       3.724   3.433  17.939  0.00  0.00    +0.000 A 
ATOM      6  C   UNL     1       3.373   2.016  17.588  0.00  0.00    +0.000 C 
ATOM      7  C   UNL     1       2.847   4.316  18.541  0.00  0.00    +0.000 A 
ATOM      8  C   UNL     1       3.304   5.595  18.784  0.00  0.00    +0.000 A 
ATOM      9  N   UNL     1       4.566   5.957  18.444  0.00  0.00    +0.000 NA
ENDROOT
BRANCH   8  10
ATOM     10  N   UNL     1       2.529   6.608  19.433  0.00  0.00    +0.000 N 
ATOM     11  C   UNL     1       2.022   6.594  20.716  0.00  0.00    +0.000 A 
ATOM     12  C   UNL     1       1.363   7.787  20.884  0.00  0.00    +0.000 A 
ATOM     13  N   UNL     1       1.479   8.560  19.770  0.00  0.00    +0.000 NA
ATOM     14  C   UNL     1       2.193   7.856  18.911  0.00  0.00    +0.000 A 
ATOM     15  C   UNL     1       2.511   8.312  17.530  0.00  0.00    +0.000 C 
ENDBRANCH   8  10
BRANCH   7  16
ATOM     16  N   UNL     1       1.478   3.930  18.712  0.00  0.00    +0.000 N 
ATOM     17  O   UNL     1       0.736   4.033  17.729  0.00  0.00    +0.000 OA
ATOM     18  O   UNL     1       1.140   3.534  19.834  0.00  0.00    +0.000 OA
ENDBRANCH   7  16
BRANCH   1  19
ATOM     19  C   UNL     1       7.326   6.424  18.426  0.00  0.00    +0.000 C 
BRANCH  19  20
ATOM     20  C   UNL     1       7.715   7.717  17.692  0.00  0.00    +0.000 C 
BRANCH  20  22
ATOM     21  C   UNL     1       8.503  10.092  17.990  0.00  0.00    +0.000 C 
ATOM     22  C   UNL     1       8.570   8.670  18.526  0.00  0.00    +0.000 C 
ENDBRANCH  20  22
ENDBRANCH  19  20
ENDBRANCH   1  19
TORSDOF 5
ENDMDL
