MODEL 1
REMARK VINA RESULT:      -6.9      0.000      0.000
REMARK  Name = 
REMARK  2 active torsions:
REMARK  status: ('A' for Active; 'I' for Inactive)
REMARK    1  A    between atoms: C_1  and  S_2
REMARK    2  A    between atoms: S_2  and  C_3
REMARK                            x       y       z     vdW  Elec       q    Type
REMARK                         _______ _______ _______ _____ _____    ______ ____
ROOT
ATOM      1  C   UNL     1       5.886   5.060  15.686  0.00  0.00    +0.000 A 
ATOM      2  C   UNL     1       5.629   6.335  16.175  0.00  0.00    +0.000 A 
ATOM      3  C   UNL     1       4.755   6.504  17.251  0.00  0.00    +0.000 A 
ATOM      4  C   UNL     1       4.113   5.430  17.853  0.00  0.00    +0.000 A 
ATOM      5  N   UNL     1       3.270   5.686  18.858  0.00  0.00    +0.000 NA
ATOM      6  C   UNL     1       2.615   4.654  19.442  0.00  0.00    +0.000 A 
ATOM      7  C   UNL     1       2.797   3.321  19.093  0.00  0.00    +0.000 A 
ATOM      8  C   UNL     1       3.671   3.075  18.028  0.00  0.00    +0.000 A 
ATOM      9 CL   UNL     1       3.890   1.434  17.483  0.00  0.00    +0.000 Cl
ATOM     10  C   UNL     1       4.356   4.130  17.373  0.00  0.00    +0.000 A 
ATOM     11  C   UNL     1       5.247   3.968  16.279  0.00  0.00    +0.000 A 
ATOM     12  C   UNL     1       2.006   2.237  19.779  0.00  0.00    +0.000 C 
ATOM     13  C   UNL     1       1.503   2.676  21.150  0.00  0.00    +0.000 C 
ATOM     14  N   UNL     1       0.935   3.999  21.113  0.00  0.00    +0.000 N 
ATOM     15  C   UNL     1       1.594   5.033  20.481  0.00  0.00    +0.000 C 
ATOM     16  O   UNL     1       1.319   6.194  20.763  0.00  0.00    +0.000 OA
ATOM     17  H   UNL     1       0.323   4.308  21.860  0.00  0.00    +0.000 HD
ENDROOT
BRANCH   1  19
ATOM     18  C   UNL     1       5.907   3.703  13.294  0.00  0.00    +0.000 C 
ATOM     19  S   UNL     1       6.961   4.788  14.292  0.00  0.00    +0.000 S 
ENDBRANCH   1  19
TORSDOF 1
ENDMDL
MODEL 2
REMARK VINA RESULT:      -6.8      1.016      1.046
REMARK  Name = 
REMARK  2 active torsions:
REMARK  status: ('A' for Active; 'I' for Inactive)
REMARK    1  A    between atoms: C_1  and  S_2
REMARK    2  A    between atoms: S_2  and  C_3
REMARK                            x       y       z     vdW  Elec       q    Type
REMARK                         _______ _______ _______ _____ _____    ______ ____
ROOT
ATOM      1  C   UNL     1       5.723   4.678  14.946  0.00  0.00    +0.000 A 
ATOM      2  C   UNL     1       5.667   6.050  15.163  0.00  0.00    +0.000 A 
ATOM      3  C   UNL     1       4.970   6.552  16.263  0.00  0.00    +0.000 A 
ATOM      4  C   UNL     1       4.312   5.720  17.158  0.00  0.00    +0.000 A 
ATOM      5  N   UNL     1       3.645   6.288  18.168  0.00  0.00    +0.000 NA
ATOM      6  C   UNL     1       2.975   5.495  19.039  0.00  0.00    +0.000 A 
ATOM      7  C   UNL     1       2.971   4.106  18.979  0.00  0.00    +0.000 A 
ATOM      8  C   UNL     1       3.660   3.531  17.906  0.00  0.00    +0.000 A 
ATOM      9 CL   UNL     1       3.634   1.799  17.722  0.00  0.00    +0.000 Cl
ATOM     10  C   UNL     1       4.353   4.328  16.959  0.00  0.00    +0.000 A 
ATOM     11  C   UNL     1       5.064   3.827  15.836  0.00  0.00    +0.000 A 
ATOM     12  C   UNL     1       2.175   3.302  19.975  0.00  0.00    +0.000 C 
ATOM     13  C   UNL     1       1.912   4.080  21.260  0.00  0.00    +0.000 C 
ATOM     14  N   UNL     1       1.482   5.427  20.991  0.00  0.00    +0.000 N 
ATOM     15  C   UNL     1       2.150   6.212  20.073  0.00  0.00    +0.000 C 
ATOM     16  O   UNL     1       2.035   7.432  20.117  0.00  0.00    +0.000 OA
ATOM     17  H   UNL     1       1.013   5.962  21.713  0.00  0.00    +0.000 HD
ENDROOT
BRANCH   1  19
ATOM     18  C   UNL     1       5.137   3.556  12.505  0.00  0.00    +0.000 C 
ATOM     19  S   UNL     1       6.563   3.984  13.537  0.00  0.00    +0.000 S 
ENDBRANCH   1  19
TORSDOF 1
ENDMDL
MODEL 3
REMARK VINA RESULT:      -6.7      4.377      6.225
REMARK  Name = 
REMARK  2 active torsions:
REMARK  status: ('A' for Active; 'I' for Inactive)
REMARK    1  A    between atoms: C_1  and  S_2
REMARK    2  A    between atoms: S_2  and  C_3
REMARK                            x       y       z     vdW  Elec       q    Type
REMARK                         _______ _______ _______ _____ _____    ______ ____
ROOT
ATOM      1  C   UNL     1       0.806   9.453  20.096  0.00  0.00    +0.000 A 
ATOM      2  C   UNL     1       1.200  10.127  18.946  0.00  0.00    +0.000 A 
ATOM      3  C   UNL     1       2.048   9.503  18.030  0.00  0.00    +0.000 A 
ATOM      4  C   UNL     1       2.531   8.217  18.233  0.00  0.00    +0.000 A 
ATOM      5  N   UNL     1       3.363   7.709  17.318  0.00  0.00    +0.000 NA
ATOM      6  C   UNL     1       3.865   6.465  17.510  0.00  0.00    +0.000 A 
ATOM      7  C   UNL     1       3.533   5.651  18.586  0.00  0.00    +0.000 A 
ATOM      8  C   UNL     1       2.675   6.208  19.542  0.00  0.00    +0.000 A 
ATOM      9 CL   UNL     1       2.277   5.275  20.959  0.00  0.00    +0.000 Cl
ATOM     10  C   UNL     1       2.148   7.516  19.391  0.00  0.00    +0.000 A 
ATOM     11  C   UNL     1       1.285   8.159  20.316  0.00  0.00    +0.000 A 
ATOM     12  C   UNL     1       4.161   4.288  18.735  0.00  0.00    +0.000 C 
ATOM     13  C   UNL     1       4.664   3.742  17.403  0.00  0.00    +0.000 C 
ATOM     14  N   UNL     1       5.391   4.736  16.657  0.00  0.00    +0.000 N 
ATOM     15  C   UNL     1       4.887   6.011  16.502  0.00  0.00    +0.000 C 
ATOM     16  O   UNL     1       5.291   6.719  15.587  0.00  0.00    +0.000 OA
ATOM     17  H   UNL     1       6.008   4.453  15.905  0.00  0.00    +0.000 HD
ENDROOT
BRANCH   1  19
ATOM     18  C   UNL     1       0.374   9.392  22.812  0.00  0.00    +0.000 C 
ATOM     19  S   UNL     1      -0.243  10.214  21.319  0.00  0.00    +0.000 S 
ENDBRANCH   1  19
TORSDOF 1
ENDMDL
MODEL 4
REMARK VINA RESULT:      -6.6      3.945      5.558
REMARK  Name = 
REMARK  2 active torsions:
REMARK  status: ('A' for Active; 'I' for Inactive)
REMARK    1  A    between atoms: C_1  and  S_2
REMARK    2  A    between atoms: S_2  and  C_3
REMARK                            x       y       z     vdW  Elec       q    Type
REMARK                         _______ _______ _______ _____ _____    ______ ____
ROOT
ATOM      1  C   UNL     1       1.361   8.243  20.529  0.00  0.00    +0.000 A 
ATOM      2  C   UNL     1       1.761   8.715  19.284  0.00  0.00    +0.000 A 
ATOM      3  C   UNL     1       2.359   7.845  18.369  0.00  0.00    +0.000 A 
ATOM      4  C   UNL     1       2.582   6.507  18.667  0.00  0.00    +0.000 A 
ATOM      5  N   UNL     1       3.187   5.753  17.743  0.00  0.00    +0.000 NA
ATOM      6  C   UNL     1       3.438   4.451  18.022  0.00  0.00    +0.000 A 
ATOM      7  C   UNL     1       3.061   3.824  19.204  0.00  0.00    +0.000 A 
ATOM      8  C   UNL     1       2.444   4.634  20.165  0.00  0.00    +0.000 A 
ATOM      9 CL   UNL     1       2.015   3.935  21.702  0.00  0.00    +0.000 Cl
ATOM     10  C   UNL     1       2.188   6.008  19.921  0.00  0.00    +0.000 A 
ATOM     11  C   UNL     1       1.581   6.901  20.844  0.00  0.00    +0.000 A 
ATOM     12  C   UNL     1       3.403   2.376  19.443  0.00  0.00    +0.000 C 
ATOM     13  C   UNL     1       3.637   1.620  18.139  0.00  0.00    +0.000 C 
ATOM     14  N   UNL     1       4.470   2.365  17.231  0.00  0.00    +0.000 N 
ATOM     15  C   UNL     1       4.229   3.701  16.985  0.00  0.00    +0.000 C 
ATOM     16  O   UNL     1       4.672   4.223  15.968  0.00  0.00    +0.000 OA
ATOM     17  H   UNL     1       4.932   1.891  16.463  0.00  0.00    +0.000 HD
ENDROOT
BRANCH   1  19
ATOM     18  C   UNL     1      -0.377  10.370  20.671  0.00  0.00    +0.000 C 
ATOM     19  S   UNL     1       0.630   9.316  21.749  0.00  0.00    +0.000 S 
ENDBRANCH   1  19
TORSDOF 1
ENDMDL
MODEL 5
REMARK VINA RESULT:      -6.5      4.322      5.906
REMARK  Name = 
REMARK  2 active torsions:
REMARK  status: ('A' for Active; 'I' for Inactive)
REMARK    1  A    between atoms: C_1  and  S_2
REMARK    2  A    between atoms: S_2  and  C_3
REMARK                            x       y       z     vdW  Elec       q    Type
REMARK                         _______ _______ _______ _____ _____    ______ ____
ROOT
ATOM      1  C   UNL     1       1.130   9.237  20.004  0.00  0.00    +0.000 A 
ATOM      2  C   UNL     1       1.567   9.764  18.794  0.00  0.00    +0.000 A 
ATOM      3  C   UNL     1       2.325   8.977  17.926  0.00  0.00    +0.000 A 
ATOM      4  C   UNL     1       2.673   7.669  18.235  0.00  0.00    +0.000 A 
ATOM      5  N   UNL     1       3.426   6.997  17.358  0.00  0.00    +0.000 NA
ATOM      6  C   UNL     1       3.797   5.727  17.651  0.00  0.00    +0.000 A 
ATOM      7  C   UNL     1       3.404   5.049  18.799  0.00  0.00    +0.000 A 
ATOM      8  C   UNL     1       2.631   5.775  19.712  0.00  0.00    +0.000 A 
ATOM      9 CL   UNL     1       2.167   5.015  21.210  0.00  0.00    +0.000 Cl
ATOM     10  C   UNL     1       2.243   7.114  19.454  0.00  0.00    +0.000 A 
ATOM     11  C   UNL     1       1.473   7.924  20.330  0.00  0.00    +0.000 A 
ATOM     12  C   UNL     1       3.887   3.644  19.059  0.00  0.00    +0.000 C 
ATOM     13  C   UNL     1       4.300   2.935  17.773  0.00  0.00    +0.000 C 
ATOM     14  N   UNL     1       5.112   3.777  16.935  0.00  0.00    +0.000 N 
ATOM     15  C   UNL     1       4.743   5.082  16.675  0.00  0.00    +0.000 C 
ATOM     16  O   UNL     1       5.201   5.661  15.696  0.00  0.00    +0.000 OA
ATOM     17  H   UNL     1       5.680   3.366  16.203  0.00  0.00    +0.000 HD
ENDROOT
BRANCH   1  19
ATOM     18  C   UNL     1       0.692  11.873  20.653  0.00  0.00    +0.000 C 
ATOM     19  S   UNL     1       0.194  10.209  21.167  0.00  0.00    +0.000 S 
ENDBRANCH   1  19
TORSDOF 1
ENDMDL
MODEL 6
REMARK VINA RESULT:      -6.4      3.365      4.162
REMARK  Name = 
REMARK  2 active torsions:
REMARK  status: ('A' for Active; 'I' for Inactive)
REMARK    1  A    between atoms: C_1  and  S_2
REMARK    2  A    between atoms: S_2  and  C_3
REMARK                            x       y       z     vdW  Elec       q    Type
REMARK                         _______ _______ _______ _____ _____    ______ ____
ROOT
ATOM      1  C   UNL     1       7.494   7.769  18.011  0.00  0.00    +0.000 A 
ATOM      2  C   UNL     1       8.271   6.805  18.644  0.00  0.00    +0.000 A 
ATOM      3  C   UNL     1       7.704   5.581  19.004  0.00  0.00    +0.000 A 
ATOM      4  C   UNL     1       6.368   5.290  18.759  0.00  0.00    +0.000 A 
ATOM      5  N   UNL     1       5.901   4.105  19.164  0.00  0.00    +0.000 NA
ATOM      6  C   UNL     1       4.594   3.811  18.958  0.00  0.00    +0.000 A 
ATOM      7  C   UNL     1       3.703   4.652  18.303  0.00  0.00    +0.000 A 
ATOM      8  C   UNL     1       4.207   5.895  17.902  0.00  0.00    +0.000 A 
ATOM      9 CL   UNL     1       3.128   7.034  17.144  0.00  0.00    +0.000 Cl
ATOM     10  C   UNL     1       5.562   6.251  18.122  0.00  0.00    +0.000 A 
ATOM     11  C   UNL     1       6.149   7.492  17.760  0.00  0.00    +0.000 A 
ATOM     12  C   UNL     1       2.258   4.256  18.140  0.00  0.00    +0.000 C 
ATOM     13  C   UNL     1       2.066   2.746  18.226  0.00  0.00    +0.000 C 
ATOM     14  N   UNL     1       2.797   2.175  19.327  0.00  0.00    +0.000 N 
ATOM     15  C   UNL     1       4.116   2.512  19.550  0.00  0.00    +0.000 C 
ATOM     16  O   UNL     1       4.829   1.774  20.220  0.00  0.00    +0.000 OA
ATOM     17  H   UNL     1       2.552   1.254  19.673  0.00  0.00    +0.000 HD
ENDROOT
BRANCH   1  19
ATOM     18  C   UNL     1       9.021   9.780  19.101  0.00  0.00    +0.000 C 
ATOM     19  S   UNL     1       8.155   9.362  17.565  0.00  0.00    +0.000 S 
ENDBRANCH   1  19
TORSDOF 1
ENDMDL
MODEL 7
REMARK VINA RESULT:      -6.4      3.984      5.512
REMARK  Name = 
REMARK  2 active torsions:
REMARK  status: ('A' for Active; 'I' for Inactive)
REMARK    1  A    between atoms: C_1  and  S_2
REMARK    2  A    between atoms: S_2  and  C_3
REMARK                            x       y       z     vdW  Elec       q    Type
REMARK                         _______ _______ _______ _____ _____    ______ ____
ROOT
ATOM      1  C   UNL     1       1.098   9.568  19.539  0.00  0.00    +0.000 A 
ATOM      2  C   UNL     1       0.512   9.146  20.727  0.00  0.00    +0.000 A 
ATOM      3  C   UNL     1       0.777   7.866  21.218  0.00  0.00    +0.000 A 
ATOM      4  C   UNL     1       1.609   6.980  20.546  0.00  0.00    +0.000 A 
ATOM      5  N   UNL     1       1.784   5.764  21.073  0.00  0.00    +0.000 NA
ATOM      6  C   UNL     1       2.572   4.875  20.421  0.00  0.00    +0.000 A 
ATOM      7  C   UNL     1       3.259   5.162  19.248  0.00  0.00    +0.000 A 
ATOM      8  C   UNL     1       3.050   6.434  18.703  0.00  0.00    +0.000 A 
ATOM      9 CL   UNL     1       3.817   6.837  17.192  0.00  0.00    +0.000 Cl
ATOM     10  C   UNL     1       2.212   7.384  19.342  0.00  0.00    +0.000 A 
ATOM     11  C   UNL     1       1.936   8.688  18.851  0.00  0.00    +0.000 A 
ATOM     12  C   UNL     1       4.095   4.103  18.574  0.00  0.00    +0.000 C 
ATOM     13  C   UNL     1       4.530   3.012  19.548  0.00  0.00    +0.000 C 
ATOM     14  N   UNL     1       3.441   2.576  20.383  0.00  0.00    +0.000 N 
ATOM     15  C   UNL     1       2.621   3.491  21.011  0.00  0.00    +0.000 C 
ATOM     16  O   UNL     1       1.963   3.151  21.987  0.00  0.00    +0.000 OA
ATOM     17  H   UNL     1       3.501   1.689  20.870  0.00  0.00    +0.000 HD
ENDROOT
BRANCH   1  19
ATOM     18  C   UNL     1      -1.000  10.994  18.477  0.00  0.00    +0.000 C 
ATOM     19  S   UNL     1       0.765  11.175  18.846  0.00  0.00    +0.000 S 
ENDBRANCH   1  19
TORSDOF 1
ENDMDL
MODEL 8
REMARK VINA RESULT:      -6.1      3.045      3.788
REMARK  Name = 
REMARK  2 active torsions:
REMARK  status: ('A' for Active; 'I' for Inactive)
REMARK    1  A    between atoms: C_1  and  S_2
REMARK    2  A    between atoms: S_2  and  C_3
REMARK                            x       y       z     vdW  Elec       q    Type
REMARK                         _______ _______ _______ _____ _____    ______ ____
ROOT
ATOM      1  C   UNL     1       6.799   7.013  17.468  0.00  0.00    +0.000 A 
ATOM      2  C   UNL     1       7.498   5.825  17.289  0.00  0.00    +0.000 A 
ATOM      3  C   UNL     1       6.844   4.602  17.444  0.00  0.00    +0.000 A 
ATOM      4  C   UNL     1       5.500   4.526  17.788  0.00  0.00    +0.000 A 
ATOM      5  N   UNL     1       4.962   3.313  17.945  0.00  0.00    +0.000 NA
ATOM      6  C   UNL     1       3.658   3.216  18.304  0.00  0.00    +0.000 A 
ATOM      7  C   UNL     1       2.818   4.310  18.478  0.00  0.00    +0.000 A 
ATOM      8  C   UNL     1       3.405   5.571  18.326  0.00  0.00    +0.000 A 
ATOM      9 CL   UNL     1       2.432   6.989  18.606  0.00  0.00    +0.000 Cl
ATOM     10  C   UNL     1       4.772   5.715  17.975  0.00  0.00    +0.000 A 
ATOM     11  C   UNL     1       5.447   6.954  17.815  0.00  0.00    +0.000 A 
ATOM     12  C   UNL     1       1.386   4.112  18.905  0.00  0.00    +0.000 C 
ATOM     13  C   UNL     1       0.875   2.716  18.563  0.00  0.00    +0.000 C 
ATOM     14  N   UNL     1       1.827   1.696  18.918  0.00  0.00    +0.000 N 
ATOM     15  C   UNL     1       3.159   1.824  18.580  0.00  0.00    +0.000 C 
ATOM     16  O   UNL     1       3.875   0.830  18.538  0.00  0.00    +0.000 OA
ATOM     17  H   UNL     1       1.526   0.733  19.009  0.00  0.00    +0.000 HD
ENDROOT
BRANCH   1  19
ATOM     18  C   UNL     1       8.660   8.551  18.783  0.00  0.00    +0.000 C 
ATOM     19  S   UNL     1       7.592   8.601  17.321  0.00  0.00    +0.000 S 
ENDBRANCH   1  19
TORSDOF 1
ENDMDL
MODEL 9
REMARK VINA RESULT:      -6.1      6.267      7.701
REMARK  Name = 
REMARK  2 active torsions:
REMARK  status: ('A' for Active; 'I' for Inactive)
REMARK    1  A    between atoms: C_1  and  S_2
REMARK    2  A    between atoms: S_2  and  C_3
REMARK                            x       y       z     vdW  Elec       q    Type
REMARK                         _______ _______ _______ _____ _____    ______ ____
ROOT
ATOM      1  C   UNL     1       2.370   7.100  19.372  0.00  0.00    +0.000 A 
ATOM      2  C   UNL     1       2.397   7.674  18.106  0.00  0.00    +0.000 A 
ATOM      3  C   UNL     1       1.814   8.925  17.896  0.00  0.00    +0.000 A 
ATOM      4  C   UNL     1       1.188   9.624  18.919  0.00  0.00    +0.000 A 
ATOM      5  N   UNL     1       0.630  10.803  18.622  0.00  0.00    +0.000 NA
ATOM      6  C   UNL     1      -0.008  11.490  19.601  0.00  0.00    +0.000 A 
ATOM      7  C   UNL     1      -0.084  11.068  20.923  0.00  0.00    +0.000 A 
ATOM      8  C   UNL     1       0.491   9.825  21.210  0.00  0.00    +0.000 A 
ATOM      9 CL   UNL     1       0.366   9.196  22.830  0.00  0.00    +0.000 Cl
ATOM     10  C   UNL     1       1.146   9.063  20.208  0.00  0.00    +0.000 A 
ATOM     11  C   UNL     1       1.742   7.790  20.411  0.00  0.00    +0.000 A 
ATOM     12  C   UNL     1      -0.837  11.884  21.942  0.00  0.00    +0.000 C 
ATOM     13  C   UNL     1      -0.961  13.346  21.527  0.00  0.00    +0.000 C 
ATOM     14  N   UNL     1      -1.345  13.480  20.146  0.00  0.00    +0.000 N 
ATOM     15  C   UNL     1      -0.714  12.745  19.163  0.00  0.00    +0.000 C 
ATOM     16  O   UNL     1      -0.765  13.117  17.996  0.00  0.00    +0.000 OA
ATOM     17  H   UNL     1      -1.729  14.355  19.810  0.00  0.00    +0.000 HD
ENDROOT
BRANCH   1  19
ATOM     18  C   UNL     1       1.761   4.793  20.739  0.00  0.00    +0.000 C 
ATOM     19  S   UNL     1       3.063   5.490  19.688  0.00  0.00    +0.000 S 
ENDBRANCH   1  19
TORSDOF 1
ENDMDL
