MODEL 1
REMARK VINA RESULT:      -9.0      0.000      0.000
REMARK  Name = 
REMARK  4 active torsions:
REMARK  status: ('A' for Active; 'I' for Inactive)
REMARK    1  A    between atoms: C_2  and  C_3
REMARK    2  A    between atoms: C_2  and  C_11
REMARK    3  A    between atoms: N_15  and  C_16
REMARK    4  A    between atoms: C_16  and  C_17
REMARK                            x       y       z     vdW  Elec       q    Type
REMARK                         _______ _______ _______ _____ _____    ______ ____
ROOT
ATOM      1  C   UNL     1       3.703   3.522  19.732  0.00  0.00    +0.000 C 
ATOM      2  C   UNL     1       2.579   2.485  19.743  0.00  0.00    +0.000 C 
ATOM      3  C   UNL     1       1.223   3.068  19.360  0.00  0.00    +0.000 C 
ATOM      4  C   UNL     1       0.930   4.395  20.057  0.00  0.00    +0.000 C 
ATOM      5  N   UNL     1       2.027   5.365  19.883  0.00  0.00    +0.000 NA
ATOM      6  C   UNL     1       3.276   4.818  20.435  0.00  0.00    +0.000 C 
ENDROOT
BRANCH   1   8
ATOM      7  O   UNL     1       3.793   3.271  17.301  0.00  0.00    +0.000 OA
ATOM      8  C   UNL     1       4.231   3.811  18.320  0.00  0.00    +0.000 C 
BRANCH   8   9
ATOM      9  C   UNL     1       5.322   4.805  18.144  0.00  0.00    +0.000 A 
ATOM     10  C   UNL     1       6.428   4.751  19.011  0.00  0.00    +0.000 A 
ATOM     11  C   UNL     1       7.464   5.674  18.861  0.00  0.00    +0.000 A 
ATOM     12  F   UNL     1       8.515   5.613  19.681  0.00  0.00    +0.000 F 
ATOM     13  C   UNL     1       7.418   6.653  17.875  0.00  0.00    +0.000 A 
ATOM     14  C   UNL     1       6.308   6.726  17.036  0.00  0.00    +0.000 A 
ATOM     15  C   UNL     1       5.266   5.812  17.182  0.00  0.00    +0.000 A 
ATOM     16  F   UNL     1       4.196   5.965  16.392  0.00  0.00    +0.000 F 
ENDBRANCH   8   9
ENDBRANCH   1   8
BRANCH   5  17
ATOM     17  C   UNL     1       1.703   6.659  20.529  0.00  0.00    +0.000 C 
BRANCH  17  18
ATOM     18  C   UNL     1       1.820   7.808  19.567  0.00  0.00    +0.000 A 
ATOM     19  C   UNL     1       2.426   7.823  18.317  0.00  0.00    +0.000 A 
ATOM     20  C   UNL     1       2.193   9.078  17.727  0.00  0.00    +0.000 A 
ATOM     21  C   UNL     1       1.470   9.817  18.632  0.00  0.00    +0.000 A 
ATOM     22  N   UNL     1       1.246   9.060  19.774  0.00  0.00    +0.000 N 
ATOM     23  C   UNL     1       0.544   9.522  20.935  0.00  0.00    +0.000 A 
ATOM     24  C   UNL     1      -0.428  10.512  20.788  0.00  0.00    +0.000 A 
ATOM     25  C   UNL     1      -1.119  10.950  21.916  0.00  0.00    +0.000 A 
ATOM     26  C   UNL     1      -0.800  10.421  23.158  0.00  0.00    +0.000 A 
ATOM     27  C   UNL     1       0.187   9.452  23.221  0.00  0.00    +0.000 A 
ATOM     28  N   UNL     1       0.849   8.977  22.141  0.00  0.00    +0.000 NA
ENDBRANCH  17  18
ENDBRANCH   5  17
TORSDOF 4
ENDMDL
MODEL 2
REMARK VINA RESULT:      -8.8      0.750      1.733
REMARK  Name = 
REMARK  4 active torsions:
REMARK  status: ('A' for Active; 'I' for Inactive)
REMARK    1  A    between atoms: C_2  and  C_3
REMARK    2  A    between atoms: C_2  and  C_11
REMARK    3  A    between atoms: N_15  and  C_16
REMARK    4  A    between atoms: C_16  and  C_17
REMARK                            x       y       z     vdW  Elec       q    Type
REMARK                         _______ _______ _______ _____ _____    ______ ____
ROOT
ATOM      1  C   UNL     1       3.566   3.366  19.690  0.00  0.00    +0.000 C 
ATOM      2  C   UNL     1       2.453   2.344  19.924  0.00  0.00    +0.000 C 
ATOM      3  C   UNL     1       1.057   2.918  19.708  0.00  0.00    +0.000 C 
ATOM      4  C   UNL     1       0.871   4.286  20.362  0.00  0.00    +0.000 C 
ATOM      5  N   UNL     1       1.934   5.233  19.975  0.00  0.00    +0.000 NA
ATOM      6  C   UNL     1       3.248   4.706  20.371  0.00  0.00    +0.000 C 
ENDROOT
BRANCH   1   8
ATOM      7  O   UNL     1       3.445   2.844  17.304  0.00  0.00    +0.000 OA
ATOM      8  C   UNL     1       3.884   3.568  18.202  0.00  0.00    +0.000 C 
BRANCH   8   9
ATOM      9  C   UNL     1       4.755   4.701  17.794  0.00  0.00    +0.000 A 
ATOM     10  C   UNL     1       4.426   5.416  16.628  0.00  0.00    +0.000 A 
ATOM     11  C   UNL     1       5.230   6.486  16.229  0.00  0.00    +0.000 A 
ATOM     12  F   UNL     1       4.909   7.166  15.127  0.00  0.00    +0.000 F 
ATOM     13  C   UNL     1       6.355   6.852  16.959  0.00  0.00    +0.000 A 
ATOM     14  C   UNL     1       6.697   6.125  18.097  0.00  0.00    +0.000 A 
ATOM     15  C   UNL     1       5.904   5.051  18.500  0.00  0.00    +0.000 A 
ATOM     16  F   UNL     1       6.313   4.348  19.563  0.00  0.00    +0.000 F 
ENDBRANCH   8   9
ENDBRANCH   1   8
BRANCH   5  17
ATOM     17  C   UNL     1       1.710   6.565  20.584  0.00  0.00    +0.000 C 
BRANCH  17  18
ATOM     18  C   UNL     1       1.852   7.671  19.576  0.00  0.00    +0.000 A 
ATOM     19  C   UNL     1       2.462   7.623  18.329  0.00  0.00    +0.000 A 
ATOM     20  C   UNL     1       2.257   8.857  17.687  0.00  0.00    +0.000 A 
ATOM     21  C   UNL     1       1.546   9.646  18.558  0.00  0.00    +0.000 A 
ATOM     22  N   UNL     1       1.303   8.942  19.729  0.00  0.00    +0.000 N 
ATOM     23  C   UNL     1       0.607   9.465  20.868  0.00  0.00    +0.000 A 
ATOM     24  C   UNL     1      -0.345  10.467  20.677  0.00  0.00    +0.000 A 
ATOM     25  C   UNL     1      -1.030  10.965  21.783  0.00  0.00    +0.000 A 
ATOM     26  C   UNL     1      -0.725  10.481  23.047  0.00  0.00    +0.000 A 
ATOM     27  C   UNL     1       0.242   9.496  23.153  0.00  0.00    +0.000 A 
ATOM     28  N   UNL     1       0.897   8.964  22.096  0.00  0.00    +0.000 NA
ENDBRANCH  17  18
ENDBRANCH   5  17
TORSDOF 4
ENDMDL
MODEL 3
REMARK VINA RESULT:      -8.7      1.363      2.001
REMARK  Name = 
REMARK  4 active torsions:
REMARK  status: ('A' for Active; 'I' for Inactive)
REMARK    1  A    between atoms: C_2  and  C_3
REMARK    2  A    between atoms: C_2  and  C_11
REMARK    3  A    between atoms: N_15  and  C_16
REMARK    4  A    between atoms: C_16  and  C_17
REMARK                            x       y       z     vdW  Elec       q    Type
REMARK                         _______ _______ _______ _____ _____    ______ ____
ROOT
ATOM      1  C   UNL     1       3.763   3.727  19.306  0.00  0.00    +0.000 C 
ATOM      2  C   UNL     1       2.900   2.567  19.803  0.00  0.00    +0.000 C 
ATOM      3  C   UNL     1       1.420   2.922  19.906  0.00  0.00    +0.000 C 
ATOM      4  C   UNL     1       1.182   4.279  20.568  0.00  0.00    +0.000 C 
ATOM      5  N   UNL     1       1.974   5.350  19.934  0.00  0.00    +0.000 NA
ATOM      6  C   UNL     1       3.408   5.037  20.025  0.00  0.00    +0.000 C 
ENDROOT
BRANCH   1   8
ATOM      7  O   UNL     1       2.664   3.822  17.124  0.00  0.00    +0.000 OA
ATOM      8  C   UNL     1       3.704   3.903  17.782  0.00  0.00    +0.000 C 
BRANCH   8   9
ATOM      9  C   UNL     1       4.955   4.201  17.038  0.00  0.00    +0.000 A 
ATOM     10  C   UNL     1       4.952   4.071  15.638  0.00  0.00    +0.000 A 
ATOM     11  C   UNL     1       6.117   4.350  14.919  0.00  0.00    +0.000 A 
ATOM     12  F   UNL     1       6.106   4.233  13.590  0.00  0.00    +0.000 F 
ATOM     13  C   UNL     1       7.283   4.744  15.564  0.00  0.00    +0.000 A 
ATOM     14  C   UNL     1       7.294   4.844  16.954  0.00  0.00    +0.000 A 
ATOM     15  C   UNL     1       6.138   4.562  17.681  0.00  0.00    +0.000 A 
ATOM     16  F   UNL     1       6.221   4.612  19.016  0.00  0.00    +0.000 F 
ENDBRANCH   8   9
ENDBRANCH   1   8
BRANCH   5  17
ATOM     17  C   UNL     1       1.694   6.663  20.561  0.00  0.00    +0.000 C 
BRANCH  17  18
ATOM     18  C   UNL     1       1.818   7.790  19.575  0.00  0.00    +0.000 A 
ATOM     19  C   UNL     1       2.422   7.775  18.324  0.00  0.00    +0.000 A 
ATOM     20  C   UNL     1       2.198   9.019  17.709  0.00  0.00    +0.000 A 
ATOM     21  C   UNL     1       1.481   9.782  18.598  0.00  0.00    +0.000 A 
ATOM     22  N   UNL     1       1.253   9.051  19.756  0.00  0.00    +0.000 N 
ATOM     23  C   UNL     1       0.556   9.543  20.908  0.00  0.00    +0.000 A 
ATOM     24  C   UNL     1      -0.409  10.536  20.741  0.00  0.00    +0.000 A 
ATOM     25  C   UNL     1      -1.095  11.003  21.860  0.00  0.00    +0.000 A 
ATOM     26  C   UNL     1      -0.779  10.498  23.113  0.00  0.00    +0.000 A 
ATOM     27  C   UNL     1       0.201   9.523  23.196  0.00  0.00    +0.000 A 
ATOM     28  N   UNL     1       0.858   9.021  22.125  0.00  0.00    +0.000 NA
ENDBRANCH  17  18
ENDBRANCH   5  17
TORSDOF 4
ENDMDL
MODEL 4
REMARK VINA RESULT:      -8.1      1.526      1.813
REMARK  Name = 
REMARK  4 active torsions:
REMARK  status: ('A' for Active; 'I' for Inactive)
REMARK    1  A    between atoms: C_2  and  C_3
REMARK    2  A    between atoms: C_2  and  C_11
REMARK    3  A    between atoms: N_15  and  C_16
REMARK    4  A    between atoms: C_16  and  C_17
REMARK                            x       y       z     vdW  Elec       q    Type
REMARK                         _______ _______ _______ _____ _____    ______ ____
ROOT
ATOM      1  C   UNL     1       3.451   3.463  19.101  0.00  0.00    +0.000 C 
ATOM      2  C   UNL     1       2.504   2.380  19.621  0.00  0.00    +0.000 C 
ATOM      3  C   UNL     1       1.074   2.873  19.811  0.00  0.00    +0.000 C 
ATOM      4  C   UNL     1       1.005   4.229  20.511  0.00  0.00    +0.000 C 
ATOM      5  N   UNL     1       1.863   5.235  19.857  0.00  0.00    +0.000 NA
ATOM      6  C   UNL     1       3.263   4.783  19.864  0.00  0.00    +0.000 C 
ENDROOT
BRANCH   1   8
ATOM      7  O   UNL     1       2.316   3.416  16.936  0.00  0.00    +0.000 OA
ATOM      8  C   UNL     1       3.330   3.681  17.587  0.00  0.00    +0.000 C 
BRANCH   8   9
ATOM      9  C   UNL     1       4.480   4.258  16.844  0.00  0.00    +0.000 A 
ATOM     10  C   UNL     1       4.620   5.657  16.801  0.00  0.00    +0.000 A 
ATOM     11  C   UNL     1       5.696   6.219  16.110  0.00  0.00    +0.000 A 
ATOM     12  F   UNL     1       5.828   7.546  16.081  0.00  0.00    +0.000 F 
ATOM     13  C   UNL     1       6.626   5.421  15.455  0.00  0.00    +0.000 A 
ATOM     14  C   UNL     1       6.470   4.036  15.472  0.00  0.00    +0.000 A 
ATOM     15  C   UNL     1       5.396   3.466  16.154  0.00  0.00    +0.000 A 
ATOM     16  F   UNL     1       5.258   2.137  16.085  0.00  0.00    +0.000 F 
ENDBRANCH   8   9
ENDBRANCH   1   8
BRANCH   5  17
ATOM     17  C   UNL     1       1.746   6.553  20.525  0.00  0.00    +0.000 C 
BRANCH  17  18
ATOM     18  C   UNL     1       1.857   7.686  19.544  0.00  0.00    +0.000 A 
ATOM     19  C   UNL     1       2.442   7.679  18.285  0.00  0.00    +0.000 A 
ATOM     20  C   UNL     1       2.210   8.927  17.680  0.00  0.00    +0.000 A 
ATOM     21  C   UNL     1       1.508   9.685  18.586  0.00  0.00    +0.000 A 
ATOM     22  N   UNL     1       1.296   8.947  19.742  0.00  0.00    +0.000 N 
ATOM     23  C   UNL     1       0.618   9.431  20.907  0.00  0.00    +0.000 A 
ATOM     24  C   UNL     1      -0.349  10.427  20.762  0.00  0.00    +0.000 A 
ATOM     25  C   UNL     1      -1.017  10.887  21.894  0.00  0.00    +0.000 A 
ATOM     26  C   UNL     1      -0.683  10.373  23.139  0.00  0.00    +0.000 A 
ATOM     27  C   UNL     1       0.297   9.397  23.200  0.00  0.00    +0.000 A 
ATOM     28  N   UNL     1       0.937   8.901  22.117  0.00  0.00    +0.000 NA
ENDBRANCH  17  18
ENDBRANCH   5  17
TORSDOF 4
ENDMDL
MODEL 5
REMARK VINA RESULT:      -8.1      1.609      2.130
REMARK  Name = 
REMARK  4 active torsions:
REMARK  status: ('A' for Active; 'I' for Inactive)
REMARK    1  A    between atoms: C_2  and  C_3
REMARK    2  A    between atoms: C_2  and  C_11
REMARK    3  A    between atoms: N_15  and  C_16
REMARK    4  A    between atoms: C_16  and  C_17
REMARK                            x       y       z     vdW  Elec       q    Type
REMARK                         _______ _______ _______ _____ _____    ______ ____
ROOT
ATOM      1  C   UNL     1       4.253   3.986  19.428  0.00  0.00    +0.000 C 
ATOM      2  C   UNL     1       3.437   3.195  18.404  0.00  0.00    +0.000 C 
ATOM      3  C   UNL     1       2.555   4.079  17.529  0.00  0.00    +0.000 C 
ATOM      4  C   UNL     1       1.799   5.137  18.330  0.00  0.00    +0.000 C 
ATOM      5  N   UNL     1       2.697   5.923  19.196  0.00  0.00    +0.000 NA
ATOM      6  C   UNL     1       3.389   5.035  20.142  0.00  0.00    +0.000 C 
ENDROOT
BRANCH   1   8
ATOM      7  O   UNL     1       6.516   4.911  19.472  0.00  0.00    +0.000 OA
ATOM      8  C   UNL     1       5.508   4.628  18.820  0.00  0.00    +0.000 C 
BRANCH   8   9
ATOM      9  C   UNL     1       5.539   4.921  17.363  0.00  0.00    +0.000 A 
ATOM     10  C   UNL     1       5.883   3.884  16.477  0.00  0.00    +0.000 A 
ATOM     11  C   UNL     1       5.915   4.137  15.104  0.00  0.00    +0.000 A 
ATOM     12  F   UNL     1       6.233   3.149  14.266  0.00  0.00    +0.000 F 
ATOM     13  C   UNL     1       5.623   5.398  14.598  0.00  0.00    +0.000 A 
ATOM     14  C   UNL     1       5.312   6.433  15.478  0.00  0.00    +0.000 A 
ATOM     15  C   UNL     1       5.283   6.191  16.851  0.00  0.00    +0.000 A 
ATOM     16  F   UNL     1       5.041   7.233  17.656  0.00  0.00    +0.000 F 
ENDBRANCH   8   9
ENDBRANCH   1   8
BRANCH   5  17
ATOM     17  C   UNL     1       1.950   6.973  19.928  0.00  0.00    +0.000 C 
BRANCH  17  18
ATOM     18  C   UNL     1       1.898   8.262  19.157  0.00  0.00    +0.000 A 
ATOM     19  C   UNL     1       2.379   8.519  17.880  0.00  0.00    +0.000 A 
ATOM     20  C   UNL     1       2.010   9.828  17.522  0.00  0.00    +0.000 A 
ATOM     21  C   UNL     1       1.330  10.357  18.592  0.00  0.00    +0.000 A 
ATOM     22  N   UNL     1       1.266   9.418  19.612  0.00  0.00    +0.000 N 
ATOM     23  C   UNL     1       0.651   9.637  20.887  0.00  0.00    +0.000 A 
ATOM     24  C   UNL     1      -0.393  10.557  20.985  0.00  0.00    +0.000 A 
ATOM     25  C   UNL     1      -0.999  10.759  22.223  0.00  0.00    +0.000 A 
ATOM     26  C   UNL     1      -0.529  10.071  23.332  0.00  0.00    +0.000 A 
ATOM     27  C   UNL     1       0.520   9.186  23.154  0.00  0.00    +0.000 A 
ATOM     28  N   UNL     1       1.105   8.937  21.960  0.00  0.00    +0.000 NA
ENDBRANCH  17  18
ENDBRANCH   5  17
TORSDOF 4
ENDMDL
MODEL 6
REMARK VINA RESULT:      -8.0      1.453      1.951
REMARK  Name = 
REMARK  4 active torsions:
REMARK  status: ('A' for Active; 'I' for Inactive)
REMARK    1  A    between atoms: C_2  and  C_3
REMARK    2  A    between atoms: C_2  and  C_11
REMARK    3  A    between atoms: N_15  and  C_16
REMARK    4  A    between atoms: C_16  and  C_17
REMARK                            x       y       z     vdW  Elec       q    Type
REMARK                         _______ _______ _______ _____ _____    ______ ____
ROOT
ATOM      1  C   UNL     1       2.691   2.654  20.875  0.00  0.00    +0.000 C 
ATOM      2  C   UNL     1       1.582   2.157  19.946  0.00  0.00    +0.000 C 
ATOM      3  C   UNL     1       1.172   3.187  18.899  0.00  0.00    +0.000 C 
ATOM      4  C   UNL     1       0.992   4.587  19.484  0.00  0.00    +0.000 C 
ATOM      5  N   UNL     1       2.169   5.016  20.262  0.00  0.00    +0.000 NA
ATOM      6  C   UNL     1       2.410   4.080  21.370  0.00  0.00    +0.000 C 
ENDROOT
BRANCH   1   8
ATOM      7  O   UNL     1       4.993   1.851  20.686  0.00  0.00    +0.000 OA
ATOM      8  C   UNL     1       4.086   2.558  20.240  0.00  0.00    +0.000 C 
BRANCH   8   9
ATOM      9  C   UNL     1       4.377   3.339  19.010  0.00  0.00    +0.000 A 
ATOM     10  C   UNL     1       4.973   4.606  19.143  0.00  0.00    +0.000 A 
ATOM     11  C   UNL     1       5.258   5.355  18.000  0.00  0.00    +0.000 A 
ATOM     12  F   UNL     1       5.831   6.552  18.131  0.00  0.00    +0.000 F 
ATOM     13  C   UNL     1       4.953   4.875  16.731  0.00  0.00    +0.000 A 
ATOM     14  C   UNL     1       4.335   3.633  16.601  0.00  0.00    +0.000 A 
ATOM     15  C   UNL     1       4.041   2.880  17.737  0.00  0.00    +0.000 A 
ATOM     16  F   UNL     1       3.391   1.724  17.560  0.00  0.00    +0.000 F 
ENDBRANCH   8   9
ENDBRANCH   1   8
BRANCH   5  17
ATOM     17  C   UNL     1       1.992   6.393  20.782  0.00  0.00    +0.000 C 
BRANCH  17  18
ATOM     18  C   UNL     1       2.056   7.417  19.683  0.00  0.00    +0.000 A 
ATOM     19  C   UNL     1       2.639   7.295  18.428  0.00  0.00    +0.000 A 
ATOM     20  C   UNL     1       2.358   8.460  17.694  0.00  0.00    +0.000 A 
ATOM     21  C   UNL     1       1.627   9.283  18.515  0.00  0.00    +0.000 A 
ATOM     22  N   UNL     1       1.446   8.668  19.746  0.00  0.00    +0.000 N 
ATOM     23  C   UNL     1       0.751   9.249  20.856  0.00  0.00    +0.000 A 
ATOM     24  C   UNL     1      -0.255  10.185  20.609  0.00  0.00    +0.000 A 
ATOM     25  C   UNL     1      -0.939  10.738  21.688  0.00  0.00    +0.000 A 
ATOM     26  C   UNL     1      -0.583  10.377  22.979  0.00  0.00    +0.000 A 
ATOM     27  C   UNL     1       0.435   9.452  23.140  0.00  0.00    +0.000 A 
ATOM     28  N   UNL     1       1.093   8.866  22.113  0.00  0.00    +0.000 NA
ENDBRANCH  17  18
ENDBRANCH   5  17
TORSDOF 4
ENDMDL
MODEL 7
REMARK VINA RESULT:      -7.9      3.268      7.434
REMARK  Name = 
REMARK  4 active torsions:
REMARK  status: ('A' for Active; 'I' for Inactive)
REMARK    1  A    between atoms: C_2  and  C_3
REMARK    2  A    between atoms: C_2  and  C_11
REMARK    3  A    between atoms: N_15  and  C_16
REMARK    4  A    between atoms: C_16  and  C_17
REMARK                            x       y       z     vdW  Elec       q    Type
REMARK                         _______ _______ _______ _____ _____    ______ ____
ROOT
ATOM      1  C   UNL     1       1.752   4.586  18.641  0.00  0.00    +0.000 C 
ATOM      2  C   UNL     1       1.143   3.237  19.027  0.00  0.00    +0.000 C 
ATOM      3  C   UNL     1       2.190   2.172  19.333  0.00  0.00    +0.000 C 
ATOM      4  C   UNL     1       3.318   2.138  18.303  0.00  0.00    +0.000 C 
ATOM      5  N   UNL     1       3.916   3.470  18.094  0.00  0.00    +0.000 NA
ATOM      6  C   UNL     1       2.891   4.415  17.626  0.00  0.00    +0.000 C 
ENDROOT
BRANCH   1   8
ATOM      7  O   UNL     1       2.952   4.949  20.741  0.00  0.00    +0.000 OA
ATOM      8  C   UNL     1       2.216   5.399  19.857  0.00  0.00    +0.000 C 
BRANCH   8   9
ATOM      9  C   UNL     1       1.782   6.813  19.993  0.00  0.00    +0.000 A 
ATOM     10  C   UNL     1       1.022   7.178  21.118  0.00  0.00    +0.000 A 
ATOM     11  C   UNL     1       0.606   8.504  21.266  0.00  0.00    +0.000 A 
ATOM     12  F   UNL     1      -0.107   8.847  22.340  0.00  0.00    +0.000 F 
ATOM     13  C   UNL     1       0.921   9.466  20.315  0.00  0.00    +0.000 A 
ATOM     14  C   UNL     1       1.648   9.098  19.184  0.00  0.00    +0.000 A 
ATOM     15  C   UNL     1       2.062   7.776  19.025  0.00  0.00    +0.000 A 
ATOM     16  F   UNL     1       2.702   7.463  17.892  0.00  0.00    +0.000 F 
ENDBRANCH   8   9
ENDBRANCH   1   8
BRANCH   5  17
ATOM     17  C   UNL     1       5.037   3.406  17.125  0.00  0.00    +0.000 C 
BRANCH  17  18
ATOM     18  C   UNL     1       5.862   4.663  17.144  0.00  0.00    +0.000 A 
ATOM     19  C   UNL     1       6.185   5.463  18.232  0.00  0.00    +0.000 A 
ATOM     20  C   UNL     1       7.069   6.466  17.797  0.00  0.00    +0.000 A 
ATOM     21  C   UNL     1       7.254   6.278  16.450  0.00  0.00    +0.000 A 
ATOM     22  N   UNL     1       6.509   5.187  16.026  0.00  0.00    +0.000 N 
ATOM     23  C   UNL     1       6.444   4.717  14.674  0.00  0.00    +0.000 A 
ATOM     24  C   UNL     1       7.529   4.943  13.827  0.00  0.00    +0.000 A 
ATOM     25  C   UNL     1       7.470   4.473  12.517  0.00  0.00    +0.000 A 
ATOM     26  C   UNL     1       6.325   3.826  12.076  0.00  0.00    +0.000 A 
ATOM     27  C   UNL     1       5.286   3.652  12.975  0.00  0.00    +0.000 A 
ATOM     28  N   UNL     1       5.327   4.061  14.264  0.00  0.00    +0.000 NA
ENDBRANCH  17  18
ENDBRANCH   5  17
TORSDOF 4
ENDMDL
MODEL 8
REMARK VINA RESULT:      -7.9      3.135      5.683
REMARK  Name = 
REMARK  4 active torsions:
REMARK  status: ('A' for Active; 'I' for Inactive)
REMARK    1  A    between atoms: C_2  and  C_3
REMARK    2  A    between atoms: C_2  and  C_11
REMARK    3  A    between atoms: N_15  and  C_16
REMARK    4  A    between atoms: C_16  and  C_17
REMARK                            x       y       z     vdW  Elec       q    Type
REMARK                         _______ _______ _______ _____ _____    ______ ____
ROOT
ATOM      1  C   UNL     1       6.831   6.311  16.187  0.00  0.00    +0.000 C 
ATOM      2  C   UNL     1       7.498   6.695  17.508  0.00  0.00    +0.000 C 
ATOM      3  C   UNL     1       6.928   5.947  18.708  0.00  0.00    +0.000 C 
ATOM      4  C   UNL     1       5.401   5.902  18.706  0.00  0.00    +0.000 C 
ATOM      5  N   UNL     1       4.864   5.403  17.426  0.00  0.00    +0.000 NA
ATOM      6  C   UNL     1       5.302   6.271  16.323  0.00  0.00    +0.000 C 
ENDROOT
BRANCH   1   8
ATOM      7  O   UNL     1       7.972   4.150  16.280  0.00  0.00    +0.000 OA
ATOM      8  C   UNL     1       7.366   4.992  15.612  0.00  0.00    +0.000 C 
BRANCH   8   9
ATOM      9  C   UNL     1       7.139   4.682  14.177  0.00  0.00    +0.000 A 
ATOM     10  C   UNL     1       6.138   3.752  13.840  0.00  0.00    +0.000 A 
ATOM     11  C   UNL     1       5.907   3.449  12.496  0.00  0.00    +0.000 A 
ATOM     12  F   UNL     1       4.951   2.574  12.181  0.00  0.00    +0.000 F 
ATOM     13  C   UNL     1       6.655   4.042  11.486  0.00  0.00    +0.000 A 
ATOM     14  C   UNL     1       7.667   4.939  11.822  0.00  0.00    +0.000 A 
ATOM     15  C   UNL     1       7.909   5.244  13.160  0.00  0.00    +0.000 A 
ATOM     16  F   UNL     1       8.932   6.063  13.431  0.00  0.00    +0.000 F 
ENDBRANCH   8   9
ENDBRANCH   1   8
BRANCH   5  17
ATOM     17  C   UNL     1       3.384   5.325  17.462  0.00  0.00    +0.000 C 
BRANCH  17  18
ATOM     18  C   UNL     1       2.801   6.260  18.484  0.00  0.00    +0.000 A 
ATOM     19  C   UNL     1       2.571   7.624  18.368  0.00  0.00    +0.000 A 
ATOM     20  C   UNL     1       1.908   8.063  19.528  0.00  0.00    +0.000 A 
ATOM     21  C   UNL     1       1.763   6.967  20.343  0.00  0.00    +0.000 A 
ATOM     22  N   UNL     1       2.319   5.854  19.727  0.00  0.00    +0.000 N 
ATOM     23  C   UNL     1       2.368   4.542  20.301  0.00  0.00    +0.000 A 
ATOM     24  C   UNL     1       1.389   4.170  21.222  0.00  0.00    +0.000 A 
ATOM     25  C   UNL     1       1.430   2.889  21.768  0.00  0.00    +0.000 A 
ATOM     26  C   UNL     1       2.460   2.030  21.414  0.00  0.00    +0.000 A 
ATOM     27  C   UNL     1       3.401   2.480  20.504  0.00  0.00    +0.000 A 
ATOM     28  N   UNL     1       3.368   3.702  19.925  0.00  0.00    +0.000 NA
ENDBRANCH  17  18
ENDBRANCH   5  17
TORSDOF 4
ENDMDL
MODEL 9
REMARK VINA RESULT:      -7.8      1.290      1.995
REMARK  Name = 
REMARK  4 active torsions:
REMARK  status: ('A' for Active; 'I' for Inactive)
REMARK    1  A    between atoms: C_2  and  C_3
REMARK    2  A    between atoms: C_2  and  C_11
REMARK    3  A    between atoms: N_15  and  C_16
REMARK    4  A    between atoms: C_16  and  C_17
REMARK                            x       y       z     vdW  Elec       q    Type
REMARK                         _______ _______ _______ _____ _____    ______ ____
ROOT
ATOM      1  C   UNL     1       2.866   3.097  19.706  0.00  0.00    +0.000 C 
ATOM      2  C   UNL     1       1.972   2.776  18.507  0.00  0.00    +0.000 C 
ATOM      3  C   UNL     1       1.692   3.987  17.625  0.00  0.00    +0.000 C 
ATOM      4  C   UNL     1       1.328   5.234  18.430  0.00  0.00    +0.000 C 
ATOM      5  N   UNL     1       2.320   5.523  19.482  0.00  0.00    +0.000 NA
ATOM      6  C   UNL     1       2.416   4.386  20.410  0.00  0.00    +0.000 C 
ENDROOT
BRANCH   1   8
ATOM      7  O   UNL     1       5.227   2.486  19.882  0.00  0.00    +0.000 OA
ATOM      8  C   UNL     1       4.354   3.165  19.335  0.00  0.00    +0.000 C 
BRANCH   8   9
ATOM      9  C   UNL     1       4.790   4.082  18.249  0.00  0.00    +0.000 A 
ATOM     10  C   UNL     1       4.723   3.628  16.920  0.00  0.00    +0.000 A 
ATOM     11  C   UNL     1       5.124   4.475  15.884  0.00  0.00    +0.000 A 
ATOM     12  F   UNL     1       5.050   4.043  14.624  0.00  0.00    +0.000 F 
ATOM     13  C   UNL     1       5.599   5.755  16.145  0.00  0.00    +0.000 A 
ATOM     14  C   UNL     1       5.695   6.192  17.464  0.00  0.00    +0.000 A 
ATOM     15  C   UNL     1       5.302   5.352  18.505  0.00  0.00    +0.000 A 
ATOM     16  F   UNL     1       5.473   5.798  19.756  0.00  0.00    +0.000 F 
ENDBRANCH   8   9
ENDBRANCH   1   8
BRANCH   5  17
ATOM     17  C   UNL     1       1.971   6.760  20.220  0.00  0.00    +0.000 C 
BRANCH  17  18
ATOM     18  C   UNL     1       1.993   7.968  19.326  0.00  0.00    +0.000 A 
ATOM     19  C   UNL     1       2.556   8.091  18.063  0.00  0.00    +0.000 A 
ATOM     20  C   UNL     1       2.236   9.363  17.556  0.00  0.00    +0.000 A 
ATOM     21  C   UNL     1       1.503  10.005  18.524  0.00  0.00    +0.000 A 
ATOM     22  N   UNL     1       1.357   9.171  19.625  0.00  0.00    +0.000 N 
ATOM     23  C   UNL     1       0.669   9.523  20.831  0.00  0.00    +0.000 A 
ATOM     24  C   UNL     1      -0.361  10.463  20.772  0.00  0.00    +0.000 A 
ATOM     25  C   UNL     1      -1.038  10.794  21.944  0.00  0.00    +0.000 A 
ATOM     26  C   UNL     1      -0.651  10.212  23.143  0.00  0.00    +0.000 A 
ATOM     27  C   UNL     1       0.390   9.299  23.118  0.00  0.00    +0.000 A 
ATOM     28  N   UNL     1       1.042   8.926  21.993  0.00  0.00    +0.000 NA
ENDBRANCH  17  18
ENDBRANCH   5  17
TORSDOF 4
ENDMDL
